TITL C-4164234-2335-630 2.15753492913163 125000 -16518.1154515832 0 0 110 (C1) n - 1
REM
REM in /home/nfs/bkarasulu/CARBON/AIRSS/Generating-Clusters/ReaxFF-fromJPCA2015/Units_Real/with-SteepDescent/Only-C1/SD-CG/Try1-3A/FIRE-CG
REM
REM
REM
REM
REM
REM ./C.cell (11c1c37f851c82e70ff6c80c92926a4b)
REM
REM compiler GCC version 9.2.1 20190827 (Red Hat 9.2.1-1)
REM options -cpp -mtune=generic -march=x86-64 -g -O0 -fpre-include=/usr/include/finclude/math-vector-fortran.h
REM seed 619318802 -711779320 -963196884 2112995924 -2070721074 -1367863880 -969231195 -88618418 2010277684 -1677517952 -1657312506 -1346361098 -146608352 -680595363 -796564761 -2098715793 -935406148 -1296976570 1287832269 -612362456 1406208768 -589777327 -1405418042 1502903048 -58458423 838366806 872254957 1316069614 400299766 -2119691295 -426128600 -604228465 929270934
REM
CELL 1.54180   50.00000   50.00000   50.00000   90.00000   90.00000   90.00000
LATT -1
SFAC C  
C      1  0.4634260000000  0.4918880000000  0.4575100000000 1.0
C      1  0.4897390000000  0.4208570000000  0.5480170000000 1.0
C      1  0.5205600000000  0.4935230000000  0.4764150000000 1.0
C      1  0.4229910000000  0.5090170000000  0.5159900000000 1.0
C      1  0.4255710000000  0.5459350000000  0.5495670000000 1.0
C      1  0.4298380000000  0.4567900000000  0.5269050000000 1.0
C      1  0.5275800000000  0.4737850000000  0.5373260000000 1.0
C      1  0.5094850000000  0.6014230000000  0.5270150000000 1.0
C      1  0.4655950000000  0.5615530000000  0.4381510000000 1.0
C      1  0.4487580000000  0.5592790000000  0.4619960000000 1.0
C      1  0.4857890000000  0.4761960000000  0.5386010000000 1.0
C      1  0.5497610000000  0.4608360000000  0.4439000000000 1.0
C      1  0.4809250000000  0.4701170000000  0.4511720000000 1.0
C      1  0.4660640000000  0.4451620000000  0.4444980000000 1.0
C      1  0.5192640000000  0.4603960000000  0.5640360000000 1.0
C      1  0.5914270000000  0.5058190000000  0.5029890000000 1.0
C      1  0.4666960000000  0.5224020000000  0.4976810000000 1.0
C      1  0.5026400000000  0.4103860000000  0.4754530000000 1.0
C      1  0.5281080000000  0.4190840000000  0.4415600000000 1.0
C      1  0.5696620000000  0.5507940000000  0.4984270000000 1.0
C      1  0.4236210000000  0.4987620000000  0.4293450000000 1.0
C      1  0.5666660000000  0.5177560000000  0.4636170000000 1.0
C      1  0.5610400000000  0.4500970000000  0.5477310000000 1.0
C      1  0.4514120000000  0.4489850000000  0.5080240000000 1.0
C      1  0.5128430000000  0.5075070000000  0.4999350000000 1.0
C      1  0.4969780000000  0.4518320000000  0.4166230000000 1.0
C      1  0.4219280000000  0.5174490000000  0.5446840000000 1.0
C      1  0.5725550000000  0.4500310000000  0.5237850000000 1.0
C      1  0.4587760000000  0.5419000000000  0.5826190000000 1.0
C      1  0.5371710000000  0.5135150000000  0.5138510000000 1.0
C      1  0.5433370000000  0.5396470000000  0.5062920000000 1.0
C      1  0.4741480000000  0.4829980000000  0.5852050000000 1.0
C      1  0.4717850000000  0.5174990000000  0.4073410000000 1.0
C      1  0.4212110000000  0.5215300000000  0.4463350000000 1.0
C      1  0.4937180000000  0.4684610000000  0.4942540000000 1.0
C      1  0.4951440000000  0.5353260000000  0.4615500000000 1.0
C      1  0.4969360000000  0.5556930000000  0.5173800000000 1.0
C      1  0.5481880000000  0.4960630000000  0.4705420000000 1.0
C      1  0.5009860000000  0.4095290000000  0.4451260000000 1.0
C      1  0.5336190000000  0.5850540000000  0.4914480000000 1.0
C      1  0.4578550000000  0.5686410000000  0.4873880000000 1.0
C      1  0.4491250000000  0.5582300000000  0.5604760000000 1.0
C      1  0.4654530000000  0.4722060000000  0.4991810000000 1.0
C      1  0.5644290000000  0.4789870000000  0.4551570000000 1.0
C      1  0.5809980000000  0.4633850000000  0.4707630000000 1.0
C      1  0.4447140000000  0.5497040000000  0.5066970000000 1.0
C      1  0.4963940000000  0.4157110000000  0.5196070000000 1.0
C      1  0.4485840000000  0.4794910000000  0.5706860000000 1.0
C      1  0.4983160000000  0.5025080000000  0.4043300000000 1.0
C      1  0.5216550000000  0.4312950000000  0.5137670000000 1.0
C      1  0.5302930000000  0.4444330000000  0.4616550000000 1.0
C      1  0.5677930000000  0.5028010000000  0.5539940000000 1.0
C      1  0.5110060000000  0.4767360000000  0.4126960000000 1.0
C      1  0.5060360000000  0.5951640000000  0.4983040000000 1.0
C      1  0.5542030000000  0.5299250000000  0.4409080000000 1.0
C      1  0.4415470000000  0.5603980000000  0.5331510000000 1.0
C      1  0.5581780000000  0.5275850000000  0.5690830000000 1.0
C      1  0.5121000000000  0.5728220000000  0.5387010000000 1.0
C      1  0.5371390000000  0.4813070000000  0.4267750000000 1.0
C      1  0.5440750000000  0.4958420000000  0.5344710000000 1.0
C      1  0.5381140000000  0.4763400000000  0.5827340000000 1.0
C      1  0.5397910000000  0.5546290000000  0.4538890000000 1.0
C      1  0.5389160000000  0.4303130000000  0.5396640000000 1.0
C      1  0.5206780000000  0.5402040000000  0.4735730000000 1.0
C      1  0.5065350000000  0.5488910000000  0.4134150000000 1.0
C      1  0.4440150000000  0.4549880000000  0.5535730000000 1.0
C      1  0.5529360000000  0.5698230000000  0.4780570000000 1.0
C      1  0.4806940000000  0.4113330000000  0.4953320000000 1.0
C      1  0.5167030000000  0.4297550000000  0.5573210000000 1.0
C      1  0.4905120000000  0.5214880000000  0.5142950000000 1.0
C      1  0.5858020000000  0.5161150000000  0.5299200000000 1.0
C      1  0.5222840000000  0.5543230000000  0.4981160000000 1.0
C      1  0.5617170000000  0.5511340000000  0.5518350000000 1.0
C      1  0.4463540000000  0.4353800000000  0.4642030000000 1.0
C      1  0.4159900000000  0.4675350000000  0.4885300000000 1.0
C      1  0.5946520000000  0.4784230000000  0.4911150000000 1.0
C      1  0.4922150000000  0.5635160000000  0.4503930000000 1.0
C      1  0.4253760000000  0.4568250000000  0.4641540000000 1.0
C      1  0.4380200000000  0.5224080000000  0.5902190000000 1.0
C      1  0.4877660000000  0.5323700000000  0.5896030000000 1.0
C      1  0.4245510000000  0.5318450000000  0.4969340000000 1.0
C      1  0.5785900000000  0.5431330000000  0.5285970000000 1.0
C      1  0.4351120000000  0.4829040000000  0.4532600000000 1.0
C      1  0.5067010000000  0.4641440000000  0.5195390000000 1.0
C      1  0.4887440000000  0.4677650000000  0.5657540000000 1.0
C      1  0.5231230000000  0.4999620000000  0.5914320000000 1.0
C      1  0.4772710000000  0.5461930000000  0.4156070000000 1.0
C      1  0.5130670000000  0.5471820000000  0.5892290000000 1.0
C      1  0.4765950000000  0.5024590000000  0.5329870000000 1.0
C      1  0.4845380000000  0.4290810000000  0.4278310000000 1.0
C      1  0.5409240000000  0.5106070000000  0.4241280000000 1.0
C      1  0.5355730000000  0.5262480000000  0.5866090000000 1.0
C      1  0.5837440000000  0.5273880000000  0.4852280000000 1.0
C      1  0.5260070000000  0.4256130000000  0.4844160000000 1.0
C      1  0.4734030000000  0.5174250000000  0.4693690000000 1.0
C      1  0.4554290000000  0.4256000000000  0.4899620000000 1.0
C      1  0.4938820000000  0.5038660000000  0.5923030000000 1.0
C      1  0.4565760000000  0.4989800000000  0.5113420000000 1.0
C      1  0.5167280000000  0.5646230000000  0.4351640000000 1.0
C      1  0.4143450000000  0.4782710000000  0.5138430000000 1.0
C      1  0.5614130000000  0.4750800000000  0.5661840000000 1.0
C      1  0.5062000000000  0.4686200000000  0.4688000000000 1.0
C      1  0.4472340000000  0.5081540000000  0.4165420000000 1.0
C      1  0.4638800000000  0.4338040000000  0.5543430000000 1.0
C      1  0.4303030000000  0.5027410000000  0.5683600000000 1.0
C      1  0.5366160000000  0.5635190000000  0.5461420000000 1.0
C      1  0.4269310000000  0.5382280000000  0.4687050000000 1.0
C      1  0.5183940000000  0.5219310000000  0.4082720000000 1.0
C      1  0.4837450000000  0.5748700000000  0.4992510000000 1.0
C      1  0.5854790000000  0.4519220000000  0.4992420000000 1.0
END
