TITL C-4164246-3563-47 101.654214566241 125000 -27465.9132442361 0 0 185 (C1) n - 1
REM
REM in /home/nfs/bkarasulu/CARBON/AIRSS/Generating-Clusters/ReaxFF-fromJPCA2015/Units_Real/with-SteepDescent/Only-C1/SD-CG/Try1-3A/FIRE-CG
REM
REM
REM
REM
REM
REM ./C.cell (11c1c37f851c82e70ff6c80c92926a4b)
REM
REM compiler GCC version 9.2.1 20190827 (Red Hat 9.2.1-1)
REM options -cpp -mtune=generic -march=x86-64 -g -O0 -fpre-include=/usr/include/finclude/math-vector-fortran.h
REM seed 956863770 -450624444 -925929148 -1337079712 464277145 1699420990 1258282265 -725871208 -790851629 2042972149 1022886724 1264421757 -770688512 -1452225253 -131400868 -1685828313 959841271 -1541105862 1421461343 1351208998 1523094154 1410095511 901251838 -2008686320 600125150 -1610959958 -1223071482 -1364138884 524726345 1053542373 1913106968 -2051956700 -626348284
REM
CELL 1.54180   50.00000   50.00000   50.00000   90.00000   90.00000   90.00000
LATT -1
SFAC C  
C      1  0.3996170000000  0.4581920000000  0.5208250000000 1.0
C      1  0.5606880000000  0.4172570000000  0.5286340000000 1.0
C      1  0.4474310000000  0.4722100000000  0.4079170000000 1.0
C      1  0.5467140000000  0.5029770000000  0.4055090000000 1.0
C      1  0.5694140000000  0.4160160000000  0.4868660000000 1.0
C      1  0.4798970000000  0.5118510000000  0.6012780000000 1.0
C      1  0.4930250000000  0.5723060000000  0.4154400000000 1.0
C      1  0.4199440000000  0.5586110000000  0.4450860000000 1.0
C      1  0.4778560000000  0.5919720000000  0.5351400000000 1.0
C      1  0.4408550000000  0.5067140000000  0.5299400000000 1.0
C      1  0.5095540000000  0.4664640000000  0.4207680000000 1.0
C      1  0.4202970000000  0.5057280000000  0.4789360000000 1.0
C      1  0.5768350000000  0.4450010000000  0.4487740000000 1.0
C      1  0.5962510000000  0.5237680000000  0.5347590000000 1.0
C      1  0.5413220000000  0.5662300000000  0.5855350000000 1.0
C      1  0.4197320000000  0.5018030000000  0.4300180000000 1.0
C      1  0.5403670000000  0.4861960000000  0.5333300000000 1.0
C      1  0.4918880000000  0.5476790000000  0.5880870000000 1.0
C      1  0.5147740000000  0.5678580000000  0.4657280000000 1.0
C      1  0.5737380000000  0.5002530000000  0.5749850000000 1.0
C      1  0.4665740000000  0.5611040000000  0.5777400000000 1.0
C      1  0.5942000000000  0.5062590000000  0.4613220000000 1.0
C      1  0.4623870000000  0.3888320000000  0.4639180000000 1.0
C      1  0.4195140000000  0.5026840000000  0.5783940000000 1.0
C      1  0.5133000000000  0.4565370000000  0.5640260000000 1.0
C      1  0.4620020000000  0.4807220000000  0.4610980000000 1.0
C      1  0.4376470000000  0.4790530000000  0.4345790000000 1.0
C      1  0.5591300000000  0.5464990000000  0.5715660000000 1.0
C      1  0.4289970000000  0.4352390000000  0.5735680000000 1.0
C      1  0.6067220000000  0.4770780000000  0.5452020000000 1.0
C      1  0.4278820000000  0.5493370000000  0.4190420000000 1.0
C      1  0.4741310000000  0.5140680000000  0.5737320000000 1.0
C      1  0.5759330000000  0.4430350000000  0.5645730000000 1.0
C      1  0.5358300000000  0.4556200000000  0.4686780000000 1.0
C      1  0.5397350000000  0.4159640000000  0.5732340000000 1.0
C      1  0.4140880000000  0.4318690000000  0.5482370000000 1.0
C      1  0.4910670000000  0.5456630000000  0.5342460000000 1.0
C      1  0.4781170000000  0.4833730000000  0.6047220000000 1.0
C      1  0.6065090000000  0.4808450000000  0.4726310000000 1.0
C      1  0.5943790000000  0.4515590000000  0.5459660000000 1.0
C      1  0.6054640000000  0.5187750000000  0.5067760000000 1.0
C      1  0.5493470000000  0.5901120000000  0.4994130000000 1.0
C      1  0.4378680000000  0.5862360000000  0.5387710000000 1.0
C      1  0.5037300000000  0.5463460000000  0.5612430000000 1.0
C      1  0.5131210000000  0.5590950000000  0.5184010000000 1.0
C      1  0.4343630000000  0.4169330000000  0.5295580000000 1.0
C      1  0.4850170000000  0.3987470000000  0.4486170000000 1.0
C      1  0.5740110000000  0.5755590000000  0.5010950000000 1.0
C      1  0.5945040000000  0.5020310000000  0.5536580000000 1.0
C      1  0.4692620000000  0.5282930000000  0.4367060000000 1.0
C      1  0.5260650000000  0.3916640000000  0.5088860000000 1.0
C      1  0.4420180000000  0.5726420000000  0.4624480000000 1.0
C      1  0.4804940000000  0.3994370000000  0.5259140000000 1.0
C      1  0.4861920000000  0.4592040000000  0.4051330000000 1.0
C      1  0.6147130000000  0.4914170000000  0.4979540000000 1.0
C      1  0.4689560000000  0.5306570000000  0.4678850000000 1.0
C      1  0.5156220000000  0.6079560000000  0.5658020000000 1.0
C      1  0.5284860000000  0.5882060000000  0.5234170000000 1.0
C      1  0.5530430000000  0.5213430000000  0.4718000000000 1.0
C      1  0.5296420000000  0.5200630000000  0.4539710000000 1.0
C      1  0.4187350000000  0.4280850000000  0.4838790000000 1.0
C      1  0.5272990000000  0.5065830000000  0.5765190000000 1.0
C      1  0.5160290000000  0.4556040000000  0.5952640000000 1.0
C      1  0.4687130000000  0.5335550000000  0.3797150000000 1.0
C      1  0.5848970000000  0.5568960000000  0.4791600000000 1.0
C      1  0.4277750000000  0.4524950000000  0.4454210000000 1.0
C      1  0.5590450000000  0.5159230000000  0.5004190000000 1.0
C      1  0.5746680000000  0.5745270000000  0.5299660000000 1.0
C      1  0.5402350000000  0.4414040000000  0.5895250000000 1.0
C      1  0.5614940000000  0.4624230000000  0.4316310000000 1.0
C      1  0.5084400000000  0.5599450000000  0.4368560000000 1.0
C      1  0.5134400000000  0.5140640000000  0.4935360000000 1.0
C      1  0.4092370000000  0.5024980000000  0.5323570000000 1.0
C      1  0.5028180000000  0.6160730000000  0.4832860000000 1.0
C      1  0.5304400000000  0.5344080000000  0.5594540000000 1.0
C      1  0.4728750000000  0.4261220000000  0.4501050000000 1.0
C      1  0.4067130000000  0.5342970000000  0.4867820000000 1.0
C      1  0.4417900000000  0.3940630000000  0.4804260000000 1.0
C      1  0.4894320000000  0.4394590000000  0.5294560000000 1.0
C      1  0.4615990000000  0.4579110000000  0.4802890000000 1.0
C      1  0.4576660000000  0.5540390000000  0.4805180000000 1.0
C      1  0.4164190000000  0.5806800000000  0.4812090000000 1.0
C      1  0.5770730000000  0.5460440000000  0.5417460000000 1.0
C      1  0.5773130000000  0.5614040000000  0.4508880000000 1.0
C      1  0.5554310000000  0.4882230000000  0.5077800000000 1.0
C      1  0.4876090000000  0.5185420000000  0.5237750000000 1.0
C      1  0.4540060000000  0.5039490000000  0.4776490000000 1.0
C      1  0.5164540000000  0.4061310000000  0.5587030000000 1.0
C      1  0.4257250000000  0.5300670000000  0.5706140000000 1.0
C      1  0.5355460000000  0.5244330000000  0.5995060000000 1.0
C      1  0.5157760000000  0.5106120000000  0.5219710000000 1.0
C      1  0.4232100000000  0.5215390000000  0.4083210000000 1.0
C      1  0.5061500000000  0.5569760000000  0.4901280000000 1.0
C      1  0.4974960000000  0.4297450000000  0.5585850000000 1.0
C      1  0.4910760000000  0.4846990000000  0.4428810000000 1.0
C      1  0.4002730000000  0.4575780000000  0.5475140000000 1.0
C      1  0.5652900000000  0.4959830000000  0.4645420000000 1.0
C      1  0.4555820000000  0.4205240000000  0.5695710000000 1.0
C      1  0.5588740000000  0.4616450000000  0.5790120000000 1.0
C      1  0.4755240000000  0.5929230000000  0.4256000000000 1.0
C      1  0.4789040000000  0.5048600000000  0.4254480000000 1.0
C      1  0.5374070000000  0.5964770000000  0.4468840000000 1.0
C      1  0.4111900000000  0.5603590000000  0.5009190000000 1.0
C      1  0.5090100000000  0.3939260000000  0.5332770000000 1.0
C      1  0.4715770000000  0.4300000000000  0.4789210000000 1.0
C      1  0.5078350000000  0.3964370000000  0.4863910000000 1.0
C      1  0.5133220000000  0.4020100000000  0.4577210000000 1.0
C      1  0.4779580000000  0.6122950000000  0.4876390000000 1.0
C      1  0.4052490000000  0.4882850000000  0.5567860000000 1.0
C      1  0.4988310000000  0.4716830000000  0.4898050000000 1.0
C      1  0.4294330000000  0.4625990000000  0.5805170000000 1.0
C      1  0.4549420000000  0.5356950000000  0.5652300000000 1.0
C      1  0.5216260000000  0.5355360000000  0.4299510000000 1.0
C      1  0.5054390000000  0.4982460000000  0.3836180000000 1.0
C      1  0.5235320000000  0.4854310000000  0.3996180000000 1.0
C      1  0.4486020000000  0.4353930000000  0.4350670000000 1.0
C      1  0.4752610000000  0.5561950000000  0.3983140000000 1.0
C      1  0.4577110000000  0.5504700000000  0.4209560000000 1.0
C      1  0.4949990000000  0.4765290000000  0.5571550000000 1.0
C      1  0.5952260000000  0.4539650000000  0.4701500000000 1.0
C      1  0.4799200000000  0.6100000000000  0.4470640000000 1.0
C      1  0.5344700000000  0.4595480000000  0.5414930000000 1.0
C      1  0.4452830000000  0.4860510000000  0.5795820000000 1.0
C      1  0.4569920000000  0.5929720000000  0.4458630000000 1.0
C      1  0.4704960000000  0.4869190000000  0.4011030000000 1.0
C      1  0.5851510000000  0.5116230000000  0.4322780000000 1.0
C      1  0.5205100000000  0.5497600000000  0.5989100000000 1.0
C      1  0.5523160000000  0.5886940000000  0.5423310000000 1.0
C      1  0.5501900000000  0.4872670000000  0.5669870000000 1.0
C      1  0.4586990000000  0.5531110000000  0.5094900000000 1.0
C      1  0.4799680000000  0.5054510000000  0.3765550000000 1.0
C      1  0.5629630000000  0.5234780000000  0.5896880000000 1.0
C      1  0.4823930000000  0.4078110000000  0.4972230000000 1.0
C      1  0.5545140000000  0.3993290000000  0.5066150000000 1.0
C      1  0.5797130000000  0.5406750000000  0.4295350000000 1.0
C      1  0.4252070000000  0.4069910000000  0.4995000000000 1.0
C      1  0.4565470000000  0.4406160000000  0.5230470000000 1.0
C      1  0.4652440000000  0.5053980000000  0.5079410000000 1.0
C      1  0.4585530000000  0.5813550000000  0.5592830000000 1.0
C      1  0.5395640000000  0.4380750000000  0.5229470000000 1.0
C      1  0.4693260000000  0.5782770000000  0.5099230000000 1.0
C      1  0.5173450000000  0.4906510000000  0.4823630000000 1.0
C      1  0.5151520000000  0.4966530000000  0.4556370000000 1.0
C      1  0.4980020000000  0.5327500000000  0.4788110000000 1.0
C      1  0.4033870000000  0.5389560000000  0.4588110000000 1.0
C      1  0.4603820000000  0.4465260000000  0.4106320000000 1.0
C      1  0.5343340000000  0.4505380000000  0.4383140000000 1.0
C      1  0.5642190000000  0.4172210000000  0.5579550000000 1.0
C      1  0.5346390000000  0.4194930000000  0.4473980000000 1.0
C      1  0.5068460000000  0.6036200000000  0.5385360000000 1.0
C      1  0.4132290000000  0.4525030000000  0.4710600000000 1.0
C      1  0.4088070000000  0.5114640000000  0.4532450000000 1.0
C      1  0.5316720000000  0.5348890000000  0.5308850000000 1.0
C      1  0.5974100000000  0.5316570000000  0.4828090000000 1.0
C      1  0.5613940000000  0.4212540000000  0.4588420000000 1.0
C      1  0.5125390000000  0.4466790000000  0.4847130000000 1.0
C      1  0.4875740000000  0.4544020000000  0.6002900000000 1.0
C      1  0.5669890000000  0.4905870000000  0.4222980000000 1.0
C      1  0.4779460000000  0.4332360000000  0.5817770000000 1.0
C      1  0.5584180000000  0.5339670000000  0.5229120000000 1.0
C      1  0.5408960000000  0.5901200000000  0.5693990000000 1.0
C      1  0.5402920000000  0.5318220000000  0.4075380000000 1.0
C      1  0.5550970000000  0.5754240000000  0.4362830000000 1.0
C      1  0.4874850000000  0.4678330000000  0.5330940000000 1.0
C      1  0.4821320000000  0.4814300000000  0.5102170000000 1.0
C      1  0.4520060000000  0.4877280000000  0.5501640000000 1.0
C      1  0.6024070000000  0.4457960000000  0.5181080000000 1.0
C      1  0.4453020000000  0.5360850000000  0.5322220000000 1.0
C      1  0.4448920000000  0.5233690000000  0.3901520000000 1.0
C      1  0.4468480000000  0.4663110000000  0.5329030000000 1.0
C      1  0.5374960000000  0.5847810000000  0.4731040000000 1.0
C      1  0.5130690000000  0.4343110000000  0.5110040000000 1.0
C      1  0.4177290000000  0.5668910000000  0.5310410000000 1.0
C      1  0.4576880000000  0.4054950000000  0.5439860000000 1.0
C      1  0.3961680000000  0.4842410000000  0.5116680000000 1.0
C      1  0.5583350000000  0.5537900000000  0.4143450000000 1.0
C      1  0.4180980000000  0.5409780000000  0.5443180000000 1.0
C      1  0.4471500000000  0.4607520000000  0.5045010000000 1.0
C      1  0.4078360000000  0.4788790000000  0.4859170000000 1.0
C      1  0.5538730000000  0.4752060000000  0.4813300000000 1.0
C      1  0.5077680000000  0.6099290000000  0.4578450000000 1.0
C      1  0.6177350000000  0.4711350000000  0.5185340000000 1.0
C      1  0.4558270000000  0.6002680000000  0.5175880000000 1.0
C      1  0.4991300000000  0.5027350000000  0.5664580000000 1.0
C      1  0.5899530000000  0.4366370000000  0.4932310000000 1.0
END
