TITL C-4164236-1577-110 34.0677430504777 125000 -23078.1760910378 0 0 155 (C1) n - 1
REM
REM in /home/nfs/bkarasulu/CARBON/AIRSS/Generating-Clusters/ReaxFF-fromJPCA2015/Units_Real/with-SteepDescent/Only-C1/SD-CG/Try1-3A/FIRE-CG
REM
REM
REM
REM
REM
REM ./C.cell (11c1c37f851c82e70ff6c80c92926a4b)
REM
REM compiler GCC version 9.2.1 20190827 (Red Hat 9.2.1-1)
REM options -cpp -mtune=generic -march=x86-64 -g -O0 -fpre-include=/usr/include/finclude/math-vector-fortran.h
REM seed -110244523 -2007380425 -1007322317 -950703631 807680974 -2390892 -1857671970 214405289 1330522501 1020838975 550656409 -433710184 -1334489933 -655608251 -1769083491 818554611 -1191625259 1156738822 283504321 -897047371 458117052 -1849921236 1715494568 2034052303 -2049723538 -1791212781 1972729028 -1599529261 577173325 3941887 -955769887 -1767235134 -375099103
REM
CELL 1.54180   50.00000   50.00000   50.00000   90.00000   90.00000   90.00000
LATT -1
SFAC C  
C      1  0.5082810000000  0.5351320000000  0.4154140000000 1.0
C      1  0.5538610000000  0.5874980000000  0.4859460000000 1.0
C      1  0.4667210000000  0.6052850000000  0.5301280000000 1.0
C      1  0.4744920000000  0.4240020000000  0.5637600000000 1.0
C      1  0.5060490000000  0.6112970000000  0.4969900000000 1.0
C      1  0.3858900000000  0.4799800000000  0.5273740000000 1.0
C      1  0.4909360000000  0.6057720000000  0.5475320000000 1.0
C      1  0.4600010000000  0.5051510000000  0.4555170000000 1.0
C      1  0.4356430000000  0.4186940000000  0.5229230000000 1.0
C      1  0.4912830000000  0.5430300000000  0.5846420000000 1.0
C      1  0.4673980000000  0.4357970000000  0.5080550000000 1.0
C      1  0.4268590000000  0.4667110000000  0.5350210000000 1.0
C      1  0.5710000000000  0.4922040000000  0.5732240000000 1.0
C      1  0.4916030000000  0.6185590000000  0.5210190000000 1.0
C      1  0.5971120000000  0.4614410000000  0.5063510000000 1.0
C      1  0.4666590000000  0.4559410000000  0.5284250000000 1.0
C      1  0.3956860000000  0.4806750000000  0.4708020000000 1.0
C      1  0.5364610000000  0.4647120000000  0.5316940000000 1.0
C      1  0.5931790000000  0.4702250000000  0.4784350000000 1.0
C      1  0.5266150000000  0.4718690000000  0.4165200000000 1.0
C      1  0.5105860000000  0.5885320000000  0.5607140000000 1.0
C      1  0.4674010000000  0.4460850000000  0.4687690000000 1.0
C      1  0.5287220000000  0.5126490000000  0.5962230000000 1.0
C      1  0.5133060000000  0.4476710000000  0.4119860000000 1.0
C      1  0.4712770000000  0.4066700000000  0.4481250000000 1.0
C      1  0.4160240000000  0.5035330000000  0.4257290000000 1.0
C      1  0.4836210000000  0.5683440000000  0.4772810000000 1.0
C      1  0.4658800000000  0.5892750000000  0.4850410000000 1.0
C      1  0.5759380000000  0.5501710000000  0.4636920000000 1.0
C      1  0.6063930000000  0.4818980000000  0.5260500000000 1.0
C      1  0.5308330000000  0.4148140000000  0.4733960000000 1.0
C      1  0.4674150000000  0.4682520000000  0.5886720000000 1.0
C      1  0.5482270000000  0.4271700000000  0.4351610000000 1.0
C      1  0.4538660000000  0.5275720000000  0.5104030000000 1.0
C      1  0.5016860000000  0.4530310000000  0.5023690000000 1.0
C      1  0.5032500000000  0.5165980000000  0.5403710000000 1.0
C      1  0.4248290000000  0.4960900000000  0.5302270000000 1.0
C      1  0.4192130000000  0.4768800000000  0.4133360000000 1.0
C      1  0.4861030000000  0.6098180000000  0.4748710000000 1.0
C      1  0.4275780000000  0.5279830000000  0.4943100000000 1.0
C      1  0.4616210000000  0.4917610000000  0.4809060000000 1.0
C      1  0.4725950000000  0.5589650000000  0.5440080000000 1.0
C      1  0.4894060000000  0.5387530000000  0.5538640000000 1.0
C      1  0.5649060000000  0.4569360000000  0.5377470000000 1.0
C      1  0.4242040000000  0.4506570000000  0.4269900000000 1.0
C      1  0.5903010000000  0.4983220000000  0.4712320000000 1.0
C      1  0.4583880000000  0.5266490000000  0.4074730000000 1.0
C      1  0.4954530000000  0.5521520000000  0.4984550000000 1.0
C      1  0.6013480000000  0.5394860000000  0.5327670000000 1.0
C      1  0.5712580000000  0.5005080000000  0.5170600000000 1.0
C      1  0.6108530000000  0.5094680000000  0.5192930000000 1.0
C      1  0.4842220000000  0.4461060000000  0.5815040000000 1.0
C      1  0.4890430000000  0.4047130000000  0.4915610000000 1.0
C      1  0.4659680000000  0.4871200000000  0.4339140000000 1.0
C      1  0.4491160000000  0.5598690000000  0.5621880000000 1.0
C      1  0.5785820000000  0.5342860000000  0.5536410000000 1.0
C      1  0.5680110000000  0.5034760000000  0.4562700000000 1.0
C      1  0.4250130000000  0.4549900000000  0.4908950000000 1.0
C      1  0.5464780000000  0.4658750000000  0.4811550000000 1.0
C      1  0.4478290000000  0.4255370000000  0.5494310000000 1.0
C      1  0.5780600000000  0.4831840000000  0.5421770000000 1.0
C      1  0.4805560000000  0.5454710000000  0.4116620000000 1.0
C      1  0.5383520000000  0.5344430000000  0.5793540000000 1.0
C      1  0.4244040000000  0.4371630000000  0.4526660000000 1.0
C      1  0.5714760000000  0.4080260000000  0.4813410000000 1.0
C      1  0.4521940000000  0.5887710000000  0.5109580000000 1.0
C      1  0.4784750000000  0.4973050000000  0.5877270000000 1.0
C      1  0.4322510000000  0.5282030000000  0.4202520000000 1.0
C      1  0.5463160000000  0.5138970000000  0.5152110000000 1.0
C      1  0.5302130000000  0.5566710000000  0.4518090000000 1.0
C      1  0.5241820000000  0.4397300000000  0.5145360000000 1.0
C      1  0.5472070000000  0.4886290000000  0.5909120000000 1.0
C      1  0.3906090000000  0.4895250000000  0.4988960000000 1.0
C      1  0.4544250000000  0.5171140000000  0.5873170000000 1.0
C      1  0.5785010000000  0.4409930000000  0.5182040000000 1.0
C      1  0.5854650000000  0.5174520000000  0.5781580000000 1.0
C      1  0.5209420000000  0.4001000000000  0.5442760000000 1.0
C      1  0.5569920000000  0.5269560000000  0.4219860000000 1.0
C      1  0.5200920000000  0.4915930000000  0.4457070000000 1.0
C      1  0.5537620000000  0.4079500000000  0.4563990000000 1.0
C      1  0.5421390000000  0.5822770000000  0.5577480000000 1.0
C      1  0.4831740000000  0.3960910000000  0.4707390000000 1.0
C      1  0.4970350000000  0.4113700000000  0.5541870000000 1.0
C      1  0.5717110000000  0.5837600000000  0.5112000000000 1.0
C      1  0.5342970000000  0.5452110000000  0.4247550000000 1.0
C      1  0.4963190000000  0.6027000000000  0.4485530000000 1.0
C      1  0.4776090000000  0.4716550000000  0.5415170000000 1.0
C      1  0.4818620000000  0.4655580000000  0.4455110000000 1.0
C      1  0.4210200000000  0.4439850000000  0.5179530000000 1.0
C      1  0.4187980000000  0.5576530000000  0.4927820000000 1.0
C      1  0.4103280000000  0.5077080000000  0.5084960000000 1.0
C      1  0.5565240000000  0.4736690000000  0.4158420000000 1.0
C      1  0.4310430000000  0.5683770000000  0.5171080000000 1.0
C      1  0.5298110000000  0.5256890000000  0.5530200000000 1.0
C      1  0.5273340000000  0.5899120000000  0.4982040000000 1.0
C      1  0.5376590000000  0.5636840000000  0.5816800000000 1.0
C      1  0.5284050000000  0.5291730000000  0.4729810000000 1.0
C      1  0.5168260000000  0.3978800000000  0.4935710000000 1.0
C      1  0.4076540000000  0.5010270000000  0.4536730000000 1.0
C      1  0.4310910000000  0.5208710000000  0.5446200000000 1.0
C      1  0.4390100000000  0.4655140000000  0.5821190000000 1.0
C      1  0.4292870000000  0.5190640000000  0.4639660000000 1.0
C      1  0.4713450000000  0.4993990000000  0.4080520000000 1.0
C      1  0.5590640000000  0.5812410000000  0.5358320000000 1.0
C      1  0.4981520000000  0.4973120000000  0.3982070000000 1.0
C      1  0.5212610000000  0.4234250000000  0.4238650000000 1.0
C      1  0.5775490000000  0.5433720000000  0.4914370000000 1.0
C      1  0.4605740000000  0.5446740000000  0.5844470000000 1.0
C      1  0.5526180000000  0.5276920000000  0.5413210000000 1.0
C      1  0.4994960000000  0.5713990000000  0.4525880000000 1.0
C      1  0.4980260000000  0.5069310000000  0.5076650000000 1.0
C      1  0.5136500000000  0.4528430000000  0.5776500000000 1.0
C      1  0.4722210000000  0.5486770000000  0.5174860000000 1.0
C      1  0.5027600000000  0.5264880000000  0.4875160000000 1.0
C      1  0.5036440000000  0.4767530000000  0.4616340000000 1.0
C      1  0.5031150000000  0.5162790000000  0.4367090000000 1.0
C      1  0.4812260000000  0.5266750000000  0.4506250000000 1.0
C      1  0.4708290000000  0.5069080000000  0.5020110000000 1.0
C      1  0.4862700000000  0.4356110000000  0.4896300000000 1.0
C      1  0.5003090000000  0.5155520000000  0.5960910000000 1.0
C      1  0.5096060000000  0.5700200000000  0.5824220000000 1.0
C      1  0.5639010000000  0.4166250000000  0.5083560000000 1.0
C      1  0.5078800000000  0.4792480000000  0.4914650000000 1.0
C      1  0.5187000000000  0.4714280000000  0.5560160000000 1.0
C      1  0.3938810000000  0.4809880000000  0.5554230000000 1.0
C      1  0.4512140000000  0.4138940000000  0.4986970000000 1.0
C      1  0.5442930000000  0.5402890000000  0.4972550000000 1.0
C      1  0.5405200000000  0.5029530000000  0.4631550000000 1.0
C      1  0.4056510000000  0.4528190000000  0.4687200000000 1.0
C      1  0.5363620000000  0.4824620000000  0.5043140000000 1.0
C      1  0.5860380000000  0.5593860000000  0.5126140000000 1.0
C      1  0.5904250000000  0.5136750000000  0.4978800000000 1.0
C      1  0.4302180000000  0.5107140000000  0.5725190000000 1.0
C      1  0.4872650000000  0.4462130000000  0.4220140000000 1.0
C      1  0.4173180000000  0.4845330000000  0.5745340000000 1.0
C      1  0.5632860000000  0.4527900000000  0.4359220000000 1.0
C      1  0.4293730000000  0.5429260000000  0.4459390000000 1.0
C      1  0.5364380000000  0.4395550000000  0.4875920000000 1.0
C      1  0.4311930000000  0.5510230000000  0.5411620000000 1.0
C      1  0.6161160000000  0.5512040000000  0.5546120000000 1.0
C      1  0.5760630000000  0.5271210000000  0.4453470000000 1.0
C      1  0.5701590000000  0.4595670000000  0.4638050000000 1.0
C      1  0.4786720000000  0.5533800000000  0.4394070000000 1.0
C      1  0.4946200000000  0.4897640000000  0.5561910000000 1.0
C      1  0.4499840000000  0.4206960000000  0.4651960000000 1.0
C      1  0.5523110000000  0.5018480000000  0.4080840000000 1.0
C      1  0.5254820000000  0.5622220000000  0.5040400000000 1.0
C      1  0.4916590000000  0.4191250000000  0.4308660000000 1.0
C      1  0.5349810000000  0.4623010000000  0.5970660000000 1.0
C      1  0.5338360000000  0.4077730000000  0.5166100000000 1.0
C      1  0.4336660000000  0.4498240000000  0.5582420000000 1.0
C      1  0.4188650000000  0.5647530000000  0.4638950000000 1.0
C      1  0.4518400000000  0.4653210000000  0.4839100000000 1.0
C      1  0.5548880000000  0.5698790000000  0.4627540000000 1.0
C      1  0.5253080000000  0.4938050000000  0.3945850000000 1.0
END
