TITL C-4164236-1577-403 -1.31795936674198 125000 -5186.27535070952 0 0 36 (C1) n - 1
REM
REM in /home/nfs/bkarasulu/CARBON/AIRSS/Generating-Clusters/ReaxFF-fromJPCA2015/Units_Real/with-SteepDescent/Only-C1/SD-CG/Try1-3A/FIRE-CG
REM
REM
REM
REM
REM
REM ./C.cell (11c1c37f851c82e70ff6c80c92926a4b)
REM
REM compiler GCC version 9.2.1 20190827 (Red Hat 9.2.1-1)
REM options -cpp -mtune=generic -march=x86-64 -g -O0 -fpre-include=/usr/include/finclude/math-vector-fortran.h
REM seed 293963414 -582864828 2141830751 -1139626237 1899281518 -783134837 511647305 1421128979 1996236934 1194216881 -687449572 -1041474891 956937661 1201259427 1191412099 1869938492 2108210331 1237325670 -1652622942 412326312 2033617726 415812983 -1442648616 -673600339 1272866522 870122340 -1010003623 2031116078 -1477786232 -297224415 -1935757709 -628444082 841819968
REM
CELL 1.54180   50.00000   50.00000   50.00000   90.00000   90.00000   90.00000
LATT -1
SFAC C  
C      1  0.5728190000000  0.5292900000000  0.5159050000000 1.0
C      1  0.5463800000000  0.4632050000000  0.5084250000000 1.0
C      1  0.4834330000000  0.5144590000000  0.5527930000000 1.0
C      1  0.4802760000000  0.4900450000000  0.5348210000000 1.0
C      1  0.4937270000000  0.4811140000000  0.4568140000000 1.0
C      1  0.4938230000000  0.5605190000000  0.5346230000000 1.0
C      1  0.5338980000000  0.5229740000000  0.4549550000000 1.0
C      1  0.5063600000000  0.4801700000000  0.5255170000000 1.0
C      1  0.4701630000000  0.4493990000000  0.4689870000000 1.0
C      1  0.5176370000000  0.4567790000000  0.5114760000000 1.0
C      1  0.5021350000000  0.5364110000000  0.5527200000000 1.0
C      1  0.4533790000000  0.4875950000000  0.5235590000000 1.0
C      1  0.4438110000000  0.4651720000000  0.5072430000000 1.0
C      1  0.5807550000000  0.5487240000000  0.4672260000000 1.0
C      1  0.5818930000000  0.5457070000000  0.4940330000000 1.0
C      1  0.5638860000000  0.5081270000000  0.4958340000000 1.0
C      1  0.4693260000000  0.4909830000000  0.4689830000000 1.0
C      1  0.5210220000000  0.4946130000000  0.4557540000000 1.0
C      1  0.4361920000000  0.5110840000000  0.5175440000000 1.0
C      1  0.4671760000000  0.5449250000000  0.4885700000000 1.0
C      1  0.5289860000000  0.5238180000000  0.5459520000000 1.0
C      1  0.4505250000000  0.4670250000000  0.4780240000000 1.0
C      1  0.4096540000000  0.5014180000000  0.5149250000000 1.0
C      1  0.5450360000000  0.4577550000000  0.4792340000000 1.0
C      1  0.5499610000000  0.4900840000000  0.5128090000000 1.0
C      1  0.4612140000000  0.5185060000000  0.4731340000000 1.0
C      1  0.3967230000000  0.4810740000000  0.5078520000000 1.0
C      1  0.5179680000000  0.4461660000000  0.4840220000000 1.0
C      1  0.5514860000000  0.5322370000000  0.5339000000000 1.0
C      1  0.5436890000000  0.4843810000000  0.4679920000000 1.0
C      1  0.4437050000000  0.5275460000000  0.4938670000000 1.0
C      1  0.4973750000000  0.4518510000000  0.4629260000000 1.0
C      1  0.5287840000000  0.4981490000000  0.5290900000000 1.0
C      1  0.5601830000000  0.5210780000000  0.4688400000000 1.0
C      1  0.4162260000000  0.4645100000000  0.5012030000000 1.0
C      1  0.4803950000000  0.5531080000000  0.5104470000000 1.0
END
