TITL C-4164245-3996-694 127.269735762518 125000 -22712.437051493 0 0 155 (C1) n - 1
REM
REM in /home/nfs/bkarasulu/CARBON/AIRSS/Generating-Clusters/ReaxFF-fromJPCA2015/Units_Real/with-SteepDescent/Only-C1/SD-CG/Try1-3A/FIRE-CG
REM
REM
REM
REM
REM
REM ./C.cell (11c1c37f851c82e70ff6c80c92926a4b)
REM
REM compiler GCC version 9.2.1 20190827 (Red Hat 9.2.1-1)
REM options -cpp -mtune=generic -march=x86-64 -g -O0 -fpre-include=/usr/include/finclude/math-vector-fortran.h
REM seed -63619236 1802048762 511295153 -995708491 1732743677 -1914809388 -1045706989 -1929226769 558323362 -1068438949 -2105336444 568774386 -2086311433 842332361 -869163888 -1051705378 -1915588316 -301052181 -1493407602 535283646 -2054525732 218895655 840499859 147263223 -1643083200 614212736 768703407 -1253043852 -753072976 -2141315283 1936481501 1606555422 1042031556
REM
CELL 1.54180   50.00000   50.00000   50.00000   90.00000   90.00000   90.00000
LATT -1
SFAC C  
C      1  0.4683670000000  0.5141270000000  0.4495920000000 1.0
C      1  0.4915930000000  0.4719790000000  0.5291240000000 1.0
C      1  0.4913380000000  0.5444800000000  0.5355430000000 1.0
C      1  0.5212070000000  0.5523950000000  0.4205280000000 1.0
C      1  0.4894930000000  0.4132940000000  0.5058790000000 1.0
C      1  0.4775580000000  0.3952030000000  0.4705810000000 1.0
C      1  0.4834660000000  0.5152820000000  0.5568670000000 1.0
C      1  0.5393740000000  0.4592110000000  0.5164890000000 1.0
C      1  0.5774280000000  0.4576300000000  0.5428690000000 1.0
C      1  0.5395260000000  0.4392890000000  0.5710410000000 1.0
C      1  0.5110900000000  0.5702730000000  0.5810500000000 1.0
C      1  0.4026990000000  0.5020680000000  0.5465240000000 1.0
C      1  0.4040990000000  0.5287800000000  0.4763640000000 1.0
C      1  0.4412120000000  0.5625270000000  0.5548900000000 1.0
C      1  0.5056250000000  0.6068520000000  0.4813730000000 1.0
C      1  0.4905900000000  0.4928410000000  0.4752710000000 1.0
C      1  0.4606480000000  0.4548770000000  0.5880310000000 1.0
C      1  0.6112580000000  0.5132180000000  0.4721510000000 1.0
C      1  0.5522470000000  0.5329710000000  0.5145080000000 1.0
C      1  0.4382950000000  0.4937080000000  0.5687400000000 1.0
C      1  0.5997660000000  0.5034190000000  0.5151870000000 1.0
C      1  0.4335110000000  0.4671560000000  0.4279980000000 1.0
C      1  0.4734600000000  0.5791240000000  0.4664090000000 1.0
C      1  0.5445260000000  0.4004190000000  0.5351960000000 1.0
C      1  0.4478030000000  0.4333520000000  0.4829260000000 1.0
C      1  0.5317920000000  0.5689580000000  0.5564230000000 1.0
C      1  0.4445330000000  0.4997480000000  0.5148130000000 1.0
C      1  0.5035660000000  0.4015620000000  0.4833250000000 1.0
C      1  0.4460400000000  0.4871090000000  0.5414510000000 1.0
C      1  0.5165540000000  0.4794490000000  0.5431180000000 1.0
C      1  0.5068540000000  0.5480800000000  0.3966760000000 1.0
C      1  0.5704190000000  0.5744840000000  0.5039470000000 1.0
C      1  0.4055980000000  0.4617410000000  0.4899990000000 1.0
C      1  0.5680550000000  0.5360520000000  0.4559480000000 1.0
C      1  0.4900060000000  0.4539800000000  0.5857800000000 1.0
C      1  0.5624350000000  0.4780860000000  0.4978850000000 1.0
C      1  0.5052110000000  0.4302170000000  0.4279670000000 1.0
C      1  0.4685290000000  0.5206000000000  0.5837320000000 1.0
C      1  0.5108600000000  0.5032010000000  0.5604790000000 1.0
C      1  0.4259510000000  0.4485310000000  0.5504640000000 1.0
C      1  0.5596770000000  0.5614470000000  0.5557170000000 1.0
C      1  0.5032910000000  0.4971860000000  0.6049720000000 1.0
C      1  0.5281780000000  0.4176210000000  0.4425960000000 1.0
C      1  0.5185540000000  0.4756990000000  0.4010560000000 1.0
C      1  0.5634640000000  0.4352550000000  0.5547800000000 1.0
C      1  0.5927420000000  0.4786220000000  0.4994410000000 1.0
C      1  0.5674920000000  0.4854000000000  0.5505570000000 1.0
C      1  0.4468700000000  0.4378210000000  0.5686380000000 1.0
C      1  0.5282400000000  0.5443400000000  0.5030430000000 1.0
C      1  0.5058000000000  0.5762550000000  0.4363700000000 1.0
C      1  0.5347070000000  0.4559170000000  0.4693480000000 1.0
C      1  0.5847120000000  0.4903630000000  0.4469120000000 1.0
C      1  0.5464470000000  0.4171430000000  0.4942710000000 1.0
C      1  0.4608240000000  0.5664670000000  0.5764480000000 1.0
C      1  0.4765880000000  0.5687170000000  0.4286510000000 1.0
C      1  0.5222800000000  0.5687250000000  0.4905240000000 1.0
C      1  0.4080000000000  0.5366880000000  0.5042330000000 1.0
C      1  0.4994740000000  0.4459470000000  0.5590570000000 1.0
C      1  0.4382210000000  0.5495360000000  0.4460650000000 1.0
C      1  0.5280370000000  0.4139380000000  0.5187490000000 1.0
C      1  0.4519390000000  0.5296160000000  0.4305030000000 1.0
C      1  0.5395140000000  0.5193460000000  0.4681090000000 1.0
C      1  0.4034940000000  0.4716660000000  0.5160250000000 1.0
C      1  0.5255680000000  0.5232530000000  0.4233440000000 1.0
C      1  0.4865230000000  0.4432100000000  0.5324380000000 1.0
C      1  0.4064700000000  0.4720750000000  0.5423420000000 1.0
C      1  0.4734990000000  0.5949240000000  0.5254850000000 1.0
C      1  0.4524810000000  0.4826110000000  0.5925160000000 1.0
C      1  0.4232060000000  0.4389860000000  0.4981510000000 1.0
C      1  0.5013110000000  0.5089180000000  0.4967080000000 1.0
C      1  0.5645170000000  0.5377890000000  0.5735320000000 1.0
C      1  0.4208630000000  0.4648950000000  0.4511970000000 1.0
C      1  0.5051300000000  0.5470390000000  0.5954230000000 1.0
C      1  0.5739990000000  0.5140380000000  0.4355420000000 1.0
C      1  0.4872880000000  0.4691570000000  0.4425980000000 1.0
C      1  0.4760290000000  0.4274430000000  0.4294390000000 1.0
C      1  0.4601560000000  0.4600540000000  0.4838060000000 1.0
C      1  0.4822590000000  0.5368570000000  0.3880290000000 1.0
C      1  0.4212970000000  0.5402860000000  0.5534980000000 1.0
C      1  0.5148250000000  0.5298860000000  0.4825210000000 1.0
C      1  0.5376390000000  0.4653870000000  0.5847100000000 1.0
C      1  0.5542220000000  0.4886770000000  0.5777170000000 1.0
C      1  0.5997410000000  0.4865300000000  0.4694950000000 1.0
C      1  0.4628750000000  0.4564560000000  0.4250720000000 1.0
C      1  0.5730250000000  0.4278310000000  0.5038350000000 1.0
C      1  0.5266950000000  0.5662610000000  0.4604880000000 1.0
C      1  0.4876110000000  0.5753630000000  0.5412090000000 1.0
C      1  0.5687140000000  0.5545100000000  0.5257500000000 1.0
C      1  0.5475050000000  0.5156210000000  0.5863520000000 1.0
C      1  0.5457550000000  0.4854730000000  0.3982090000000 1.0
C      1  0.5374070000000  0.5116620000000  0.3997870000000 1.0
C      1  0.5383830000000  0.4956720000000  0.5323760000000 1.0
C      1  0.4635910000000  0.4093300000000  0.4919500000000 1.0
C      1  0.4205230000000  0.5151250000000  0.4320380000000 1.0
C      1  0.4674730000000  0.4693300000000  0.3983400000000 1.0
C      1  0.4580530000000  0.5900840000000  0.4852810000000 1.0
C      1  0.4739570000000  0.4999400000000  0.6033730000000 1.0
C      1  0.4327310000000  0.4357470000000  0.5261440000000 1.0
C      1  0.4354510000000  0.5477410000000  0.5062960000000 1.0
C      1  0.5201770000000  0.5204190000000  0.5965900000000 1.0
C      1  0.4180150000000  0.5146520000000  0.5688910000000 1.0
C      1  0.4678990000000  0.5476460000000  0.4114270000000 1.0
C      1  0.4936010000000  0.4058520000000  0.5559700000000 1.0
C      1  0.4747610000000  0.5472550000000  0.5937960000000 1.0
C      1  0.5686800000000  0.4150480000000  0.5323340000000 1.0
C      1  0.5521210000000  0.5072480000000  0.4940380000000 1.0
C      1  0.5338020000000  0.5861270000000  0.5366250000000 1.0
C      1  0.4054530000000  0.4790990000000  0.4642330000000 1.0
C      1  0.4516140000000  0.4938100000000  0.3945530000000 1.0
C      1  0.5134990000000  0.4590010000000  0.4266270000000 1.0
C      1  0.5510660000000  0.4339630000000  0.4383570000000 1.0
C      1  0.5579170000000  0.5862760000000  0.4801980000000 1.0
C      1  0.4845870000000  0.5315750000000  0.5092200000000 1.0
C      1  0.5552840000000  0.5649520000000  0.4587490000000 1.0
C      1  0.5933410000000  0.5359170000000  0.4722020000000 1.0
C      1  0.4400930000000  0.5765230000000  0.5050560000000 1.0
C      1  0.5210440000000  0.4648680000000  0.4950810000000 1.0
C      1  0.5037490000000  0.4016580000000  0.5290430000000 1.0
C      1  0.4554040000000  0.5732530000000  0.4483160000000 1.0
C      1  0.4323570000000  0.5325470000000  0.4687120000000 1.0
C      1  0.4037110000000  0.5285820000000  0.5322280000000 1.0
C      1  0.4558630000000  0.5271200000000  0.5105560000000 1.0
C      1  0.4295540000000  0.4940950000000  0.4147010000000 1.0
C      1  0.4467940000000  0.5820780000000  0.5325780000000 1.0
C      1  0.4496000000000  0.5092260000000  0.4701670000000 1.0
C      1  0.4478000000000  0.4867370000000  0.4892450000000 1.0
C      1  0.5861270000000  0.4506250000000  0.5161160000000 1.0
C      1  0.5297870000000  0.5902060000000  0.5101010000000 1.0
C      1  0.5313200000000  0.5204690000000  0.5476340000000 1.0
C      1  0.5258370000000  0.5040060000000  0.4460270000000 1.0
C      1  0.5630070000000  0.5060850000000  0.4104340000000 1.0
C      1  0.6047100000000  0.5259810000000  0.4979120000000 1.0
C      1  0.4761560000000  0.5076980000000  0.3851990000000 1.0
C      1  0.5291870000000  0.4091600000000  0.4727290000000 1.0
C      1  0.5373110000000  0.4728050000000  0.4449200000000 1.0
C      1  0.4741510000000  0.4903590000000  0.5428660000000 1.0
C      1  0.4862740000000  0.5808650000000  0.5702890000000 1.0
C      1  0.5141980000000  0.4230090000000  0.5693520000000 1.0
C      1  0.4871930000000  0.4640300000000  0.4730990000000 1.0
C      1  0.4656120000000  0.4160390000000  0.5572740000000 1.0
C      1  0.4809110000000  0.6027900000000  0.4983430000000 1.0
C      1  0.4924170000000  0.4832480000000  0.3902590000000 1.0
C      1  0.5837530000000  0.5292620000000  0.5554050000000 1.0
C      1  0.4921220000000  0.4979450000000  0.4477600000000 1.0
C      1  0.4031600000000  0.5085570000000  0.4548000000000 1.0
C      1  0.5115960000000  0.4705800000000  0.5974600000000 1.0
C      1  0.5194070000000  0.5458360000000  0.5431090000000 1.0
C      1  0.5275850000000  0.4952150000000  0.5052880000000 1.0
C      1  0.4960440000000  0.5937500000000  0.4580690000000 1.0
C      1  0.5631490000000  0.4572970000000  0.4763240000000 1.0
C      1  0.5350240000000  0.6069370000000  0.4869450000000 1.0
C      1  0.5902490000000  0.5050470000000  0.5426800000000 1.0
C      1  0.4612160000000  0.4274750000000  0.5313610000000 1.0
C      1  0.5692580000000  0.4679620000000  0.4490550000000 1.0
C      1  0.4675500000000  0.4130840000000  0.4515050000000 1.0
END
