TITL C-4164241-3639-735 13.3881962955036 125000 -25476.119926015 0 0 171 (C1) n - 1
REM
REM in /home/nfs/bkarasulu/CARBON/AIRSS/Generating-Clusters/ReaxFF-fromJPCA2015/Units_Real/with-SteepDescent/Only-C1/SD-CG/Try1-3A/FIRE-CG
REM
REM
REM
REM
REM
REM ./C.cell (11c1c37f851c82e70ff6c80c92926a4b)
REM
REM compiler GCC version 9.2.1 20190827 (Red Hat 9.2.1-1)
REM options -cpp -mtune=generic -march=x86-64 -g -O0 -fpre-include=/usr/include/finclude/math-vector-fortran.h
REM seed -1615221269 1743699415 -906963465 -906673785 1596510991 -486858136 70362529 1227560394 1621035729 1280382080 624731929 1131375287 -2027820443 260097424 -326165673 468424287 1140863125 -426923418 703655431 -1467837652 1414405292 -1540712764 -2027214334 755920455 1461522081 699084995 286496355 -419735249 -642287116 -832801084 326051755 1898251640 -1059789426
REM
CELL 1.54180   50.00000   50.00000   50.00000   90.00000   90.00000   90.00000
LATT -1
SFAC C  
C      1  0.5228310000000  0.5485980000000  0.5921540000000 1.0
C      1  0.5048310000000  0.5506590000000  0.5462920000000 1.0
C      1  0.4809040000000  0.5686690000000  0.4128580000000 1.0
C      1  0.5281610000000  0.5046850000000  0.6143980000000 1.0
C      1  0.4144360000000  0.4189340000000  0.5364260000000 1.0
C      1  0.3971630000000  0.5170720000000  0.4758250000000 1.0
C      1  0.4690060000000  0.5098390000000  0.4900480000000 1.0
C      1  0.5530860000000  0.5374550000000  0.4735690000000 1.0
C      1  0.4545450000000  0.4167760000000  0.5732150000000 1.0
C      1  0.4342210000000  0.5815180000000  0.4765150000000 1.0
C      1  0.4817970000000  0.4118330000000  0.4985090000000 1.0
C      1  0.5068110000000  0.5046200000000  0.3970990000000 1.0
C      1  0.5836260000000  0.5774440000000  0.5240210000000 1.0
C      1  0.5304010000000  0.3995200000000  0.5288080000000 1.0
C      1  0.5549740000000  0.5037590000000  0.4028690000000 1.0
C      1  0.5369560000000  0.5127830000000  0.5651250000000 1.0
C      1  0.4410050000000  0.5685170000000  0.4514640000000 1.0
C      1  0.4228220000000  0.5128790000000  0.5753650000000 1.0
C      1  0.4454100000000  0.4662230000000  0.5822480000000 1.0
C      1  0.5005320000000  0.4228770000000  0.5163240000000 1.0
C      1  0.5978030000000  0.4617840000000  0.5401480000000 1.0
C      1  0.5112480000000  0.5035320000000  0.5569880000000 1.0
C      1  0.4841490000000  0.6004110000000  0.4883010000000 1.0
C      1  0.5309590000000  0.4108110000000  0.4545530000000 1.0
C      1  0.4874000000000  0.4834350000000  0.5981740000000 1.0
C      1  0.5169950000000  0.5348540000000  0.3959570000000 1.0
C      1  0.4907900000000  0.5117410000000  0.4454150000000 1.0
C      1  0.5485690000000  0.4074340000000  0.4787760000000 1.0
C      1  0.4231020000000  0.4990810000000  0.4703930000000 1.0
C      1  0.4432800000000  0.5391670000000  0.5058890000000 1.0
C      1  0.4502520000000  0.4982260000000  0.3979980000000 1.0
C      1  0.4433240000000  0.4819480000000  0.5164760000000 1.0
C      1  0.6090600000000  0.4816700000000  0.5239180000000 1.0
C      1  0.5074550000000  0.4970880000000  0.4265710000000 1.0
C      1  0.4532620000000  0.4603770000000  0.5544710000000 1.0
C      1  0.3796710000000  0.4833450000000  0.5134650000000 1.0
C      1  0.4803560000000  0.5369410000000  0.4372710000000 1.0
C      1  0.5441820000000  0.5390870000000  0.5753420000000 1.0
C      1  0.5829990000000  0.5016180000000  0.5628780000000 1.0
C      1  0.4404210000000  0.4221530000000  0.4721690000000 1.0
C      1  0.5711940000000  0.6051060000000  0.5282820000000 1.0
C      1  0.4430210000000  0.4132780000000  0.5449080000000 1.0
C      1  0.4600270000000  0.4529940000000  0.5100940000000 1.0
C      1  0.5572140000000  0.5006000000000  0.6110870000000 1.0
C      1  0.5019170000000  0.5959840000000  0.4658570000000 1.0
C      1  0.5536400000000  0.4513570000000  0.5014590000000 1.0
C      1  0.4053420000000  0.5047730000000  0.5556130000000 1.0
C      1  0.4425600000000  0.4942870000000  0.5909370000000 1.0
C      1  0.5221930000000  0.4584570000000  0.4503750000000 1.0
C      1  0.5140550000000  0.4798270000000  0.6086890000000 1.0
C      1  0.4569070000000  0.5354140000000  0.4793490000000 1.0
C      1  0.5554080000000  0.5064370000000  0.5140490000000 1.0
C      1  0.5236930000000  0.5908550000000  0.4477990000000 1.0
C      1  0.4713780000000  0.5637400000000  0.4460480000000 1.0
C      1  0.4997300000000  0.4491540000000  0.4678280000000 1.0
C      1  0.5488780000000  0.4681610000000  0.5463480000000 1.0
C      1  0.5384350000000  0.4963730000000  0.4619450000000 1.0
C      1  0.5117190000000  0.5289070000000  0.6100780000000 1.0
C      1  0.5610060000000  0.4734070000000  0.6025350000000 1.0
C      1  0.4834030000000  0.5407490000000  0.5285140000000 1.0
C      1  0.4668460000000  0.5026640000000  0.6050070000000 1.0
C      1  0.4563260000000  0.5801750000000  0.5349870000000 1.0
C      1  0.4352440000000  0.4283620000000  0.4296980000000 1.0
C      1  0.5143410000000  0.4920810000000  0.4845080000000 1.0
C      1  0.5124270000000  0.6046810000000  0.5371860000000 1.0
C      1  0.5404370000000  0.4008630000000  0.5049560000000 1.0
C      1  0.4442550000000  0.5995560000000  0.5192990000000 1.0
C      1  0.5990080000000  0.5325570000000  0.5296960000000 1.0
C      1  0.4406410000000  0.5001220000000  0.4938760000000 1.0
C      1  0.4296460000000  0.5391090000000  0.5632230000000 1.0
C      1  0.4793220000000  0.5543370000000  0.4749790000000 1.0
C      1  0.5547640000000  0.4423960000000  0.5596200000000 1.0
C      1  0.4564550000000  0.4399800000000  0.5914890000000 1.0
C      1  0.3920230000000  0.4569810000000  0.5052580000000 1.0
C      1  0.4612100000000  0.5010260000000  0.5323740000000 1.0
C      1  0.4650670000000  0.4054270000000  0.4763110000000 1.0
C      1  0.5560090000000  0.4407630000000  0.4169080000000 1.0
C      1  0.4386410000000  0.5199960000000  0.4524540000000 1.0
C      1  0.4764240000000  0.5489510000000  0.5864710000000 1.0
C      1  0.5449810000000  0.5325880000000  0.4000750000000 1.0
C      1  0.4202980000000  0.4667750000000  0.4611060000000 1.0
C      1  0.4512870000000  0.5273530000000  0.3977020000000 1.0
C      1  0.4795100000000  0.4065150000000  0.4499990000000 1.0
C      1  0.4881290000000  0.4283240000000  0.4158670000000 1.0
C      1  0.5760050000000  0.5059080000000  0.4230200000000 1.0
C      1  0.5093330000000  0.4122700000000  0.5421210000000 1.0
C      1  0.5247190000000  0.4664840000000  0.5320170000000 1.0
C      1  0.5120740000000  0.4918660000000  0.5309250000000 1.0
C      1  0.4647670000000  0.4200220000000  0.4275040000000 1.0
C      1  0.5625030000000  0.4791840000000  0.5016750000000 1.0
C      1  0.5246840000000  0.5084490000000  0.5091260000000 1.0
C      1  0.4785990000000  0.5149570000000  0.5172350000000 1.0
C      1  0.5666130000000  0.4302060000000  0.4864370000000 1.0
C      1  0.5638830000000  0.5319140000000  0.4997300000000 1.0
C      1  0.5066340000000  0.5503120000000  0.4842240000000 1.0
C      1  0.4903570000000  0.5024100000000  0.4724140000000 1.0
C      1  0.4306820000000  0.4659460000000  0.5364060000000 1.0
C      1  0.5953600000000  0.4949080000000  0.4685100000000 1.0
C      1  0.4096010000000  0.4473890000000  0.5268680000000 1.0
C      1  0.5535810000000  0.5575690000000  0.5532110000000 1.0
C      1  0.5573960000000  0.4989100000000  0.5475180000000 1.0
C      1  0.5495190000000  0.4542170000000  0.4554070000000 1.0
C      1  0.5305610000000  0.5700420000000  0.4251640000000 1.0
C      1  0.6026870000000  0.5051380000000  0.5412030000000 1.0
C      1  0.5270340000000  0.5455110000000  0.4641670000000 1.0
C      1  0.5037810000000  0.4184130000000  0.4615250000000 1.0
C      1  0.3850600000000  0.5055270000000  0.4973870000000 1.0
C      1  0.5535800000000  0.5538270000000  0.4188590000000 1.0
C      1  0.4590200000000  0.5344560000000  0.5676240000000 1.0
C      1  0.5786310000000  0.4940110000000  0.5908010000000 1.0
C      1  0.4609070000000  0.5550530000000  0.5231870000000 1.0
C      1  0.6044080000000  0.5324830000000  0.5013650000000 1.0
C      1  0.4831650000000  0.4602850000000  0.5490200000000 1.0
C      1  0.4252090000000  0.4564930000000  0.4297030000000 1.0
C      1  0.5359370000000  0.4559230000000  0.4023540000000 1.0
C      1  0.6089110000000  0.4777050000000  0.4941870000000 1.0
C      1  0.5141340000000  0.5903780000000  0.5626480000000 1.0
C      1  0.5820180000000  0.4463920000000  0.5540350000000 1.0
C      1  0.5341890000000  0.4609060000000  0.5971210000000 1.0
C      1  0.4170860000000  0.5501300000000  0.5134460000000 1.0
C      1  0.4529260000000  0.4289470000000  0.5231630000000 1.0
C      1  0.4669990000000  0.5076400000000  0.5592370000000 1.0
C      1  0.5862570000000  0.4385380000000  0.4656840000000 1.0
C      1  0.4708270000000  0.4601990000000  0.4592380000000 1.0
C      1  0.5688490000000  0.5620690000000  0.5032340000000 1.0
C      1  0.5670020000000  0.4903930000000  0.4757850000000 1.0
C      1  0.5300290000000  0.4417270000000  0.5765460000000 1.0
C      1  0.4206130000000  0.4153530000000  0.4513980000000 1.0
C      1  0.4028980000000  0.5458760000000  0.4690760000000 1.0
C      1  0.5368840000000  0.4208400000000  0.4268570000000 1.0
C      1  0.5150240000000  0.4318990000000  0.4102200000000 1.0
C      1  0.5916900000000  0.5372170000000  0.4519020000000 1.0
C      1  0.5558200000000  0.5791820000000  0.4857470000000 1.0
C      1  0.5765610000000  0.5367860000000  0.4292890000000 1.0
C      1  0.5341300000000  0.4843970000000  0.3975610000000 1.0
C      1  0.4626180000000  0.4813550000000  0.4456480000000 1.0
C      1  0.3976870000000  0.4521900000000  0.4764490000000 1.0
C      1  0.5284640000000  0.5523140000000  0.5327560000000 1.0
C      1  0.4823080000000  0.5288980000000  0.6058950000000 1.0
C      1  0.4236560000000  0.5458880000000  0.4483690000000 1.0
C      1  0.5197270000000  0.5390860000000  0.5085700000000 1.0
C      1  0.5090230000000  0.5600170000000  0.4083840000000 1.0
C      1  0.5402430000000  0.5227880000000  0.4556000000000 1.0
C      1  0.5033180000000  0.4347500000000  0.5632950000000 1.0
C      1  0.4525930000000  0.5029750000000  0.4319940000000 1.0
C      1  0.4788760000000  0.4971120000000  0.3890440000000 1.0
C      1  0.4116890000000  0.5651830000000  0.4887190000000 1.0
C      1  0.4628530000000  0.5505460000000  0.4023170000000 1.0
C      1  0.4805090000000  0.4258120000000  0.5811990000000 1.0
C      1  0.5247100000000  0.4484390000000  0.5098590000000 1.0
C      1  0.5869140000000  0.4856820000000  0.4403120000000 1.0
C      1  0.4851020000000  0.4635310000000  0.5196330000000 1.0
C      1  0.4297630000000  0.5841850000000  0.5402480000000 1.0
C      1  0.4987240000000  0.6026470000000  0.5134020000000 1.0
C      1  0.5745220000000  0.4556170000000  0.4405940000000 1.0
C      1  0.4534140000000  0.5967250000000  0.4920060000000 1.0
C      1  0.5997250000000  0.4550050000000  0.4830580000000 1.0
C      1  0.4319130000000  0.4740170000000  0.4096010000000 1.0
C      1  0.4885650000000  0.4885110000000  0.5677100000000 1.0
C      1  0.5424490000000  0.5868160000000  0.5612190000000 1.0
C      1  0.5460800000000  0.6084840000000  0.5424750000000 1.0
C      1  0.5826380000000  0.5550160000000  0.5418420000000 1.0
C      1  0.5419840000000  0.5913370000000  0.4691600000000 1.0
C      1  0.3946530000000  0.4259460000000  0.4630540000000 1.0
C      1  0.4446610000000  0.4512810000000  0.4692740000000 1.0
C      1  0.5014410000000  0.5630930000000  0.5753870000000 1.0
C      1  0.3896620000000  0.4973500000000  0.5364820000000 1.0
C      1  0.5060060000000  0.4634680000000  0.4945300000000 1.0
C      1  0.5268850000000  0.4830990000000  0.4400170000000 1.0
C      1  0.4187270000000  0.5572700000000  0.5421690000000 1.0
C      1  0.6049490000000  0.5261060000000  0.4735210000000 1.0
END
