TITL C-4164234-2335-61 -6.06071793120395 125000 -13843.4462444582 0 0 94 (C1) n - 1
REM
REM in /home/nfs/bkarasulu/CARBON/AIRSS/Generating-Clusters/ReaxFF-fromJPCA2015/Units_Real/with-SteepDescent/Only-C1/SD-CG/Try1-3A/FIRE-CG
REM
REM
REM
REM
REM
REM ./C.cell (11c1c37f851c82e70ff6c80c92926a4b)
REM
REM compiler GCC version 9.2.1 20190827 (Red Hat 9.2.1-1)
REM options -cpp -mtune=generic -march=x86-64 -g -O0 -fpre-include=/usr/include/finclude/math-vector-fortran.h
REM seed 1397276258 157864615 1030795595 -1535796814 1703297951 951946739 -2030380749 227305309 -2006907000 -1815871704 1624907355 -515886897 -1190157931 -1088525034 -1804492946 1438318669 399544725 1032142842 1481796194 -515118812 -2072430741 1449120588 1256304264 -1826143018 -364569378 1336738835 -392227906 361357420 -765311809 963942134 -690895867 956590181 717807044
REM
CELL 1.54180   50.00000   50.00000   50.00000   90.00000   90.00000   90.00000
LATT -1
SFAC C  
C      1  0.4678680000000  0.4742030000000  0.5557870000000 1.0
C      1  0.4777110000000  0.4916450000000  0.4132840000000 1.0
C      1  0.5871450000000  0.4898820000000  0.5181030000000 1.0
C      1  0.4494070000000  0.5174050000000  0.5749730000000 1.0
C      1  0.5212480000000  0.4654080000000  0.5679240000000 1.0
C      1  0.4716540000000  0.5378520000000  0.4948000000000 1.0
C      1  0.5848590000000  0.5132010000000  0.4775160000000 1.0
C      1  0.4412380000000  0.4398530000000  0.4733630000000 1.0
C      1  0.4898930000000  0.4983150000000  0.5438030000000 1.0
C      1  0.4563400000000  0.4486390000000  0.5410250000000 1.0
C      1  0.4684680000000  0.5593410000000  0.5368680000000 1.0
C      1  0.5475900000000  0.4479410000000  0.4982760000000 1.0
C      1  0.4384450000000  0.5236610000000  0.5520010000000 1.0
C      1  0.4721900000000  0.4250590000000  0.5343330000000 1.0
C      1  0.5247530000000  0.5127640000000  0.4159770000000 1.0
C      1  0.4941790000000  0.5135560000000  0.5184650000000 1.0
C      1  0.4667460000000  0.5737560000000  0.4597430000000 1.0
C      1  0.4854430000000  0.4614810000000  0.4898430000000 1.0
C      1  0.5121180000000  0.4810310000000  0.5446780000000 1.0
C      1  0.4722480000000  0.5060860000000  0.4374210000000 1.0
C      1  0.4505330000000  0.4430030000000  0.4477820000000 1.0
C      1  0.5551800000000  0.4820190000000  0.4489190000000 1.0
C      1  0.5186630000000  0.5700380000000  0.5352020000000 1.0
C      1  0.5756350000000  0.5253890000000  0.5490000000000 1.0
C      1  0.4903320000000  0.5884210000000  0.4693590000000 1.0
C      1  0.5230590000000  0.5073780000000  0.5126700000000 1.0
C      1  0.4001180000000  0.5132370000000  0.5282560000000 1.0
C      1  0.5001520000000  0.5781270000000  0.4958120000000 1.0
C      1  0.5880250000000  0.5198450000000  0.5229900000000 1.0
C      1  0.5142590000000  0.4329270000000  0.5230750000000 1.0
C      1  0.5338640000000  0.5125670000000  0.5908050000000 1.0
C      1  0.4887200000000  0.4579140000000  0.5677240000000 1.0
C      1  0.5708170000000  0.5035110000000  0.4548180000000 1.0
C      1  0.5477040000000  0.5650950000000  0.5244500000000 1.0
C      1  0.4863360000000  0.4636840000000  0.4165760000000 1.0
C      1  0.5035420000000  0.4585680000000  0.5134940000000 1.0
C      1  0.5575520000000  0.4977580000000  0.5527790000000 1.0
C      1  0.5322570000000  0.4957300000000  0.4849100000000 1.0
C      1  0.5171500000000  0.5529330000000  0.4884730000000 1.0
C      1  0.5386590000000  0.4448570000000  0.5523390000000 1.0
C      1  0.5300130000000  0.4282930000000  0.4863780000000 1.0
C      1  0.4322810000000  0.5043810000000  0.5064750000000 1.0
C      1  0.5059370000000  0.4625480000000  0.4691580000000 1.0
C      1  0.4358610000000  0.4881030000000  0.4812450000000 1.0
C      1  0.4221680000000  0.5031620000000  0.4573960000000 1.0
C      1  0.5307600000000  0.4872920000000  0.4323200000000 1.0
C      1  0.4916840000000  0.5735600000000  0.5237310000000 1.0
C      1  0.5602550000000  0.5555990000000  0.4988410000000 1.0
C      1  0.4338210000000  0.5297330000000  0.4565780000000 1.0
C      1  0.4747990000000  0.5303980000000  0.5774880000000 1.0
C      1  0.4812350000000  0.5551380000000  0.5624520000000 1.0
C      1  0.4236570000000  0.4597420000000  0.4863810000000 1.0
C      1  0.5695800000000  0.4750480000000  0.5351330000000 1.0
C      1  0.5542960000000  0.4751790000000  0.4812490000000 1.0
C      1  0.4703150000000  0.4891320000000  0.4812810000000 1.0
C      1  0.4322270000000  0.5446390000000  0.4829500000000 1.0
C      1  0.5258600000000  0.5402510000000  0.4255520000000 1.0
C      1  0.5488110000000  0.5489510000000  0.4439510000000 1.0
C      1  0.4905620000000  0.4309360000000  0.5580280000000 1.0
C      1  0.5119790000000  0.5758950000000  0.4555290000000 1.0
C      1  0.5138880000000  0.4718850000000  0.4108240000000 1.0
C      1  0.5824490000000  0.4865610000000  0.4899080000000 1.0
C      1  0.5430840000000  0.5598960000000  0.4748680000000 1.0
C      1  0.5035900000000  0.5573720000000  0.4352950000000 1.0
C      1  0.4299490000000  0.5324780000000  0.5089490000000 1.0
C      1  0.4955680000000  0.5149860000000  0.5659740000000 1.0
C      1  0.4710930000000  0.4311680000000  0.4822340000000 1.0
C      1  0.4196950000000  0.4911250000000  0.5304380000000 1.0
C      1  0.4875380000000  0.4272210000000  0.4562720000000 1.0
C      1  0.4174710000000  0.4622860000000  0.5145970000000 1.0
C      1  0.5793730000000  0.5336510000000  0.4988590000000 1.0
C      1  0.5227320000000  0.4787580000000  0.5197950000000 1.0
C      1  0.5540420000000  0.4517680000000  0.5271740000000 1.0
C      1  0.5405160000000  0.4886890000000  0.5782400000000 1.0
C      1  0.5635600000000  0.5493290000000  0.5405060000000 1.0
C      1  0.5121510000000  0.4904980000000  0.4614880000000 1.0
C      1  0.5371100000000  0.5146070000000  0.5395090000000 1.0
C      1  0.4568480000000  0.5597810000000  0.4840230000000 1.0
C      1  0.4378010000000  0.4463370000000  0.5219410000000 1.0
C      1  0.4736370000000  0.5544570000000  0.4392260000000 1.0
C      1  0.5186060000000  0.4244690000000  0.5512010000000 1.0
C      1  0.4416830000000  0.4953260000000  0.5579580000000 1.0
C      1  0.4747690000000  0.4413330000000  0.4337530000000 1.0
C      1  0.4456080000000  0.5422250000000  0.5315620000000 1.0
C      1  0.4781830000000  0.5123680000000  0.4967050000000 1.0
C      1  0.5222170000000  0.5272960000000  0.5623270000000 1.0
C      1  0.5042830000000  0.4981890000000  0.4012050000000 1.0
C      1  0.5100910000000  0.5567790000000  0.5586170000000 1.0
C      1  0.4580260000000  0.5307230000000  0.4392340000000 1.0
C      1  0.5094220000000  0.4129020000000  0.5025570000000 1.0
C      1  0.5149200000000  0.4361690000000  0.4618550000000 1.0
C      1  0.4846990000000  0.4981350000000  0.4596370000000 1.0
C      1  0.4808680000000  0.4170360000000  0.5071520000000 1.0
C      1  0.5663320000000  0.5521320000000  0.4263830000000 1.0
END
