TITL C-4164246-3563-484 42.3189634072582 125000 -28389.5303545988 0 0 189 (C1) n - 1
REM
REM in /home/nfs/bkarasulu/CARBON/AIRSS/Generating-Clusters/ReaxFF-fromJPCA2015/Units_Real/with-SteepDescent/Only-C1/SD-CG/Try1-3A/FIRE-CG
REM
REM
REM
REM
REM
REM ./C.cell (11c1c37f851c82e70ff6c80c92926a4b)
REM
REM compiler GCC version 9.2.1 20190827 (Red Hat 9.2.1-1)
REM options -cpp -mtune=generic -march=x86-64 -g -O0 -fpre-include=/usr/include/finclude/math-vector-fortran.h
REM seed -2082691188 1587226764 -888362191 1025924413 -1879335845 -541913391 540940792 1069109786 -1890662598 -1946444120 824483968 -752078818 -972623650 1637647282 1903766638 -1989080818 -1252125522 -176561997 532672791 -1090446 -222582801 -1788895364 -345642246 505694536 1930231473 -89160459 -537716639 -1886875574 1339426522 -902781575 -1501324727 -1455330807 -241282994
REM
CELL 1.54180   50.00000   50.00000   50.00000   90.00000   90.00000   90.00000
LATT -1
SFAC C  
C      1  0.5194000000000  0.5053440000000  0.5530320000000 1.0
C      1  0.5452670000000  0.4489010000000  0.5910210000000 1.0
C      1  0.5580000000000  0.5487080000000  0.4879440000000 1.0
C      1  0.5625140000000  0.5835980000000  0.5373210000000 1.0
C      1  0.4354720000000  0.4749910000000  0.4168010000000 1.0
C      1  0.6193570000000  0.5231450000000  0.5159800000000 1.0
C      1  0.5856260000000  0.4650110000000  0.5241820000000 1.0
C      1  0.4477740000000  0.5353640000000  0.4765870000000 1.0
C      1  0.5544040000000  0.4289120000000  0.5704490000000 1.0
C      1  0.5730030000000  0.4297570000000  0.4689780000000 1.0
C      1  0.5508040000000  0.5947500000000  0.5757510000000 1.0
C      1  0.5098370000000  0.3924240000000  0.5184080000000 1.0
C      1  0.4822270000000  0.4138900000000  0.5521920000000 1.0
C      1  0.5813810000000  0.5337950000000  0.4977340000000 1.0
C      1  0.4518310000000  0.4648350000000  0.5926020000000 1.0
C      1  0.5023770000000  0.5492810000000  0.5861850000000 1.0
C      1  0.5620070000000  0.4757890000000  0.4454850000000 1.0
C      1  0.4474430000000  0.5227430000000  0.5917560000000 1.0
C      1  0.4350400000000  0.4210260000000  0.4574990000000 1.0
C      1  0.4935310000000  0.5307290000000  0.4006590000000 1.0
C      1  0.4131710000000  0.4806720000000  0.5012620000000 1.0
C      1  0.4847510000000  0.5542270000000  0.5142820000000 1.0
C      1  0.5926630000000  0.4423910000000  0.5056110000000 1.0
C      1  0.4432660000000  0.5035130000000  0.4082340000000 1.0
C      1  0.5467110000000  0.5583530000000  0.5972140000000 1.0
C      1  0.4535950000000  0.4377540000000  0.5782990000000 1.0
C      1  0.5078010000000  0.5452120000000  0.5576290000000 1.0
C      1  0.4508280000000  0.4717740000000  0.5201760000000 1.0
C      1  0.5968290000000  0.5375020000000  0.5252310000000 1.0
C      1  0.4409470000000  0.5477030000000  0.5770740000000 1.0
C      1  0.5165010000000  0.4770960000000  0.5461710000000 1.0
C      1  0.5742100000000  0.5124550000000  0.4168720000000 1.0
C      1  0.4111150000000  0.5251490000000  0.4426950000000 1.0
C      1  0.5054330000000  0.4514170000000  0.4538550000000 1.0
C      1  0.4290900000000  0.5057530000000  0.5782140000000 1.0
C      1  0.4884970000000  0.4668130000000  0.5404460000000 1.0
C      1  0.4385950000000  0.5852440000000  0.4417380000000 1.0
C      1  0.4370970000000  0.4684090000000  0.5450300000000 1.0
C      1  0.4773470000000  0.4524020000000  0.4895100000000 1.0
C      1  0.5334200000000  0.4029570000000  0.4730790000000 1.0
C      1  0.5081430000000  0.5575540000000  0.4529040000000 1.0
C      1  0.5232730000000  0.4606870000000  0.4739330000000 1.0
C      1  0.4123930000000  0.5617850000000  0.4849400000000 1.0
C      1  0.4725530000000  0.5841120000000  0.5058980000000 1.0
C      1  0.5329540000000  0.5372140000000  0.5117570000000 1.0
C      1  0.5350130000000  0.4494790000000  0.4973300000000 1.0
C      1  0.4672690000000  0.5175750000000  0.5459860000000 1.0
C      1  0.5568460000000  0.4077970000000  0.5156940000000 1.0
C      1  0.5193550000000  0.5429320000000  0.3943900000000 1.0
C      1  0.5895500000000  0.5343040000000  0.4546470000000 1.0
C      1  0.5073000000000  0.5089630000000  0.4670320000000 1.0
C      1  0.4554450000000  0.5240600000000  0.3909830000000 1.0
C      1  0.6195660000000  0.4955210000000  0.5102700000000 1.0
C      1  0.4978620000000  0.4640330000000  0.6085990000000 1.0
C      1  0.3968750000000  0.5307370000000  0.5173140000000 1.0
C      1  0.5463700000000  0.5416470000000  0.4071160000000 1.0
C      1  0.5612210000000  0.5426080000000  0.4587770000000 1.0
C      1  0.4382390000000  0.5636290000000  0.4202020000000 1.0
C      1  0.5285090000000  0.5015860000000  0.4224600000000 1.0
C      1  0.4041940000000  0.4456150000000  0.4816440000000 1.0
C      1  0.4834400000000  0.4749020000000  0.3879850000000 1.0
C      1  0.4840260000000  0.5229470000000  0.4270400000000 1.0
C      1  0.5115780000000  0.4834930000000  0.5926430000000 1.0
C      1  0.5320780000000  0.4888750000000  0.6130590000000 1.0
C      1  0.5705020000000  0.5021110000000  0.4963570000000 1.0
C      1  0.4823390000000  0.4165230000000  0.5803840000000 1.0
C      1  0.3988240000000  0.5358810000000  0.4884690000000 1.0
C      1  0.4600190000000  0.5519850000000  0.4041110000000 1.0
C      1  0.4521590000000  0.4503080000000  0.4172150000000 1.0
C      1  0.5416330000000  0.4652970000000  0.5431590000000 1.0
C      1  0.5276950000000  0.4895490000000  0.4730900000000 1.0
C      1  0.4918180000000  0.6019990000000  0.5210990000000 1.0
C      1  0.4429430000000  0.4656340000000  0.4565420000000 1.0
C      1  0.4833750000000  0.5461520000000  0.4441750000000 1.0
C      1  0.5204610000000  0.6018520000000  0.5153840000000 1.0
C      1  0.4993770000000  0.5021120000000  0.5736640000000 1.0
C      1  0.4179150000000  0.5475280000000  0.5586380000000 1.0
C      1  0.4190310000000  0.4279290000000  0.5260080000000 1.0
C      1  0.5048950000000  0.4417720000000  0.4093290000000 1.0
C      1  0.5740200000000  0.5212800000000  0.5682090000000 1.0
C      1  0.4724090000000  0.4726960000000  0.4665340000000 1.0
C      1  0.4858130000000  0.6016730000000  0.5493020000000 1.0
C      1  0.4561560000000  0.6012450000000  0.5418980000000 1.0
C      1  0.4929900000000  0.4558680000000  0.5126480000000 1.0
C      1  0.5776480000000  0.5875840000000  0.5120830000000 1.0
C      1  0.5228230000000  0.5935830000000  0.5672470000000 1.0
C      1  0.5117700000000  0.5373150000000  0.4732830000000 1.0
C      1  0.5234380000000  0.5172310000000  0.6174660000000 1.0
C      1  0.5557580000000  0.4294950000000  0.4442680000000 1.0
C      1  0.4650770000000  0.5890960000000  0.5644800000000 1.0
C      1  0.5364370000000  0.5995190000000  0.4910970000000 1.0
C      1  0.6049750000000  0.4764440000000  0.4657720000000 1.0
C      1  0.3957520000000  0.5060530000000  0.5333680000000 1.0
C      1  0.4794110000000  0.4931150000000  0.5538130000000 1.0
C      1  0.4009400000000  0.4791280000000  0.5269350000000 1.0
C      1  0.4330440000000  0.4458510000000  0.4739700000000 1.0
C      1  0.6032360000000  0.4888870000000  0.4398240000000 1.0
C      1  0.4818120000000  0.5152960000000  0.3811050000000 1.0
C      1  0.4562820000000  0.5133460000000  0.4317970000000 1.0
C      1  0.5491910000000  0.5206080000000  0.4268870000000 1.0
C      1  0.4175190000000  0.5178940000000  0.5539460000000 1.0
C      1  0.4755290000000  0.5835800000000  0.4726240000000 1.0
C      1  0.5607690000000  0.5803920000000  0.4879440000000 1.0
C      1  0.5795500000000  0.4830990000000  0.4228380000000 1.0
C      1  0.5577900000000  0.4102290000000  0.4861020000000 1.0
C      1  0.5215220000000  0.5100560000000  0.5083040000000 1.0
C      1  0.5683130000000  0.5490750000000  0.5791970000000 1.0
C      1  0.4916990000000  0.4742390000000  0.4449950000000 1.0
C      1  0.5143060000000  0.5685670000000  0.4051700000000 1.0
C      1  0.4782740000000  0.5965690000000  0.4226130000000 1.0
C      1  0.5107970000000  0.4201020000000  0.5816640000000 1.0
C      1  0.4633440000000  0.5618520000000  0.5658090000000 1.0
C      1  0.4121300000000  0.4224820000000  0.4987140000000 1.0
C      1  0.4842390000000  0.5721290000000  0.4074850000000 1.0
C      1  0.5645610000000  0.4729980000000  0.5590920000000 1.0
C      1  0.5271780000000  0.6008910000000  0.4635950000000 1.0
C      1  0.6026730000000  0.5266350000000  0.4785260000000 1.0
C      1  0.4739600000000  0.5278960000000  0.5078310000000 1.0
C      1  0.4801580000000  0.5456610000000  0.5469100000000 1.0
C      1  0.5547530000000  0.4765370000000  0.5987130000000 1.0
C      1  0.4222270000000  0.5716070000000  0.5113470000000 1.0
C      1  0.6151300000000  0.4992810000000  0.4813690000000 1.0
C      1  0.5703620000000  0.5757230000000  0.5664000000000 1.0
C      1  0.4452060000000  0.4922420000000  0.4998060000000 1.0
C      1  0.4538690000000  0.3909600000000  0.4943320000000 1.0
C      1  0.5548630000000  0.5661780000000  0.4436110000000 1.0
C      1  0.5514660000000  0.5888980000000  0.4539650000000 1.0
C      1  0.5333510000000  0.4023490000000  0.5332810000000 1.0
C      1  0.5321560000000  0.4131610000000  0.4467680000000 1.0
C      1  0.4593320000000  0.3977830000000  0.5216410000000 1.0
C      1  0.5884440000000  0.5168960000000  0.5436670000000 1.0
C      1  0.4832040000000  0.3904610000000  0.4862770000000 1.0
C      1  0.5873450000000  0.4568430000000  0.5513880000000 1.0
C      1  0.4490730000000  0.4254800000000  0.5278360000000 1.0
C      1  0.5799020000000  0.4225720000000  0.5242700000000 1.0
C      1  0.4524510000000  0.4478540000000  0.5031050000000 1.0
C      1  0.4962620000000  0.5266180000000  0.6054510000000 1.0
C      1  0.5279470000000  0.5309660000000  0.5428150000000 1.0
C      1  0.4636700000000  0.5985340000000  0.4489310000000 1.0
C      1  0.5925200000000  0.4496080000000  0.4776820000000 1.0
C      1  0.4392250000000  0.5197530000000  0.4538090000000 1.0
C      1  0.5568140000000  0.4909480000000  0.4704440000000 1.0
C      1  0.4216690000000  0.4779610000000  0.4424730000000 1.0
C      1  0.5410580000000  0.5689530000000  0.4189080000000 1.0
C      1  0.4674100000000  0.5530510000000  0.4667220000000 1.0
C      1  0.4458060000000  0.5881220000000  0.5179760000000 1.0
C      1  0.5415120000000  0.5348720000000  0.6076780000000 1.0
C      1  0.5248110000000  0.4857240000000  0.3986560000000 1.0
C      1  0.5988230000000  0.5178590000000  0.4323620000000 1.0
C      1  0.4372470000000  0.4796530000000  0.5723220000000 1.0
C      1  0.5179420000000  0.4431970000000  0.5980560000000 1.0
C      1  0.5673970000000  0.4944880000000  0.5790180000000 1.0
C      1  0.5333770000000  0.5910020000000  0.5388160000000 1.0
C      1  0.4728120000000  0.4800760000000  0.6055700000000 1.0
C      1  0.4246980000000  0.4394270000000  0.5715020000000 1.0
C      1  0.5783810000000  0.4298480000000  0.5528010000000 1.0
C      1  0.4735200000000  0.4955230000000  0.4848530000000 1.0
C      1  0.3966630000000  0.4721340000000  0.4817350000000 1.0
C      1  0.4517650000000  0.4261790000000  0.4340720000000 1.0
C      1  0.5056380000000  0.4263950000000  0.4354780000000 1.0
C      1  0.4674120000000  0.4394160000000  0.5494520000000 1.0
C      1  0.5499280000000  0.4653580000000  0.5160120000000 1.0
C      1  0.5098650000000  0.5494620000000  0.4996530000000 1.0
C      1  0.5915260000000  0.4928950000000  0.5210740000000 1.0
C      1  0.4135300000000  0.5530580000000  0.4337770000000 1.0
C      1  0.4122280000000  0.4508460000000  0.5441520000000 1.0
C      1  0.4413200000000  0.5224770000000  0.5355880000000 1.0
C      1  0.3951260000000  0.5174540000000  0.4654580000000 1.0
C      1  0.5456900000000  0.4944960000000  0.5100350000000 1.0
C      1  0.5325450000000  0.4132510000000  0.5604840000000 1.0
C      1  0.5090680000000  0.4069140000000  0.4932080000000 1.0
C      1  0.5282950000000  0.4582280000000  0.4081610000000 1.0
C      1  0.5014910000000  0.4926910000000  0.3797440000000 1.0
C      1  0.4847880000000  0.3925300000000  0.5325130000000 1.0
C      1  0.4779010000000  0.3992850000000  0.4614170000000 1.0
C      1  0.5025970000000  0.5853720000000  0.4593350000000 1.0
C      1  0.4916640000000  0.5057470000000  0.5050500000000 1.0
C      1  0.4316280000000  0.4067930000000  0.4822340000000 1.0
C      1  0.5197100000000  0.5723660000000  0.5886090000000 1.0
C      1  0.5114890000000  0.4355480000000  0.5050350000000 1.0
C      1  0.5037370000000  0.5001810000000  0.4391920000000 1.0
C      1  0.4771400000000  0.4112680000000  0.4377380000000 1.0
C      1  0.4104650000000  0.5533900000000  0.5308670000000 1.0
C      1  0.4774470000000  0.4511800000000  0.4007960000000 1.0
C      1  0.4456080000000  0.5218780000000  0.5065670000000 1.0
C      1  0.5498570000000  0.4541290000000  0.4296070000000 1.0
C      1  0.4719110000000  0.5101310000000  0.6031280000000 1.0
C      1  0.3988060000000  0.4888410000000  0.4592390000000 1.0
C      1  0.4176360000000  0.5709640000000  0.4572060000000 1.0
END
