TITL C-4164238-4211-582 -4.83002223180831 125000 -8777.8114334558 0 0 60 (C1) n - 1
REM
REM in /home/nfs/bkarasulu/CARBON/AIRSS/Generating-Clusters/ReaxFF-fromJPCA2015/Units_Real/with-SteepDescent/Only-C1/SD-CG/Try1-3A/FIRE-CG
REM
REM
REM
REM
REM
REM ./C.cell (11c1c37f851c82e70ff6c80c92926a4b)
REM
REM compiler GCC version 9.2.1 20190827 (Red Hat 9.2.1-1)
REM options -cpp -mtune=generic -march=x86-64 -g -O0 -fpre-include=/usr/include/finclude/math-vector-fortran.h
REM seed 1722547092 -1194036279 -1397442266 1183843528 -1390904892 -1412761362 761371710 1848706587 -2017204532 -1081211016 402231195 1586443815 -1778719454 1392707488 -474098174 799172038 2050345429 1142919975 1913910255 35685630 1187230418 -1934675377 180003254 2113482130 -1380243585 1437136752 94043800 -507234083 685684524 -997328526 -1807988056 -392148210 835634210
REM
CELL 1.54180   50.00000   50.00000   50.00000   90.00000   90.00000   90.00000
LATT -1
SFAC C  
C      1  0.5060970000000  0.5275870000000  0.5699540000000 1.0
C      1  0.5319480000000  0.5259860000000  0.4737540000000 1.0
C      1  0.4662260000000  0.5128160000000  0.4572110000000 1.0
C      1  0.5207670000000  0.5602470000000  0.4521860000000 1.0
C      1  0.4731480000000  0.4420210000000  0.4532640000000 1.0
C      1  0.4983100000000  0.5872070000000  0.5480180000000 1.0
C      1  0.4376580000000  0.4662620000000  0.5337840000000 1.0
C      1  0.4757810000000  0.5626230000000  0.4654430000000 1.0
C      1  0.5263460000000  0.5414170000000  0.5579280000000 1.0
C      1  0.5216280000000  0.4819170000000  0.5397710000000 1.0
C      1  0.5551400000000  0.5414880000000  0.4863850000000 1.0
C      1  0.5392880000000  0.5014790000000  0.5338040000000 1.0
C      1  0.5726010000000  0.4859840000000  0.5061500000000 1.0
C      1  0.4720840000000  0.4262550000000  0.4769770000000 1.0
C      1  0.5074990000000  0.5384030000000  0.5126320000000 1.0
C      1  0.5243080000000  0.4369920000000  0.5376350000000 1.0
C      1  0.5130000000000  0.5653450000000  0.5593850000000 1.0
C      1  0.5597390000000  0.5383650000000  0.5140160000000 1.0
C      1  0.5564880000000  0.4913910000000  0.4592530000000 1.0
C      1  0.5343690000000  0.5296380000000  0.5288440000000 1.0
C      1  0.5488080000000  0.4640310000000  0.4486880000000 1.0
C      1  0.4756530000000  0.5393390000000  0.4460820000000 1.0
C      1  0.4422050000000  0.5175420000000  0.5294560000000 1.0
C      1  0.5157150000000  0.4729430000000  0.4828690000000 1.0
C      1  0.4964970000000  0.4468970000000  0.5346240000000 1.0
C      1  0.5062600000000  0.5655930000000  0.5026680000000 1.0
C      1  0.4448740000000  0.5126900000000  0.4767830000000 1.0
C      1  0.5222980000000  0.4553990000000  0.4588220000000 1.0
C      1  0.5228670000000  0.4208660000000  0.5152670000000 1.0
C      1  0.4662980000000  0.4501430000000  0.4948210000000 1.0
C      1  0.5610240000000  0.4811290000000  0.5312430000000 1.0
C      1  0.5330980000000  0.4962840000000  0.4768550000000 1.0
C      1  0.4604590000000  0.5399990000000  0.5337730000000 1.0
C      1  0.4809260000000  0.5271730000000  0.5153440000000 1.0
C      1  0.4777700000000  0.4850860000000  0.5520960000000 1.0
C      1  0.4577400000000  0.5605910000000  0.4883910000000 1.0
C      1  0.5020430000000  0.4354740000000  0.4500400000000 1.0
C      1  0.4882140000000  0.4761060000000  0.4921490000000 1.0
C      1  0.4636710000000  0.4683440000000  0.4526880000000 1.0
C      1  0.4513210000000  0.4439160000000  0.5210110000000 1.0
C      1  0.5776710000000  0.4975700000000  0.4821600000000 1.0
C      1  0.5248900000000  0.5433110000000  0.4292390000000 1.0
C      1  0.4572280000000  0.4650550000000  0.5562050000000 1.0
C      1  0.4953110000000  0.4765650000000  0.5291790000000 1.0
C      1  0.4808460000000  0.4886100000000  0.4655470000000 1.0
C      1  0.4337240000000  0.4913620000000  0.5179180000000 1.0
C      1  0.5781460000000  0.5251530000000  0.4946850000000 1.0
C      1  0.4978500000000  0.4148160000000  0.4700260000000 1.0
C      1  0.4364360000000  0.4874080000000  0.4886770000000 1.0
C      1  0.5378900000000  0.5235320000000  0.4457490000000 1.0
C      1  0.5407360000000  0.4611220000000  0.5412480000000 1.0
C      1  0.4870800000000  0.5795210000000  0.5198160000000 1.0
C      1  0.4693460000000  0.4404740000000  0.5437650000000 1.0
C      1  0.4597140000000  0.5319630000000  0.4935710000000 1.0
C      1  0.4619270000000  0.5655940000000  0.5170070000000 1.0
C      1  0.5031310000000  0.5701440000000  0.4723470000000 1.0
C      1  0.4945620000000  0.5394510000000  0.4238220000000 1.0
C      1  0.4471940000000  0.4635040000000  0.4755060000000 1.0
C      1  0.4872680000000  0.5058280000000  0.5721450000000 1.0
C      1  0.5188860000000  0.4060510000000  0.4913260000000 1.0
END
