TITL C-4164235-1454-432 14.5571569248363 125000 -7536.27646089813 0 0 51 (C1) n - 1
REM
REM in /home/nfs/bkarasulu/CARBON/AIRSS/Generating-Clusters/ReaxFF-fromJPCA2015/Units_Real/with-SteepDescent/Only-C1/SD-CG/Try1-3A/FIRE-CG
REM
REM
REM
REM
REM
REM ./C.cell (11c1c37f851c82e70ff6c80c92926a4b)
REM
REM compiler GCC version 9.2.1 20190827 (Red Hat 9.2.1-1)
REM options -cpp -mtune=generic -march=x86-64 -g -O0 -fpre-include=/usr/include/finclude/math-vector-fortran.h
REM seed -2049443527 -623998520 -1191544818 2051133590 987194997 2089455213 88156754 487148798 -1976299494 -1068657503 1288608010 -1688839967 706513735 1955881452 -263553663 2042758266 676495584 562016779 651135363 1691631458 -903804445 -840128088 1398246548 -1192649905 1353989423 -1156769796 -985995296 -1750433987 414166278 1107970377 567299952 -1045513070 1703044185
REM
CELL 1.54180   50.00000   50.00000   50.00000   90.00000   90.00000   90.00000
LATT -1
SFAC C  
C      1  0.4484460000000  0.5476310000000  0.4729680000000 1.0
C      1  0.4487810000000  0.4973850000000  0.4385030000000 1.0
C      1  0.4700410000000  0.4578730000000  0.5470250000000 1.0
C      1  0.5059200000000  0.5078690000000  0.4788710000000 1.0
C      1  0.5178240000000  0.4579380000000  0.5609110000000 1.0
C      1  0.4710410000000  0.5642050000000  0.4693370000000 1.0
C      1  0.5217110000000  0.5694670000000  0.5248880000000 1.0
C      1  0.4932550000000  0.5699470000000  0.5278140000000 1.0
C      1  0.4892730000000  0.4601530000000  0.5688150000000 1.0
C      1  0.4638200000000  0.5225150000000  0.4349090000000 1.0
C      1  0.4839390000000  0.4889860000000  0.5714760000000 1.0
C      1  0.4590040000000  0.5104510000000  0.5381260000000 1.0
C      1  0.4400020000000  0.5024680000000  0.4902410000000 1.0
C      1  0.4406420000000  0.5367740000000  0.4468990000000 1.0
C      1  0.5254230000000  0.4407700000000  0.5380110000000 1.0
C      1  0.5027120000000  0.5764650000000  0.5032280000000 1.0
C      1  0.5065090000000  0.4374160000000  0.5156990000000 1.0
C      1  0.5094520000000  0.5093130000000  0.4496150000000 1.0
C      1  0.5408860000000  0.5348320000000  0.5121850000000 1.0
C      1  0.5280400000000  0.4842890000000  0.5560660000000 1.0
C      1  0.4576680000000  0.5332990000000  0.5237550000000 1.0
C      1  0.5140550000000  0.4463500000000  0.4638650000000 1.0
C      1  0.5580670000000  0.4715600000000  0.4559320000000 1.0
C      1  0.4931660000000  0.5562020000000  0.4537120000000 1.0
C      1  0.4821810000000  0.5452840000000  0.5366870000000 1.0
C      1  0.4774700000000  0.4445930000000  0.5216680000000 1.0
C      1  0.5220460000000  0.4385540000000  0.4914590000000 1.0
C      1  0.4914740000000  0.5302240000000  0.4400310000000 1.0
C      1  0.4258280000000  0.5123010000000  0.4457770000000 1.0
C      1  0.4606080000000  0.4812120000000  0.4935950000000 1.0
C      1  0.5046120000000  0.5301120000000  0.5475470000000 1.0
C      1  0.5690310000000  0.5253950000000  0.5210500000000 1.0
C      1  0.5303900000000  0.4613140000000  0.4446700000000 1.0
C      1  0.5501270000000  0.4454570000000  0.4993890000000 1.0
C      1  0.4603820000000  0.4868850000000  0.5529480000000 1.0
C      1  0.4335150000000  0.4921820000000  0.4638200000000 1.0
C      1  0.5504400000000  0.4515480000000  0.5278790000000 1.0
C      1  0.5281180000000  0.5434420000000  0.5368440000000 1.0
C      1  0.5093630000000  0.4811500000000  0.4399710000000 1.0
C      1  0.4920340000000  0.4659920000000  0.4590270000000 1.0
C      1  0.5592190000000  0.4707290000000  0.4869470000000 1.0
C      1  0.5707860000000  0.4944880000000  0.4543360000000 1.0
C      1  0.5071820000000  0.5038660000000  0.5606760000000 1.0
C      1  0.4951130000000  0.5602610000000  0.4819140000000 1.0
C      1  0.4468490000000  0.5299630000000  0.4953810000000 1.0
C      1  0.5436670000000  0.4878400000000  0.5045890000000 1.0
C      1  0.5758660000000  0.5022240000000  0.5362190000000 1.0
C      1  0.5506820000000  0.4817750000000  0.5350610000000 1.0
C      1  0.4570520000000  0.4520630000000  0.5014110000000 1.0
C      1  0.4873990000000  0.4851490000000  0.4807240000000 1.0
C      1  0.5288880000000  0.5118400000000  0.4975300000000 1.0
END
