TITL C-4164232-771-366 3.14122387070059 125000 -13895.119123029 0 0 92 (C1) n - 1
REM
REM in /home/nfs/bkarasulu/CARBON/AIRSS/Generating-Clusters/ReaxFF-fromJPCA2015/Units_Real/with-SteepDescent/Only-C1/SD-CG/Try1-3A/FIRE-CG
REM
REM
REM
REM
REM
REM ./C.cell (11c1c37f851c82e70ff6c80c92926a4b)
REM
REM compiler GCC version 9.2.1 20190827 (Red Hat 9.2.1-1)
REM options -cpp -mtune=generic -march=x86-64 -g -O0 -fpre-include=/usr/include/finclude/math-vector-fortran.h
REM seed 1923910273 -1215827169 -1675161560 -311623286 276042067 92127400 -1836059840 749448565 -1639414750 806572664 -1483729910 -859884661 -435102748 1995388154 255028144 -651762002 -207943750 -1231367500 1318097463 -845425489 -735668391 1764236573 -1334130222 -1081092417 -397840685 -1488659505 188013632 900217624 1913578193 96962180 1332988620 -1745368300 1110266816
REM
CELL 1.54180   50.00000   50.00000   50.00000   90.00000   90.00000   90.00000
LATT -1
SFAC C  
C      1  0.4918890000000  0.4342540000000  0.4743790000000 1.0
C      1  0.4329660000000  0.4643180000000  0.4701580000000 1.0
C      1  0.5556140000000  0.5645130000000  0.4935210000000 1.0
C      1  0.5034350000000  0.4892010000000  0.4566830000000 1.0
C      1  0.4664880000000  0.5006740000000  0.4928740000000 1.0
C      1  0.5237800000000  0.5200710000000  0.4851410000000 1.0
C      1  0.4307740000000  0.5138250000000  0.5313810000000 1.0
C      1  0.4479820000000  0.4757520000000  0.5539860000000 1.0
C      1  0.5705700000000  0.5230060000000  0.4978500000000 1.0
C      1  0.4782840000000  0.4800680000000  0.5141660000000 1.0
C      1  0.3937540000000  0.4967720000000  0.5013090000000 1.0
C      1  0.5811410000000  0.5322240000000  0.5235310000000 1.0
C      1  0.5739480000000  0.4981020000000  0.4837620000000 1.0
C      1  0.5608020000000  0.5026980000000  0.4569190000000 1.0
C      1  0.4769820000000  0.4276820000000  0.5329090000000 1.0
C      1  0.5423320000000  0.5256320000000  0.5063460000000 1.0
C      1  0.5524250000000  0.4830460000000  0.4398940000000 1.0
C      1  0.4603750000000  0.4224830000000  0.5104630000000 1.0
C      1  0.4423760000000  0.5388900000000  0.5444330000000 1.0
C      1  0.4095530000000  0.4774060000000  0.5171280000000 1.0
C      1  0.5634520000000  0.4617970000000  0.4514280000000 1.0
C      1  0.5606050000000  0.4402600000000  0.5197480000000 1.0
C      1  0.4811560000000  0.4816730000000  0.4726060000000 1.0
C      1  0.5759160000000  0.4778530000000  0.5047050000000 1.0
C      1  0.5453050000000  0.5276980000000  0.4500660000000 1.0
C      1  0.4244370000000  0.4597060000000  0.4978610000000 1.0
C      1  0.4891900000000  0.5261300000000  0.5243310000000 1.0
C      1  0.4271810000000  0.5166470000000  0.4620120000000 1.0
C      1  0.5360180000000  0.5808010000000  0.5068680000000 1.0
C      1  0.5295090000000  0.4670560000000  0.5188940000000 1.0
C      1  0.4471960000000  0.5387990000000  0.4573190000000 1.0
C      1  0.4844390000000  0.4950300000000  0.4131250000000 1.0
C      1  0.4648470000000  0.5342000000000  0.5642060000000 1.0
C      1  0.4925610000000  0.4356920000000  0.5553020000000 1.0
C      1  0.4591850000000  0.4655280000000  0.5294120000000 1.0
C      1  0.4588000000000  0.5620130000000  0.4711120000000 1.0
C      1  0.5246400000000  0.4778770000000  0.4324120000000 1.0
C      1  0.4422260000000  0.4453070000000  0.5163620000000 1.0
C      1  0.4136660000000  0.5161190000000  0.4881850000000 1.0
C      1  0.5607630000000  0.4647570000000  0.5527440000000 1.0
C      1  0.4710330000000  0.4827060000000  0.5715290000000 1.0
C      1  0.4810790000000  0.5271970000000  0.4964850000000 1.0
C      1  0.4697560000000  0.4483550000000  0.4381450000000 1.0
C      1  0.5407970000000  0.4494090000000  0.5692540000000 1.0
C      1  0.5122450000000  0.5028900000000  0.4187990000000 1.0
C      1  0.4492390000000  0.5556280000000  0.5226440000000 1.0
C      1  0.5474760000000  0.5732320000000  0.5340890000000 1.0
C      1  0.4941730000000  0.5393230000000  0.4481920000000 1.0
C      1  0.4379330000000  0.5115130000000  0.5028720000000 1.0
C      1  0.4625580000000  0.5118030000000  0.4201900000000 1.0
C      1  0.4578150000000  0.5713190000000  0.5008420000000 1.0
C      1  0.4828200000000  0.5863590000000  0.5084090000000 1.0
C      1  0.5495470000000  0.4481680000000  0.4757900000000 1.0
C      1  0.4519130000000  0.4433050000000  0.4613170000000 1.0
C      1  0.5207730000000  0.5257990000000  0.4347910000000 1.0
C      1  0.4958580000000  0.4372050000000  0.4449630000000 1.0
C      1  0.5035530000000  0.5257460000000  0.5804460000000 1.0
C      1  0.5308800000000  0.5149830000000  0.5783900000000 1.0
C      1  0.4838270000000  0.5469310000000  0.5457110000000 1.0
C      1  0.4673070000000  0.5313520000000  0.4387280000000 1.0
C      1  0.4835740000000  0.5680400000000  0.4575610000000 1.0
C      1  0.4653540000000  0.4254560000000  0.4807810000000 1.0
C      1  0.5332160000000  0.4391850000000  0.5276950000000 1.0
C      1  0.5485440000000  0.5245810000000  0.5559080000000 1.0
C      1  0.4896810000000  0.4605210000000  0.5727740000000 1.0
C      1  0.5091380000000  0.5893790000000  0.4962160000000 1.0
C      1  0.4674690000000  0.4714040000000  0.4204340000000 1.0
C      1  0.5225220000000  0.4930180000000  0.4780840000000 1.0
C      1  0.4322180000000  0.4889450000000  0.4535930000000 1.0
C      1  0.4937270000000  0.4980590000000  0.5288800000000 1.0
C      1  0.5223210000000  0.4321570000000  0.5544130000000 1.0
C      1  0.5297260000000  0.5717160000000  0.4615060000000 1.0
C      1  0.5730670000000  0.4840200000000  0.5351080000000 1.0
C      1  0.5338540000000  0.5171710000000  0.5319460000000 1.0
C      1  0.5450060000000  0.4396120000000  0.4472800000000 1.0
C      1  0.4457610000000  0.4896730000000  0.4277720000000 1.0
C      1  0.5701780000000  0.5591460000000  0.5189310000000 1.0
C      1  0.5174750000000  0.4647190000000  0.5816310000000 1.0
C      1  0.5506330000000  0.5541840000000  0.4641700000000 1.0
C      1  0.5296000000000  0.5614340000000  0.5521110000000 1.0
C      1  0.5727570000000  0.4499400000000  0.4962580000000 1.0
C      1  0.4944280000000  0.4609340000000  0.4889840000000 1.0
C      1  0.5057200000000  0.5852580000000  0.4661220000000 1.0
C      1  0.5261980000000  0.4678230000000  0.4913260000000 1.0
C      1  0.5266330000000  0.4886230000000  0.5685100000000 1.0
C      1  0.5003090000000  0.5349370000000  0.4767810000000 1.0
C      1  0.5208120000000  0.4474030000000  0.4341630000000 1.0
C      1  0.4239820000000  0.4878110000000  0.5420700000000 1.0
C      1  0.5206600000000  0.4902880000000  0.5360070000000 1.0
C      1  0.5067160000000  0.5514940000000  0.5647690000000 1.0
C      1  0.5734510000000  0.5129670000000  0.5443240000000 1.0
C      1  0.4781260000000  0.5113160000000  0.5767740000000 1.0
END
