TITL C-4164246-3563-306 35.9401585640482 125000 -28228.663464712 0 0 189 (C1) n - 1
REM
REM in /home/nfs/bkarasulu/CARBON/AIRSS/Generating-Clusters/ReaxFF-fromJPCA2015/Units_Real/with-SteepDescent/Only-C1/SD-CG/Try1-3A/FIRE-CG
REM
REM
REM
REM
REM
REM ./C.cell (11c1c37f851c82e70ff6c80c92926a4b)
REM
REM compiler GCC version 9.2.1 20190827 (Red Hat 9.2.1-1)
REM options -cpp -mtune=generic -march=x86-64 -g -O0 -fpre-include=/usr/include/finclude/math-vector-fortran.h
REM seed -113783629 8385945 -297670470 922133785 541754948 -1391127426 -946180851 506740197 -1626809633 -671388142 1632468297 1827191904 -2128462932 -2141794362 785007357 -1527271824 -878700830 1524302530 -1931039691 -1840684354 493553750 1955113625 -1420895105 1373223654 -2054983461 1697703659 -1673947872 -1492395603 -402032621 -891892141 -1159882027 -248923050 -2144184403
REM
CELL 1.54180   50.00000   50.00000   50.00000   90.00000   90.00000   90.00000
LATT -1
SFAC C  
C      1  0.5651140000000  0.5694760000000  0.4923160000000 1.0
C      1  0.5721330000000  0.4248420000000  0.4783330000000 1.0
C      1  0.3868130000000  0.5179120000000  0.5133930000000 1.0
C      1  0.4040410000000  0.4648930000000  0.5198440000000 1.0
C      1  0.5968940000000  0.4753000000000  0.5463020000000 1.0
C      1  0.4081540000000  0.4913010000000  0.4781560000000 1.0
C      1  0.4787960000000  0.5930410000000  0.5276670000000 1.0
C      1  0.4484240000000  0.4559090000000  0.5443040000000 1.0
C      1  0.5035670000000  0.4573370000000  0.4010940000000 1.0
C      1  0.5058620000000  0.4218680000000  0.4237130000000 1.0
C      1  0.5382670000000  0.5393470000000  0.6106120000000 1.0
C      1  0.4988210000000  0.5909740000000  0.5741800000000 1.0
C      1  0.4866610000000  0.5120650000000  0.5714810000000 1.0
C      1  0.5557120000000  0.5537220000000  0.5692260000000 1.0
C      1  0.4695470000000  0.3971610000000  0.4427490000000 1.0
C      1  0.4458510000000  0.4990200000000  0.4437130000000 1.0
C      1  0.5701340000000  0.5370990000000  0.4519010000000 1.0
C      1  0.5455310000000  0.3915100000000  0.5059010000000 1.0
C      1  0.5655440000000  0.4547760000000  0.4843240000000 1.0
C      1  0.5444690000000  0.4092120000000  0.4402980000000 1.0
C      1  0.4605200000000  0.6061180000000  0.5086260000000 1.0
C      1  0.4911600000000  0.4145390000000  0.5431690000000 1.0
C      1  0.5592610000000  0.4716280000000  0.4598400000000 1.0
C      1  0.4783920000000  0.5336030000000  0.4308600000000 1.0
C      1  0.4505740000000  0.5200720000000  0.5339270000000 1.0
C      1  0.4784930000000  0.5479330000000  0.4051020000000 1.0
C      1  0.4336540000000  0.5181020000000  0.4608620000000 1.0
C      1  0.4229030000000  0.4610940000000  0.5843610000000 1.0
C      1  0.4191640000000  0.5826090000000  0.4874500000000 1.0
C      1  0.4517900000000  0.5481470000000  0.5234010000000 1.0
C      1  0.5485730000000  0.5208890000000  0.4079480000000 1.0
C      1  0.4946980000000  0.5403790000000  0.5739820000000 1.0
C      1  0.4476850000000  0.4152470000000  0.5620350000000 1.0
C      1  0.3965090000000  0.5349470000000  0.4926440000000 1.0
C      1  0.5711250000000  0.4294920000000  0.5261290000000 1.0
C      1  0.5545800000000  0.4529700000000  0.5263470000000 1.0
C      1  0.5027470000000  0.5406340000000  0.5279510000000 1.0
C      1  0.5449520000000  0.5006420000000  0.4894870000000 1.0
C      1  0.4334450000000  0.4893370000000  0.5887830000000 1.0
C      1  0.5084500000000  0.4885050000000  0.4038200000000 1.0
C      1  0.5334550000000  0.4872700000000  0.5543160000000 1.0
C      1  0.5732000000000  0.5191450000000  0.4242060000000 1.0
C      1  0.3920350000000  0.4953860000000  0.5330740000000 1.0
C      1  0.5128200000000  0.4268570000000  0.4710220000000 1.0
C      1  0.5115480000000  0.4748480000000  0.5503490000000 1.0
C      1  0.4737150000000  0.5073570000000  0.5454980000000 1.0
C      1  0.4900030000000  0.4423950000000  0.5229230000000 1.0
C      1  0.5784090000000  0.5348240000000  0.5676210000000 1.0
C      1  0.4632070000000  0.5924920000000  0.4655540000000 1.0
C      1  0.5470590000000  0.5778870000000  0.4422130000000 1.0
C      1  0.5412490000000  0.4561660000000  0.4440350000000 1.0
C      1  0.6092720000000  0.5067740000000  0.5042170000000 1.0
C      1  0.5115030000000  0.4881440000000  0.4571990000000 1.0
C      1  0.5665590000000  0.5094530000000  0.5794360000000 1.0
C      1  0.4009300000000  0.4502660000000  0.4935540000000 1.0
C      1  0.4333520000000  0.5846950000000  0.4608410000000 1.0
C      1  0.5389970000000  0.4942570000000  0.4019160000000 1.0
C      1  0.5065370000000  0.6147420000000  0.4834410000000 1.0
C      1  0.5279340000000  0.5428890000000  0.4076090000000 1.0
C      1  0.4612310000000  0.3871360000000  0.4668600000000 1.0
C      1  0.5177740000000  0.6025430000000  0.4581620000000 1.0
C      1  0.4755630000000  0.4176860000000  0.5693330000000 1.0
C      1  0.4871080000000  0.4399310000000  0.5827640000000 1.0
C      1  0.4921020000000  0.4627340000000  0.5454170000000 1.0
C      1  0.5194160000000  0.4089830000000  0.5476260000000 1.0
C      1  0.5761340000000  0.4653660000000  0.4225980000000 1.0
C      1  0.5412450000000  0.4960360000000  0.4618450000000 1.0
C      1  0.4239880000000  0.4833740000000  0.5031110000000 1.0
C      1  0.4602240000000  0.5045990000000  0.3989040000000 1.0
C      1  0.5393080000000  0.6006380000000  0.5539680000000 1.0
C      1  0.5660560000000  0.5152520000000  0.4966890000000 1.0
C      1  0.4074930000000  0.5597280000000  0.5018620000000 1.0
C      1  0.5888170000000  0.5259190000000  0.5424490000000 1.0
C      1  0.5443570000000  0.5345430000000  0.5302780000000 1.0
C      1  0.5163920000000  0.4428400000000  0.5855970000000 1.0
C      1  0.5387050000000  0.5111710000000  0.5683480000000 1.0
C      1  0.4313980000000  0.5694240000000  0.4381040000000 1.0
C      1  0.4734020000000  0.5778640000000  0.5837300000000 1.0
C      1  0.5148950000000  0.5560840000000  0.5080430000000 1.0
C      1  0.5203830000000  0.5294620000000  0.4631200000000 1.0
C      1  0.6009070000000  0.4595830000000  0.4640130000000 1.0
C      1  0.4724210000000  0.5489470000000  0.4518970000000 1.0
C      1  0.4388100000000  0.5256270000000  0.4047800000000 1.0
C      1  0.4977600000000  0.4892370000000  0.4323360000000 1.0
C      1  0.5907760000000  0.5569810000000  0.5043350000000 1.0
C      1  0.5274020000000  0.5846790000000  0.5776590000000 1.0
C      1  0.4689890000000  0.5687070000000  0.5406580000000 1.0
C      1  0.4044510000000  0.5084520000000  0.5575390000000 1.0
C      1  0.5558350000000  0.5952580000000  0.5322110000000 1.0
C      1  0.5028800000000  0.5356620000000  0.3944650000000 1.0
C      1  0.4929160000000  0.5154800000000  0.5247450000000 1.0
C      1  0.4723100000000  0.4460060000000  0.4403080000000 1.0
C      1  0.5264600000000  0.6103560000000  0.5062010000000 1.0
C      1  0.5044940000000  0.5010170000000  0.6163000000000 1.0
C      1  0.4294240000000  0.4346320000000  0.5744780000000 1.0
C      1  0.3945480000000  0.5195910000000  0.4353380000000 1.0
C      1  0.5149700000000  0.5269700000000  0.6190010000000 1.0
C      1  0.4890920000000  0.3857010000000  0.5072370000000 1.0
C      1  0.4565890000000  0.5505090000000  0.4949360000000 1.0
C      1  0.5944170000000  0.4628160000000  0.4928760000000 1.0
C      1  0.5214880000000  0.4012950000000  0.4598190000000 1.0
C      1  0.4765570000000  0.4563230000000  0.4124740000000 1.0
C      1  0.5849610000000  0.4930810000000  0.4293570000000 1.0
C      1  0.5158140000000  0.5772450000000  0.4741120000000 1.0
C      1  0.4341870000000  0.5921690000000  0.5104090000000 1.0
C      1  0.5644310000000  0.5660920000000  0.4603400000000 1.0
C      1  0.5034660000000  0.4827880000000  0.5034040000000 1.0
C      1  0.4463400000000  0.4065570000000  0.5337110000000 1.0
C      1  0.4767770000000  0.6129870000000  0.4849140000000 1.0
C      1  0.4892600000000  0.5067890000000  0.4969980000000 1.0
C      1  0.5173260000000  0.4414070000000  0.4462800000000 1.0
C      1  0.5817940000000  0.4245270000000  0.5536760000000 1.0
C      1  0.6059720000000  0.5086330000000  0.4754320000000 1.0
C      1  0.5281560000000  0.5692670000000  0.4227410000000 1.0
C      1  0.6015460000000  0.4811370000000  0.5144930000000 1.0
C      1  0.4281180000000  0.4231000000000  0.5182490000000 1.0
C      1  0.4778420000000  0.5765960000000  0.4405600000000 1.0
C      1  0.4784260000000  0.4635270000000  0.4626870000000 1.0
C      1  0.4747500000000  0.5052970000000  0.4381750000000 1.0
C      1  0.5856690000000  0.4448140000000  0.4426780000000 1.0
C      1  0.4678360000000  0.3832060000000  0.4907140000000 1.0
C      1  0.5222780000000  0.5530930000000  0.4662960000000 1.0
C      1  0.5318000000000  0.4242270000000  0.5687070000000 1.0
C      1  0.5597390000000  0.4321390000000  0.5716820000000 1.0
C      1  0.5657460000000  0.5129180000000  0.5267950000000 1.0
C      1  0.5118220000000  0.4405590000000  0.4969260000000 1.0
C      1  0.4583880000000  0.4780170000000  0.4771740000000 1.0
C      1  0.4816870000000  0.4990820000000  0.5967890000000 1.0
C      1  0.5313810000000  0.4899320000000  0.6087160000000 1.0
C      1  0.4300680000000  0.5631850000000  0.5586020000000 1.0
C      1  0.4547870000000  0.4229240000000  0.4473530000000 1.0
C      1  0.4354200000000  0.4751390000000  0.4307980000000 1.0
C      1  0.4619040000000  0.4513710000000  0.5188880000000 1.0
C      1  0.5422060000000  0.5642530000000  0.5925360000000 1.0
C      1  0.4216770000000  0.4464550000000  0.5359840000000 1.0
C      1  0.5785080000000  0.4805380000000  0.5690100000000 1.0
C      1  0.5323300000000  0.4837430000000  0.5083700000000 1.0
C      1  0.6031380000000  0.5344740000000  0.5180740000000 1.0
C      1  0.4305290000000  0.4316610000000  0.4619410000000 1.0
C      1  0.4055370000000  0.5175840000000  0.4673830000000 1.0
C      1  0.4638990000000  0.5715840000000  0.4134270000000 1.0
C      1  0.4683200000000  0.4600660000000  0.5686850000000 1.0
C      1  0.4605320000000  0.5039780000000  0.4904060000000 1.0
C      1  0.4195360000000  0.4286370000000  0.4901480000000 1.0
C      1  0.5339560000000  0.4194970000000  0.4146830000000 1.0
C      1  0.5172570000000  0.3913670000000  0.4984040000000 1.0
C      1  0.4262720000000  0.5142910000000  0.5751830000000 1.0
C      1  0.5392550000000  0.4549230000000  0.5019820000000 1.0
C      1  0.4513060000000  0.5814320000000  0.5646710000000 1.0
C      1  0.5672460000000  0.4107690000000  0.5029940000000 1.0
C      1  0.5841270000000  0.5274120000000  0.4768750000000 1.0
C      1  0.5976240000000  0.4479990000000  0.5526390000000 1.0
C      1  0.5349000000000  0.4643720000000  0.5944470000000 1.0
C      1  0.5200520000000  0.6143240000000  0.5356950000000 1.0
C      1  0.5513940000000  0.4682490000000  0.4057860000000 1.0
C      1  0.4385700000000  0.5566050000000  0.4142340000000 1.0
C      1  0.4956130000000  0.6051680000000  0.5487150000000 1.0
C      1  0.5306800000000  0.4464540000000  0.4015030000000 1.0
C      1  0.4468300000000  0.4643650000000  0.4985920000000 1.0
C      1  0.5509990000000  0.4817040000000  0.5323700000000 1.0
C      1  0.4152570000000  0.5220820000000  0.4178800000000 1.0
C      1  0.4206510000000  0.4552130000000  0.4482850000000 1.0
C      1  0.4552530000000  0.4767740000000  0.4089230000000 1.0
C      1  0.4734450000000  0.3962610000000  0.5284610000000 1.0
C      1  0.4881120000000  0.5099350000000  0.3923890000000 1.0
C      1  0.4995450000000  0.5113650000000  0.4691230000000 1.0
C      1  0.5702370000000  0.4198720000000  0.4496660000000 1.0
C      1  0.4991680000000  0.3985490000000  0.4399370000000 1.0
C      1  0.4013880000000  0.4652550000000  0.4682220000000 1.0
C      1  0.5966650000000  0.4874350000000  0.4563610000000 1.0
C      1  0.5273890000000  0.3932510000000  0.5257760000000 1.0
C      1  0.5077410000000  0.5862140000000  0.4359180000000 1.0
C      1  0.5326520000000  0.5374410000000  0.5571870000000 1.0
C      1  0.5436220000000  0.5228620000000  0.4510690000000 1.0
C      1  0.4716320000000  0.5729370000000  0.4873250000000 1.0
C      1  0.5004140000000  0.4637230000000  0.4824320000000 1.0
C      1  0.4550790000000  0.5350410000000  0.4718270000000 1.0
C      1  0.5427870000000  0.5526350000000  0.5081590000000 1.0
C      1  0.4081520000000  0.5188380000000  0.5319150000000 1.0
C      1  0.4927780000000  0.5552490000000  0.5494890000000 1.0
C      1  0.4680810000000  0.5494240000000  0.5855430000000 1.0
C      1  0.5610990000000  0.4601010000000  0.5810400000000 1.0
C      1  0.4401080000000  0.5069950000000  0.5107370000000 1.0
C      1  0.4606640000000  0.4797320000000  0.5912160000000 1.0
C      1  0.4253500000000  0.5678480000000  0.5269640000000 1.0
C      1  0.4981460000000  0.5759500000000  0.4971640000000 1.0
C      1  0.5511450000000  0.5122410000000  0.6070430000000 1.0
C      1  0.5528200000000  0.5971860000000  0.5052020000000 1.0
C      1  0.4403520000000  0.5412410000000  0.5746780000000 1.0
END
