TITL C-4164243-3780-707 1.16011879595037 125000 -3248.80294905555 0 0 24 (C1) n - 1
REM
REM in /home/nfs/bkarasulu/CARBON/AIRSS/Generating-Clusters/ReaxFF-fromJPCA2015/Units_Real/with-SteepDescent/Only-C1/SD-CG/Try1-3A/FIRE-CG
REM
REM
REM
REM
REM
REM ./C.cell (11c1c37f851c82e70ff6c80c92926a4b)
REM
REM compiler GCC version 9.2.1 20190827 (Red Hat 9.2.1-1)
REM options -cpp -mtune=generic -march=x86-64 -g -O0 -fpre-include=/usr/include/finclude/math-vector-fortran.h
REM seed 400681514 695734064 -305832536 -2093019476 406011650 280691740 621023422 964682156 1227320974 -1694236523 -274693602 1354205632 -1197022033 420868912 1403750250 1440679361 -130247953 148116884 253124756 1968050012 -326558431 -1820410325 -536748755 -601531322 -1081047701 -145955374 486720645 -199163693 -1518248649 -1943930525 1133301039 -1672615234 1756700251
REM
CELL 1.54180   50.00000   50.00000   50.00000   90.00000   90.00000   90.00000
LATT -1
SFAC C  
C      1  0.5348820000000  0.4759790000000  0.4899770000000 1.0
C      1  0.4998370000000  0.5497630000000  0.5230360000000 1.0
C      1  0.5142120000000  0.4401090000000  0.4956680000000 1.0
C      1  0.5103210000000  0.4637420000000  0.4802090000000 1.0
C      1  0.5329750000000  0.4781110000000  0.5235580000000 1.0
C      1  0.4584910000000  0.5192200000000  0.4966420000000 1.0
C      1  0.4827250000000  0.5102520000000  0.4510440000000 1.0
C      1  0.5118230000000  0.4330860000000  0.5201450000000 1.0
C      1  0.5298340000000  0.5080840000000  0.5316430000000 1.0
C      1  0.4462520000000  0.5058370000000  0.5205860000000 1.0
C      1  0.4722150000000  0.5455360000000  0.5040230000000 1.0
C      1  0.4607530000000  0.4837840000000  0.5343190000000 1.0
C      1  0.4553290000000  0.5602300000000  0.4932010000000 1.0
C      1  0.5071090000000  0.4584390000000  0.5313440000000 1.0
C      1  0.5341850000000  0.5150240000000  0.4530540000000 1.0
C      1  0.4734370000000  0.5005970000000  0.4791050000000 1.0
C      1  0.5112750000000  0.5677760000000  0.5362260000000 1.0
C      1  0.5469370000000  0.4968170000000  0.4746780000000 1.0
C      1  0.5562570000000  0.4798880000000  0.5401570000000 1.0
C      1  0.5200060000000  0.5287380000000  0.5310860000000 1.0
C      1  0.4862160000000  0.4775670000000  0.4908850000000 1.0
C      1  0.4604820000000  0.5070400000000  0.4399830000000 1.0
C      1  0.5108170000000  0.5230310000000  0.4401880000000 1.0
C      1  0.4836290000000  0.4713480000000  0.5192420000000 1.0
END
