TITL C-4164237-1827-304 -2.70689085927749 125000 -10483.6829494453 0 0 71 (C1) n - 1
REM
REM in /home/nfs/bkarasulu/CARBON/AIRSS/Generating-Clusters/ReaxFF-fromJPCA2015/Units_Real/with-SteepDescent/Only-C1/SD-CG/Try1-3A/FIRE-CG
REM
REM
REM
REM
REM
REM ./C.cell (11c1c37f851c82e70ff6c80c92926a4b)
REM
REM compiler GCC version 9.2.1 20190827 (Red Hat 9.2.1-1)
REM options -cpp -mtune=generic -march=x86-64 -g -O0 -fpre-include=/usr/include/finclude/math-vector-fortran.h
REM seed 606804628 -721084904 -928352507 315393515 -1310139522 72220300 -562403903 287651147 1971191848 -1443285724 -31732299 30952286 -1143777108 -2017471419 -631906953 1207139593 1606969639 -2042683661 501919802 -245205288 -584170219 -55608923 -1347751291 -2089702739 -1818288158 -1592339264 673891502 1111426629 1358346449 154869151 2004770617 722014750 37160864
REM
CELL 1.54180   50.00000   50.00000   50.00000   90.00000   90.00000   90.00000
LATT -1
SFAC C  
C      1  0.5548570000000  0.4539220000000  0.5468900000000 1.0
C      1  0.4713080000000  0.5561120000000  0.5592790000000 1.0
C      1  0.4365920000000  0.5186950000000  0.5458360000000 1.0
C      1  0.5341080000000  0.5632720000000  0.4959730000000 1.0
C      1  0.4699420000000  0.4802440000000  0.4334600000000 1.0
C      1  0.4285420000000  0.4609050000000  0.4899970000000 1.0
C      1  0.5222950000000  0.4306430000000  0.5088610000000 1.0
C      1  0.4428850000000  0.4448800000000  0.5087280000000 1.0
C      1  0.5755560000000  0.4959670000000  0.5337900000000 1.0
C      1  0.5839980000000  0.4816310000000  0.4834310000000 1.0
C      1  0.4960510000000  0.5766610000000  0.4888650000000 1.0
C      1  0.4922160000000  0.4658580000000  0.4874790000000 1.0
C      1  0.5669680000000  0.4876500000000  0.4601160000000 1.0
C      1  0.4909000000000  0.4955230000000  0.4469500000000 1.0
C      1  0.5592700000000  0.4815720000000  0.5544530000000 1.0
C      1  0.5123240000000  0.5700670000000  0.5129290000000 1.0
C      1  0.5098150000000  0.5108600000000  0.5655510000000 1.0
C      1  0.4578790000000  0.4547410000000  0.5308400000000 1.0
C      1  0.4568330000000  0.4836900000000  0.5335840000000 1.0
C      1  0.5175850000000  0.5660140000000  0.4720430000000 1.0
C      1  0.4243500000000  0.4900630000000  0.4893470000000 1.0
C      1  0.5344540000000  0.5540450000000  0.5481730000000 1.0
C      1  0.5172660000000  0.4990390000000  0.4339390000000 1.0
C      1  0.5618970000000  0.4518110000000  0.5182390000000 1.0
C      1  0.5196790000000  0.4818380000000  0.5263180000000 1.0
C      1  0.4500030000000  0.5232860000000  0.4392330000000 1.0
C      1  0.4846940000000  0.4438880000000  0.5347830000000 1.0
C      1  0.5157830000000  0.5387190000000  0.5594650000000 1.0
C      1  0.5465410000000  0.4370390000000  0.4971440000000 1.0
C      1  0.4853970000000  0.5416300000000  0.4466630000000 1.0
C      1  0.5291590000000  0.4857900000000  0.5557970000000 1.0
C      1  0.4473750000000  0.5552090000000  0.4746230000000 1.0
C      1  0.4773320000000  0.4444960000000  0.4702720000000 1.0
C      1  0.4671280000000  0.5730150000000  0.4879420000000 1.0
C      1  0.5574060000000  0.5464830000000  0.5315270000000 1.0
C      1  0.4438980000000  0.4954090000000  0.4388580000000 1.0
C      1  0.4982820000000  0.4205660000000  0.4705540000000 1.0
C      1  0.5112350000000  0.4164720000000  0.4944180000000 1.0
C      1  0.4834640000000  0.5056890000000  0.5634470000000 1.0
C      1  0.5680480000000  0.5217710000000  0.5296700000000 1.0
C      1  0.5430180000000  0.4422030000000  0.4678640000000 1.0
C      1  0.5197250000000  0.4311870000000  0.4542350000000 1.0
C      1  0.4802130000000  0.4544000000000  0.4400650000000 1.0
C      1  0.4933840000000  0.4920380000000  0.4769420000000 1.0
C      1  0.5077510000000  0.5612510000000  0.5412570000000 1.0
C      1  0.5497840000000  0.4654360000000  0.4519320000000 1.0
C      1  0.5285730000000  0.4544420000000  0.5625500000000 1.0
C      1  0.4689720000000  0.5739300000000  0.5362960000000 1.0
C      1  0.5562110000000  0.5166270000000  0.4577240000000 1.0
C      1  0.4752410000000  0.5280660000000  0.5090780000000 1.0
C      1  0.5084950000000  0.4502420000000  0.4345440000000 1.0
C      1  0.5586050000000  0.5515280000000  0.5025270000000 1.0
C      1  0.5041380000000  0.4456990000000  0.5537120000000 1.0
C      1  0.4433810000000  0.5413400000000  0.5620360000000 1.0
C      1  0.4333940000000  0.4938210000000  0.4649010000000 1.0
C      1  0.5046480000000  0.4568110000000  0.5129480000000 1.0
C      1  0.4294470000000  0.5154790000000  0.5110360000000 1.0
C      1  0.4984220000000  0.5167060000000  0.4948710000000 1.0
C      1  0.5118990000000  0.5452780000000  0.4512020000000 1.0
C      1  0.4576730000000  0.5051930000000  0.5127740000000 1.0
C      1  0.4556750000000  0.4997950000000  0.5588990000000 1.0
C      1  0.5119410000000  0.5016760000000  0.5132300000000 1.0
C      1  0.4465210000000  0.5697930000000  0.5554750000000 1.0
C      1  0.4497590000000  0.4428030000000  0.4824540000000 1.0
C      1  0.5645380000000  0.5330540000000  0.4799830000000 1.0
C      1  0.5789670000000  0.4739060000000  0.5116140000000 1.0
C      1  0.4597580000000  0.5424750000000  0.4479320000000 1.0
C      1  0.5301730000000  0.5224710000000  0.4448160000000 1.0
C      1  0.4316070000000  0.5388570000000  0.4925600000000 1.0
C      1  0.4665880000000  0.5565180000000  0.5119400000000 1.0
C      1  0.5281830000000  0.4718070000000  0.4331340000000 1.0
END
