TITL C-4164234-2335-137 -4.15555891951965 125000 -24449.5922815749 0 0 164 (C1) n - 1
REM
REM in /home/nfs/bkarasulu/CARBON/AIRSS/Generating-Clusters/ReaxFF-fromJPCA2015/Units_Real/with-SteepDescent/Only-C1/SD-CG/Try1-3A/FIRE-CG
REM
REM
REM
REM
REM
REM ./C.cell (11c1c37f851c82e70ff6c80c92926a4b)
REM
REM compiler GCC version 9.2.1 20190827 (Red Hat 9.2.1-1)
REM options -cpp -mtune=generic -march=x86-64 -g -O0 -fpre-include=/usr/include/finclude/math-vector-fortran.h
REM seed 684110712 -1960521056 1605339484 1435604754 -1803839685 -805349069 1605582115 -1587106558 426887131 1678852694 1051622003 -521732169 1302780489 -812669547 -151993051 -1168999415 -139936203 100734679 -1970819674 78704863 -515982086 -1074675241 -1732155059 588216306 -1243654796 2007978336 1911289237 1355689599 55748046 -1971284562 -384630244 913714772 -57249227
REM
CELL 1.54180   50.00000   50.00000   50.00000   90.00000   90.00000   90.00000
LATT -1
SFAC C  
C      1  0.5174270000000  0.4959530000000  0.4350690000000 1.0
C      1  0.4577870000000  0.4979340000000  0.5279730000000 1.0
C      1  0.5647460000000  0.5593170000000  0.4508310000000 1.0
C      1  0.4892000000000  0.5379270000000  0.5758740000000 1.0
C      1  0.5454970000000  0.5734520000000  0.4712000000000 1.0
C      1  0.5614650000000  0.5820550000000  0.4975030000000 1.0
C      1  0.5167530000000  0.5464650000000  0.4392210000000 1.0
C      1  0.5677760000000  0.4613390000000  0.5720900000000 1.0
C      1  0.4782990000000  0.5572770000000  0.4682690000000 1.0
C      1  0.4532600000000  0.5666020000000  0.5821550000000 1.0
C      1  0.4502540000000  0.5286080000000  0.4062600000000 1.0
C      1  0.5742220000000  0.5414500000000  0.5631130000000 1.0
C      1  0.5204810000000  0.5310240000000  0.4751920000000 1.0
C      1  0.5366860000000  0.4127830000000  0.5342210000000 1.0
C      1  0.4652060000000  0.4092660000000  0.4718630000000 1.0
C      1  0.5713510000000  0.4736370000000  0.4252030000000 1.0
C      1  0.4619540000000  0.4552410000000  0.5962170000000 1.0
C      1  0.5845020000000  0.4482200000000  0.4339220000000 1.0
C      1  0.5350970000000  0.4693350000000  0.4730760000000 1.0
C      1  0.4262260000000  0.4285580000000  0.5124890000000 1.0
C      1  0.4144540000000  0.4646080000000  0.4381260000000 1.0
C      1  0.4266570000000  0.5396300000000  0.4213390000000 1.0
C      1  0.4933370000000  0.5200770000000  0.5226170000000 1.0
C      1  0.4613150000000  0.5010170000000  0.4680010000000 1.0
C      1  0.3992040000000  0.5328880000000  0.4729270000000 1.0
C      1  0.4708420000000  0.5951840000000  0.4933760000000 1.0
C      1  0.5352820000000  0.4755720000000  0.6025130000000 1.0
C      1  0.4711840000000  0.4740530000000  0.6148100000000 1.0
C      1  0.5155200000000  0.4160970000000  0.5549710000000 1.0
C      1  0.5023390000000  0.5982790000000  0.4841900000000 1.0
C      1  0.5060510000000  0.5557660000000  0.5913530000000 1.0
C      1  0.4714440000000  0.5544480000000  0.5652030000000 1.0
C      1  0.5078580000000  0.5995580000000  0.5351560000000 1.0
C      1  0.4557320000000  0.5406350000000  0.4614290000000 1.0
C      1  0.5299720000000  0.4071030000000  0.4612320000000 1.0
C      1  0.5110160000000  0.4863490000000  0.4620200000000 1.0
C      1  0.5325180000000  0.4756130000000  0.5398200000000 1.0
C      1  0.5927960000000  0.5287550000000  0.4565380000000 1.0
C      1  0.4376940000000  0.4541560000000  0.4511350000000 1.0
C      1  0.4995080000000  0.5853230000000  0.4394340000000 1.0
C      1  0.5220020000000  0.4383720000000  0.5731290000000 1.0
C      1  0.4752370000000  0.5665330000000  0.4953560000000 1.0
C      1  0.4863530000000  0.4136840000000  0.5486500000000 1.0
C      1  0.3893890000000  0.4917780000000  0.5058620000000 1.0
C      1  0.5233100000000  0.5215570000000  0.4282600000000 1.0
C      1  0.4687420000000  0.4134450000000  0.4416380000000 1.0
C      1  0.5341430000000  0.5686860000000  0.5829150000000 1.0
C      1  0.4364130000000  0.4460330000000  0.4776290000000 1.0
C      1  0.4165370000000  0.4538840000000  0.5539020000000 1.0
C      1  0.5439710000000  0.4522140000000  0.5870020000000 1.0
C      1  0.4544220000000  0.4299590000000  0.4205200000000 1.0
C      1  0.4723670000000  0.5324010000000  0.4258680000000 1.0
C      1  0.4350850000000  0.5286520000000  0.5545950000000 1.0
C      1  0.5750270000000  0.4501750000000  0.5453970000000 1.0
C      1  0.4636160000000  0.4364680000000  0.5433210000000 1.0
C      1  0.4102990000000  0.4821030000000  0.5492190000000 1.0
C      1  0.5136250000000  0.4600070000000  0.5551760000000 1.0
C      1  0.5737210000000  0.5051690000000  0.5406180000000 1.0
C      1  0.4669610000000  0.4772460000000  0.4827930000000 1.0
C      1  0.5455220000000  0.4080290000000  0.4874660000000 1.0
C      1  0.4807600000000  0.5945320000000  0.5454800000000 1.0
C      1  0.5602410000000  0.5174940000000  0.4122670000000 1.0
C      1  0.5593360000000  0.5284760000000  0.5057380000000 1.0
C      1  0.4556610000000  0.5084140000000  0.5545830000000 1.0
C      1  0.5967970000000  0.5079320000000  0.4784340000000 1.0
C      1  0.4279980000000  0.4399650000000  0.4276670000000 1.0
C      1  0.6007070000000  0.4663420000000  0.4533230000000 1.0
C      1  0.5782040000000  0.4843510000000  0.4508020000000 1.0
C      1  0.4731020000000  0.5072220000000  0.4418300000000 1.0
C      1  0.5601450000000  0.4299190000000  0.5297900000000 1.0
C      1  0.5345100000000  0.5263310000000  0.4009330000000 1.0
C      1  0.5097030000000  0.5079460000000  0.4807330000000 1.0
C      1  0.5715290000000  0.5049930000000  0.4912430000000 1.0
C      1  0.4790680000000  0.5109500000000  0.5776730000000 1.0
C      1  0.4716760000000  0.4481730000000  0.4014670000000 1.0
C      1  0.4700490000000  0.4456340000000  0.5148510000000 1.0
C      1  0.5899240000000  0.5572090000000  0.4652670000000 1.0
C      1  0.5699580000000  0.5327550000000  0.4377310000000 1.0
C      1  0.5147870000000  0.5386900000000  0.5289250000000 1.0
C      1  0.5016260000000  0.5419480000000  0.4620670000000 1.0
C      1  0.4134710000000  0.4468110000000  0.4935110000000 1.0
C      1  0.5822660000000  0.5485430000000  0.5148650000000 1.0
C      1  0.4809240000000  0.4723970000000  0.3879600000000 1.0
C      1  0.4520880000000  0.4293790000000  0.4943300000000 1.0
C      1  0.4646160000000  0.5246510000000  0.5108140000000 1.0
C      1  0.4892180000000  0.4647290000000  0.4706490000000 1.0
C      1  0.4724300000000  0.5830320000000  0.4496900000000 1.0
C      1  0.4321880000000  0.4752000000000  0.5685520000000 1.0
C      1  0.5744320000000  0.5594260000000  0.5405770000000 1.0
C      1  0.4633160000000  0.4736530000000  0.5118980000000 1.0
C      1  0.4052140000000  0.5030250000000  0.5291900000000 1.0
C      1  0.5187010000000  0.4216500000000  0.4229960000000 1.0
C      1  0.4197620000000  0.5542360000000  0.5143240000000 1.0
C      1  0.5952860000000  0.4661610000000  0.5319000000000 1.0
C      1  0.5022610000000  0.4914920000000  0.3904720000000 1.0
C      1  0.5328480000000  0.4499570000000  0.4513470000000 1.0
C      1  0.4345360000000  0.5439950000000  0.5817890000000 1.0
C      1  0.4996010000000  0.4944650000000  0.5697730000000 1.0
C      1  0.3982150000000  0.4706000000000  0.4869400000000 1.0
C      1  0.4175990000000  0.5123920000000  0.4275200000000 1.0
C      1  0.5103420000000  0.4896830000000  0.5957450000000 1.0
C      1  0.4907190000000  0.5419930000000  0.4046740000000 1.0
C      1  0.4419290000000  0.5009940000000  0.4134060000000 1.0
C      1  0.5221710000000  0.5370910000000  0.6058850000000 1.0
C      1  0.5059010000000  0.4990870000000  0.5073080000000 1.0
C      1  0.5069870000000  0.5205300000000  0.3911790000000 1.0
C      1  0.5439630000000  0.4129040000000  0.4356340000000 1.0
C      1  0.5361620000000  0.5957500000000  0.5429350000000 1.0
C      1  0.4422490000000  0.5703750000000  0.5260430000000 1.0
C      1  0.4885270000000  0.4720980000000  0.5587880000000 1.0
C      1  0.5211910000000  0.5597880000000  0.5101910000000 1.0
C      1  0.4320090000000  0.5191180000000  0.5943570000000 1.0
C      1  0.4961780000000  0.4098350000000  0.4358920000000 1.0
C      1  0.5394090000000  0.5961420000000  0.5731920000000 1.0
C      1  0.5634850000000  0.4794660000000  0.4764210000000 1.0
C      1  0.4284140000000  0.5739470000000  0.4666180000000 1.0
C      1  0.5179100000000  0.5885310000000  0.4629330000000 1.0
C      1  0.4834490000000  0.3963480000000  0.4860960000000 1.0
C      1  0.4524910000000  0.5914340000000  0.4683440000000 1.0
C      1  0.5305500000000  0.3984330000000  0.5094770000000 1.0
C      1  0.4020240000000  0.4806220000000  0.4596150000000 1.0
C      1  0.5366870000000  0.5483920000000  0.4890100000000 1.0
C      1  0.4830380000000  0.4589100000000  0.4261060000000 1.0
C      1  0.5558050000000  0.4963300000000  0.6017060000000 1.0
C      1  0.5461560000000  0.5007090000000  0.5440600000000 1.0
C      1  0.5205820000000  0.4772340000000  0.5156310000000 1.0
C      1  0.5563770000000  0.5471590000000  0.5840720000000 1.0
C      1  0.4327160000000  0.4341150000000  0.5397890000000 1.0
C      1  0.4349730000000  0.5543700000000  0.4455370000000 1.0
C      1  0.5132930000000  0.5876640000000  0.5087960000000 1.0
C      1  0.4997120000000  0.4444890000000  0.4891540000000 1.0
C      1  0.4288550000000  0.4914960000000  0.5956740000000 1.0
C      1  0.3898460000000  0.5160440000000  0.4924030000000 1.0
C      1  0.5874630000000  0.5105180000000  0.5643130000000 1.0
C      1  0.5234210000000  0.4794490000000  0.4111880000000 1.0
C      1  0.5769070000000  0.4520000000000  0.4893490000000 1.0
C      1  0.4604010000000  0.5932790000000  0.5245300000000 1.0
C      1  0.5978500000000  0.4932830000000  0.5410630000000 1.0
C      1  0.5130370000000  0.4529600000000  0.4245080000000 1.0
C      1  0.4782590000000  0.5798700000000  0.5720490000000 1.0
C      1  0.4660190000000  0.4860500000000  0.4237270000000 1.0
C      1  0.5129710000000  0.4311320000000  0.4650970000000 1.0
C      1  0.5243330000000  0.4582070000000  0.4974300000000 1.0
C      1  0.5473390000000  0.5257560000000  0.6036220000000 1.0
C      1  0.4161990000000  0.5303940000000  0.5315060000000 1.0
C      1  0.4440930000000  0.4720630000000  0.6114400000000 1.0
C      1  0.4890430000000  0.3977450000000  0.5269590000000 1.0
C      1  0.6001230000000  0.4618840000000  0.5026430000000 1.0
C      1  0.5629350000000  0.4288480000000  0.5003710000000 1.0
C      1  0.5567170000000  0.5806980000000  0.5265870000000 1.0
C      1  0.5046880000000  0.5641070000000  0.4192110000000 1.0
C      1  0.4145000000000  0.5559510000000  0.4855740000000 1.0
C      1  0.6071280000000  0.4791060000000  0.4790650000000 1.0
C      1  0.5022300000000  0.3865430000000  0.5050760000000 1.0
C      1  0.5592650000000  0.4367000000000  0.4412650000000 1.0
C      1  0.5742700000000  0.4879760000000  0.5819280000000 1.0
C      1  0.4641760000000  0.5532930000000  0.5167960000000 1.0
C      1  0.4638670000000  0.4585990000000  0.5668750000000 1.0
C      1  0.4049720000000  0.5091780000000  0.4538350000000 1.0
C      1  0.5540550000000  0.4895800000000  0.4089300000000 1.0
C      1  0.4544360000000  0.5226070000000  0.4831660000000 1.0
C      1  0.5395570000000  0.5234920000000  0.5283240000000 1.0
C      1  0.4850170000000  0.4969120000000  0.6065080000000 1.0
C      1  0.5862180000000  0.5677190000000  0.4932440000000 1.0
END
