TITL C-4164232-771-136 86.4187165035787 125000 -29872.4391182096 0 0 200 (C1) n - 1
REM
REM in /home/nfs/bkarasulu/CARBON/AIRSS/Generating-Clusters/ReaxFF-fromJPCA2015/Units_Real/with-SteepDescent/Only-C1/SD-CG/Try1-3A/FIRE-CG
REM
REM
REM
REM
REM
REM ./C.cell (11c1c37f851c82e70ff6c80c92926a4b)
REM
REM compiler GCC version 9.2.1 20190827 (Red Hat 9.2.1-1)
REM options -cpp -mtune=generic -march=x86-64 -g -O0 -fpre-include=/usr/include/finclude/math-vector-fortran.h
REM seed 488038596 -632826199 468207201 -1380159724 337514148 -2144164024 1672303360 1909602068 -513401907 -883586684 1538640054 -1291441352 1565268179 -1953891702 -1906325850 -380653497 1586107032 -1521612686 385405290 -1200290651 512338399 754063067 1790032369 1087555371 -1510462160 -531607396 -853421952 1470854614 1570622571 -1542384958 -46021285 948355465 935254625
REM
CELL 1.54180   50.00000   50.00000   50.00000   90.00000   90.00000   90.00000
LATT -1
SFAC C  
C      1  0.4279030000000  0.5444320000000  0.4306280000000 1.0
C      1  0.4233150000000  0.5707830000000  0.4773160000000 1.0
C      1  0.5193290000000  0.4390640000000  0.5007620000000 1.0
C      1  0.5112800000000  0.5780030000000  0.5431750000000 1.0
C      1  0.5806690000000  0.5771730000000  0.5109680000000 1.0
C      1  0.4548430000000  0.4454340000000  0.4431250000000 1.0
C      1  0.4734980000000  0.4787120000000  0.4221650000000 1.0
C      1  0.4559140000000  0.5619030000000  0.5921470000000 1.0
C      1  0.4003390000000  0.4318200000000  0.4909920000000 1.0
C      1  0.5676180000000  0.3962950000000  0.4776250000000 1.0
C      1  0.5345170000000  0.5630860000000  0.4301890000000 1.0
C      1  0.4612880000000  0.5032660000000  0.6279970000000 1.0
C      1  0.3978500000000  0.5394700000000  0.5395330000000 1.0
C      1  0.4553330000000  0.6046220000000  0.4857330000000 1.0
C      1  0.4397990000000  0.6016500000000  0.5106440000000 1.0
C      1  0.5189240000000  0.3941980000000  0.4723870000000 1.0
C      1  0.4991440000000  0.3822460000000  0.5191260000000 1.0
C      1  0.4184910000000  0.4616930000000  0.5783510000000 1.0
C      1  0.4900380000000  0.3859850000000  0.4670430000000 1.0
C      1  0.3876280000000  0.4768300000000  0.4891360000000 1.0
C      1  0.5852070000000  0.4391960000000  0.5465460000000 1.0
C      1  0.4867390000000  0.3802750000000  0.4940130000000 1.0
C      1  0.5522450000000  0.5342780000000  0.4621060000000 1.0
C      1  0.4211820000000  0.4431060000000  0.5286040000000 1.0
C      1  0.5342050000000  0.5588960000000  0.5034970000000 1.0
C      1  0.5751950000000  0.4883960000000  0.5102510000000 1.0
C      1  0.6055500000000  0.5478570000000  0.4595950000000 1.0
C      1  0.4950570000000  0.5646900000000  0.4047540000000 1.0
C      1  0.4611940000000  0.5928390000000  0.5586560000000 1.0
C      1  0.5225480000000  0.4733820000000  0.3866320000000 1.0
C      1  0.4880130000000  0.5738260000000  0.5026060000000 1.0
C      1  0.5606730000000  0.4998820000000  0.4135450000000 1.0
C      1  0.4541220000000  0.4205350000000  0.4870950000000 1.0
C      1  0.4400680000000  0.4447670000000  0.5727360000000 1.0
C      1  0.5104990000000  0.4782950000000  0.6022770000000 1.0
C      1  0.5453560000000  0.3869950000000  0.4602860000000 1.0
C      1  0.3957300000000  0.5403300000000  0.4914730000000 1.0
C      1  0.5153760000000  0.4685750000000  0.4606650000000 1.0
C      1  0.4863050000000  0.4761520000000  0.5560090000000 1.0
C      1  0.4687150000000  0.5345500000000  0.3921010000000 1.0
C      1  0.5028640000000  0.5644530000000  0.5662670000000 1.0
C      1  0.5915640000000  0.4220570000000  0.5000550000000 1.0
C      1  0.4247760000000  0.4785260000000  0.4254570000000 1.0
C      1  0.4001630000000  0.5560720000000  0.5156000000000 1.0
C      1  0.5557530000000  0.5429670000000  0.5881330000000 1.0
C      1  0.4757310000000  0.5112480000000  0.5990920000000 1.0
C      1  0.6106570000000  0.5051430000000  0.5457450000000 1.0
C      1  0.4986950000000  0.4936560000000  0.4230020000000 1.0
C      1  0.4492830000000  0.4898720000000  0.4081200000000 1.0
C      1  0.5640110000000  0.4198900000000  0.5500630000000 1.0
C      1  0.4375110000000  0.5298760000000  0.5295680000000 1.0
C      1  0.4709560000000  0.4546910000000  0.4033380000000 1.0
C      1  0.3936480000000  0.4517480000000  0.5338680000000 1.0
C      1  0.4624520000000  0.4916170000000  0.5440470000000 1.0
C      1  0.6161020000000  0.5190870000000  0.4645310000000 1.0
C      1  0.4680830000000  0.4745210000000  0.3819220000000 1.0
C      1  0.4347450000000  0.5253620000000  0.5015770000000 1.0
C      1  0.4065830000000  0.5486300000000  0.4657590000000 1.0
C      1  0.3867540000000  0.5121670000000  0.5337650000000 1.0
C      1  0.4458290000000  0.5849610000000  0.4676550000000 1.0
C      1  0.4426940000000  0.5107500000000  0.5510650000000 1.0
C      1  0.5290020000000  0.5391270000000  0.4457870000000 1.0
C      1  0.3937400000000  0.4959830000000  0.5563110000000 1.0
C      1  0.5487990000000  0.4880250000000  0.4382090000000 1.0
C      1  0.5126520000000  0.5110210000000  0.5485930000000 1.0
C      1  0.4658720000000  0.4970330000000  0.5149180000000 1.0
C      1  0.4955250000000  0.4761680000000  0.3785480000000 1.0
C      1  0.5609650000000  0.5622470000000  0.4653240000000 1.0
C      1  0.5810960000000  0.4326200000000  0.4457550000000 1.0
C      1  0.5713670000000  0.4013540000000  0.5061410000000 1.0
C      1  0.5117190000000  0.5124790000000  0.4038680000000 1.0
C      1  0.5293690000000  0.5995140000000  0.4722610000000 1.0
C      1  0.5277380000000  0.4116950000000  0.4952420000000 1.0
C      1  0.5318610000000  0.5096220000000  0.5692730000000 1.0
C      1  0.4095780000000  0.5135630000000  0.4919880000000 1.0
C      1  0.5204490000000  0.4424870000000  0.4525820000000 1.0
C      1  0.5099920000000  0.4845580000000  0.5377710000000 1.0
C      1  0.5446180000000  0.4839380000000  0.5695170000000 1.0
C      1  0.5835290000000  0.4791300000000  0.5828330000000 1.0
C      1  0.4655970000000  0.5626590000000  0.4006770000000 1.0
C      1  0.4983200000000  0.5374690000000  0.3939140000000 1.0
C      1  0.5550110000000  0.4343000000000  0.5744020000000 1.0
C      1  0.4408800000000  0.4043980000000  0.4438600000000 1.0
C      1  0.5906650000000  0.5136930000000  0.5110200000000 1.0
C      1  0.5122820000000  0.4811090000000  0.4854710000000 1.0
C      1  0.4949680000000  0.6241860000000  0.5045020000000 1.0
C      1  0.4523550000000  0.5373100000000  0.4833130000000 1.0
C      1  0.4412240000000  0.4603060000000  0.5166810000000 1.0
C      1  0.5075840000000  0.4260940000000  0.5440880000000 1.0
C      1  0.5868060000000  0.4816740000000  0.4087950000000 1.0
C      1  0.4576020000000  0.4095850000000  0.5407300000000 1.0
C      1  0.5792570000000  0.5314650000000  0.4922360000000 1.0
C      1  0.5223270000000  0.4041830000000  0.5241940000000 1.0
C      1  0.5852440000000  0.5599830000000  0.4870990000000 1.0
C      1  0.5010770000000  0.5830610000000  0.5880690000000 1.0
C      1  0.4910770000000  0.4350370000000  0.5042850000000 1.0
C      1  0.4608700000000  0.4283470000000  0.5671220000000 1.0
C      1  0.5849770000000  0.5209010000000  0.4253400000000 1.0
C      1  0.5627930000000  0.5667230000000  0.4346690000000 1.0
C      1  0.4132290000000  0.5395980000000  0.5651670000000 1.0
C      1  0.4193850000000  0.4246410000000  0.4392050000000 1.0
C      1  0.4732700000000  0.4527140000000  0.5175870000000 1.0
C      1  0.3857730000000  0.4523530000000  0.5052550000000 1.0
C      1  0.4231140000000  0.5747320000000  0.5075270000000 1.0
C      1  0.5596660000000  0.4235190000000  0.4279240000000 1.0
C      1  0.6259240000000  0.5062070000000  0.4900000000000 1.0
C      1  0.4547850000000  0.5642500000000  0.5514750000000 1.0
C      1  0.5071040000000  0.4491070000000  0.5967610000000 1.0
C      1  0.4923400000000  0.5290120000000  0.5417920000000 1.0
C      1  0.5357920000000  0.5224940000000  0.5956750000000 1.0
C      1  0.5649220000000  0.4761450000000  0.4597520000000 1.0
C      1  0.4625500000000  0.5229350000000  0.4395580000000 1.0
C      1  0.3967930000000  0.4676230000000  0.5579340000000 1.0
C      1  0.4172930000000  0.5093010000000  0.5712300000000 1.0
C      1  0.5356730000000  0.4982570000000  0.3950950000000 1.0
C      1  0.5770240000000  0.4538600000000  0.5696410000000 1.0
C      1  0.4892980000000  0.4476140000000  0.5422370000000 1.0
C      1  0.4659710000000  0.5719340000000  0.4463980000000 1.0
C      1  0.5503750000000  0.5714300000000  0.5796430000000 1.0
C      1  0.4833880000000  0.6160990000000  0.4799480000000 1.0
C      1  0.5310280000000  0.6102920000000  0.5568980000000 1.0
C      1  0.5086870000000  0.4157370000000  0.5715140000000 1.0
C      1  0.5285370000000  0.4659850000000  0.5063020000000 1.0
C      1  0.5108330000000  0.5654360000000  0.5175500000000 1.0
C      1  0.5034940000000  0.5309970000000  0.4580150000000 1.0
C      1  0.4716380000000  0.5863940000000  0.5856130000000 1.0
C      1  0.4821190000000  0.4767090000000  0.4989400000000 1.0
C      1  0.4017030000000  0.4742990000000  0.4632850000000 1.0
C      1  0.4466560000000  0.5568940000000  0.5244150000000 1.0
C      1  0.4822220000000  0.4238440000000  0.4809830000000 1.0
C      1  0.4693050000000  0.5506610000000  0.5044480000000 1.0
C      1  0.4779930000000  0.5438420000000  0.4518740000000 1.0
C      1  0.4962450000000  0.4268650000000  0.4562790000000 1.0
C      1  0.5619040000000  0.4890800000000  0.4848220000000 1.0
C      1  0.5186490000000  0.4470870000000  0.4034050000000 1.0
C      1  0.5820180000000  0.4216180000000  0.4714220000000 1.0
C      1  0.4894420000000  0.5889280000000  0.4414270000000 1.0
C      1  0.5774750000000  0.5303140000000  0.5726280000000 1.0
C      1  0.4691410000000  0.3981600000000  0.4458200000000 1.0
C      1  0.5019990000000  0.6039720000000  0.4592230000000 1.0
C      1  0.4307850000000  0.4495930000000  0.4272950000000 1.0
C      1  0.4556810000000  0.5180500000000  0.4123410000000 1.0
C      1  0.4376650000000  0.4855760000000  0.5039320000000 1.0
C      1  0.4761790000000  0.3913070000000  0.5322420000000 1.0
C      1  0.5366310000000  0.5312710000000  0.5097710000000 1.0
C      1  0.4427070000000  0.4409390000000  0.4693250000000 1.0
C      1  0.5670120000000  0.5825650000000  0.5580800000000 1.0
C      1  0.5545660000000  0.5189370000000  0.4847460000000 1.0
C      1  0.4925190000000  0.4359000000000  0.4070430000000 1.0
C      1  0.5449610000000  0.6080370000000  0.4935110000000 1.0
C      1  0.4222810000000  0.4873310000000  0.5928020000000 1.0
C      1  0.5563120000000  0.6049680000000  0.5433730000000 1.0
C      1  0.5567140000000  0.4925740000000  0.5330510000000 1.0
C      1  0.6199800000000  0.4801130000000  0.4953800000000 1.0
C      1  0.5350480000000  0.4957370000000  0.6083100000000 1.0
C      1  0.4811110000000  0.5463660000000  0.5613110000000 1.0
C      1  0.5723570000000  0.5378960000000  0.5446050000000 1.0
C      1  0.5347340000000  0.4399110000000  0.4268820000000 1.0
C      1  0.4105170000000  0.4942090000000  0.4444450000000 1.0
C      1  0.5527360000000  0.4035110000000  0.5287600000000 1.0
C      1  0.5634010000000  0.6018000000000  0.5141020000000 1.0
C      1  0.5089070000000  0.5209920000000  0.5059850000000 1.0
C      1  0.4509410000000  0.5161050000000  0.4645920000000 1.0
C      1  0.5989320000000  0.4400560000000  0.5211160000000 1.0
C      1  0.4466700000000  0.5638860000000  0.4230790000000 1.0
C      1  0.4864460000000  0.4309740000000  0.5830020000000 1.0
C      1  0.5929820000000  0.5047110000000  0.5694450000000 1.0
C      1  0.4408220000000  0.4929930000000  0.6123240000000 1.0
C      1  0.4698770000000  0.4751300000000  0.4708350000000 1.0
C      1  0.6106850000000  0.4584460000000  0.5052210000000 1.0
C      1  0.4833050000000  0.5260190000000  0.5160100000000 1.0
C      1  0.4442320000000  0.4891750000000  0.4751130000000 1.0
C      1  0.5876410000000  0.4581650000000  0.4530640000000 1.0
C      1  0.4335940000000  0.5585080000000  0.5730770000000 1.0
C      1  0.4780660000000  0.4256780000000  0.4331040000000 1.0
C      1  0.4120400000000  0.4433010000000  0.4658660000000 1.0
C      1  0.4440990000000  0.4107170000000  0.5133750000000 1.0
C      1  0.3880800000000  0.5005070000000  0.5065820000000 1.0
C      1  0.5850650000000  0.5478320000000  0.4342960000000 1.0
C      1  0.5564710000000  0.4797980000000  0.5952010000000 1.0
C      1  0.5204850000000  0.4859990000000  0.4407950000000 1.0
C      1  0.4906850000000  0.6006600000000  0.5167570000000 1.0
C      1  0.5097930000000  0.5803120000000  0.4256710000000 1.0
C      1  0.5347560000000  0.4736740000000  0.5318480000000 1.0
C      1  0.4726470000000  0.5378240000000  0.5892750000000 1.0
C      1  0.4485810000000  0.6099760000000  0.5375870000000 1.0
C      1  0.5521430000000  0.5218330000000  0.5327570000000 1.0
C      1  0.6043210000000  0.5060180000000  0.4405070000000 1.0
C      1  0.4890610000000  0.4884750000000  0.5862410000000 1.0
C      1  0.5288750000000  0.4315680000000  0.5873350000000 1.0
C      1  0.5370690000000  0.5714410000000  0.4786990000000 1.0
C      1  0.4119720000000  0.5274310000000  0.4448660000000 1.0
C      1  0.5076880000000  0.6066110000000  0.5396090000000 1.0
C      1  0.6010640000000  0.4763470000000  0.4336450000000 1.0
C      1  0.5518420000000  0.3949540000000  0.4322040000000 1.0
C      1  0.4162540000000  0.4190160000000  0.5119800000000 1.0
C      1  0.5795390000000  0.5657840000000  0.5372720000000 1.0
C      1  0.6193710000000  0.5145390000000  0.5189930000000 1.0
C      1  0.5288180000000  0.5919020000000  0.5809900000000 1.0
C      1  0.5081870000000  0.5112890000000  0.4791970000000 1.0
END
