TITL C-4164238-4211-180 8.10666514196044 125000 -15287.3891451063 0 0 102 (C1) n - 1
REM
REM in /home/nfs/bkarasulu/CARBON/AIRSS/Generating-Clusters/ReaxFF-fromJPCA2015/Units_Real/with-SteepDescent/Only-C1/SD-CG/Try1-3A/FIRE-CG
REM
REM
REM
REM
REM
REM ./C.cell (11c1c37f851c82e70ff6c80c92926a4b)
REM
REM compiler GCC version 9.2.1 20190827 (Red Hat 9.2.1-1)
REM options -cpp -mtune=generic -march=x86-64 -g -O0 -fpre-include=/usr/include/finclude/math-vector-fortran.h
REM seed -1941420220 572231724 -1796495382 1734373873 -1158017798 1729668683 -782805393 972176077 -1032989464 1106728158 1350084513 495042183 -415185090 925413523 -1848327579 -2068675447 -113954497 2022220097 -126086757 -100525305 -798210569 -1064466318 1863705721 -1575478725 2028166924 1838267279 981958 310436580 1183915656 -224253584 1801836400 -1673438196 -665741143
REM
CELL 1.54180   50.00000   50.00000   50.00000   90.00000   90.00000   90.00000
LATT -1
SFAC C  
C      1  0.4973680000000  0.4614400000000  0.5205520000000 1.0
C      1  0.4464290000000  0.5494280000000  0.4300040000000 1.0
C      1  0.4922110000000  0.5386970000000  0.5416770000000 1.0
C      1  0.4816850000000  0.5067640000000  0.5057530000000 1.0
C      1  0.4380390000000  0.4632540000000  0.5458180000000 1.0
C      1  0.5860480000000  0.4639430000000  0.5004430000000 1.0
C      1  0.4894500000000  0.4253930000000  0.4828250000000 1.0
C      1  0.4482490000000  0.5719730000000  0.4463350000000 1.0
C      1  0.5896940000000  0.5190350000000  0.4977680000000 1.0
C      1  0.5667030000000  0.4533160000000  0.5359460000000 1.0
C      1  0.4591180000000  0.4258400000000  0.4731280000000 1.0
C      1  0.5794380000000  0.4945860000000  0.4527550000000 1.0
C      1  0.4541640000000  0.4647430000000  0.5706070000000 1.0
C      1  0.5184510000000  0.5217610000000  0.4686330000000 1.0
C      1  0.4809300000000  0.5800650000000  0.5604220000000 1.0
C      1  0.4101080000000  0.5110760000000  0.4757940000000 1.0
C      1  0.4721980000000  0.4703870000000  0.4770640000000 1.0
C      1  0.4865980000000  0.5518440000000  0.5668520000000 1.0
C      1  0.4158690000000  0.4820190000000  0.4753190000000 1.0
C      1  0.4670870000000  0.5177410000000  0.5460290000000 1.0
C      1  0.5713730000000  0.5478140000000  0.4592640000000 1.0
C      1  0.4191970000000  0.4999530000000  0.4507430000000 1.0
C      1  0.4405800000000  0.5019350000000  0.4308710000000 1.0
C      1  0.5437080000000  0.4374800000000  0.4938480000000 1.0
C      1  0.5369140000000  0.4275350000000  0.5393060000000 1.0
C      1  0.5334430000000  0.5749230000000  0.5657340000000 1.0
C      1  0.4250830000000  0.5129200000000  0.5231570000000 1.0
C      1  0.5027840000000  0.5686810000000  0.4350030000000 1.0
C      1  0.5640500000000  0.5384710000000  0.5392560000000 1.0
C      1  0.4786700000000  0.4296150000000  0.4237490000000 1.0
C      1  0.5045230000000  0.4855760000000  0.5824720000000 1.0
C      1  0.5485380000000  0.5659060000000  0.4655630000000 1.0
C      1  0.4653630000000  0.4966900000000  0.5258030000000 1.0
C      1  0.5416390000000  0.4987580000000  0.5655640000000 1.0
C      1  0.4318810000000  0.5545760000000  0.5010440000000 1.0
C      1  0.4388050000000  0.5329290000000  0.5378790000000 1.0
C      1  0.4795710000000  0.5942210000000  0.5218340000000 1.0
C      1  0.4578260000000  0.4336350000000  0.4449910000000 1.0
C      1  0.5536730000000  0.4890920000000  0.4839920000000 1.0
C      1  0.5155480000000  0.5462710000000  0.5265770000000 1.0
C      1  0.4767720000000  0.4993580000000  0.4792200000000 1.0
C      1  0.4386590000000  0.4833740000000  0.5221340000000 1.0
C      1  0.5388120000000  0.5467380000000  0.5522980000000 1.0
C      1  0.4821240000000  0.4134260000000  0.5325550000000 1.0
C      1  0.5038850000000  0.4430870000000  0.4333790000000 1.0
C      1  0.5678230000000  0.5579250000000  0.4863800000000 1.0
C      1  0.5035500000000  0.4562430000000  0.5477760000000 1.0
C      1  0.5272310000000  0.4184760000000  0.5151650000000 1.0
C      1  0.4834190000000  0.5218020000000  0.4144330000000 1.0
C      1  0.5318330000000  0.5233920000000  0.5743240000000 1.0
C      1  0.4591400000000  0.4627470000000  0.4519160000000 1.0
C      1  0.5684770000000  0.5209020000000  0.4476790000000 1.0
C      1  0.5789410000000  0.4716880000000  0.5249680000000 1.0
C      1  0.5227200000000  0.5299750000000  0.4257210000000 1.0
C      1  0.4749800000000  0.4848260000000  0.5792130000000 1.0
C      1  0.5005650000000  0.5793590000000  0.4793880000000 1.0
C      1  0.5376100000000  0.4680640000000  0.4943890000000 1.0
C      1  0.5110680000000  0.4306150000000  0.4589100000000 1.0
C      1  0.4330680000000  0.4227560000000  0.5139270000000 1.0
C      1  0.5645770000000  0.5115850000000  0.5504260000000 1.0
C      1  0.4757510000000  0.5762810000000  0.4383130000000 1.0
C      1  0.4608380000000  0.5816170000000  0.5386640000000 1.0
C      1  0.4834570000000  0.5298460000000  0.5863630000000 1.0
C      1  0.5363020000000  0.4728090000000  0.4345410000000 1.0
C      1  0.5730870000000  0.4424800000000  0.4857880000000 1.0
C      1  0.4918840000000  0.4303410000000  0.5562320000000 1.0
C      1  0.5180590000000  0.4801470000000  0.5107380000000 1.0
C      1  0.4336770000000  0.4354370000000  0.5404530000000 1.0
C      1  0.4386110000000  0.4393960000000  0.4902080000000 1.0
C      1  0.4994950000000  0.4127730000000  0.5095620000000 1.0
C      1  0.4193230000000  0.5272750000000  0.4991440000000 1.0
C      1  0.4622770000000  0.4836890000000  0.4317890000000 1.0
C      1  0.5252300000000  0.4722940000000  0.5651770000000 1.0
C      1  0.4829090000000  0.4520450000000  0.4963560000000 1.0
C      1  0.4480620000000  0.5658210000000  0.4783460000000 1.0
C      1  0.5081500000000  0.5141320000000  0.5883220000000 1.0
C      1  0.5113560000000  0.4721150000000  0.4268930000000 1.0
C      1  0.5180730000000  0.5769370000000  0.5259150000000 1.0
C      1  0.5628360000000  0.4710480000000  0.4436600000000 1.0
C      1  0.4732580000000  0.5718250000000  0.4806920000000 1.0
C      1  0.5019720000000  0.5443820000000  0.4147090000000 1.0
C      1  0.5200130000000  0.5705110000000  0.4593460000000 1.0
C      1  0.5755630000000  0.5402610000000  0.5104010000000 1.0
C      1  0.4734920000000  0.4440920000000  0.5725160000000 1.0
C      1  0.5081130000000  0.5059170000000  0.5101610000000 1.0
C      1  0.4530460000000  0.4131810000000  0.5326800000000 1.0
C      1  0.4900170000000  0.4965400000000  0.4303480000000 1.0
C      1  0.4313840000000  0.4676090000000  0.4946890000000 1.0
C      1  0.5639940000000  0.4449710000000  0.4582500000000 1.0
C      1  0.5643790000000  0.4967780000000  0.5253300000000 1.0
C      1  0.5856290000000  0.4921630000000  0.4831950000000 1.0
C      1  0.5381800000000  0.5196350000000  0.4461920000000 1.0
C      1  0.4538400000000  0.5259990000000  0.4174520000000 1.0
C      1  0.5390530000000  0.4297250000000  0.4642240000000 1.0
C      1  0.5253590000000  0.5249670000000  0.5002170000000 1.0
C      1  0.4413400000000  0.5596920000000  0.5277850000000 1.0
C      1  0.5498530000000  0.5092280000000  0.5041160000000 1.0
C      1  0.4676930000000  0.5111300000000  0.5733270000000 1.0
C      1  0.4955220000000  0.5093740000000  0.4597940000000 1.0
C      1  0.5100650000000  0.5871450000000  0.5530570000000 1.0
C      1  0.5034590000000  0.5930670000000  0.5064980000000 1.0
C      1  0.5471400000000  0.4486970000000  0.5539850000000 1.0
END
