TITL C-4164245-3996-631 -3.74126585594988 125000 -7960.26537592862 0 0 53 (C1) n - 1
REM
REM in /home/nfs/bkarasulu/CARBON/AIRSS/Generating-Clusters/ReaxFF-fromJPCA2015/Units_Real/with-SteepDescent/Only-C1/SD-CG/Try1-3A/FIRE-CG
REM
REM
REM
REM
REM
REM ./C.cell (11c1c37f851c82e70ff6c80c92926a4b)
REM
REM compiler GCC version 9.2.1 20190827 (Red Hat 9.2.1-1)
REM options -cpp -mtune=generic -march=x86-64 -g -O0 -fpre-include=/usr/include/finclude/math-vector-fortran.h
REM seed -1922558514 36806797 -1118766670 -1038798711 -1079419137 -1064762681 443454091 -1163830572 -1272011933 1468983069 644834737 -1093822697 922914620 1997078872 541416141 -1906715799 -663251836 361337745 -2124940996 -1013898866 1579806099 1694661673 -1034900170 1946494777 -1854015108 -166216569 -1627903806 -1946387623 -143419791 10511441 -80471376 -58372210 -279915589
REM
CELL 1.54180   50.00000   50.00000   50.00000   90.00000   90.00000   90.00000
LATT -1
SFAC C  
C      1  0.4705290000000  0.4887810000000  0.5647660000000 1.0
C      1  0.4444460000000  0.5533890000000  0.4930270000000 1.0
C      1  0.5303780000000  0.5319950000000  0.5377610000000 1.0
C      1  0.5187590000000  0.4642230000000  0.4473440000000 1.0
C      1  0.4738800000000  0.4427380000000  0.5405860000000 1.0
C      1  0.5299030000000  0.4457530000000  0.4691180000000 1.0
C      1  0.4719480000000  0.4607020000000  0.5128710000000 1.0
C      1  0.5421940000000  0.4833400000000  0.5406650000000 1.0
C      1  0.5190840000000  0.5042460000000  0.5673150000000 1.0
C      1  0.4901260000000  0.4670900000000  0.4429970000000 1.0
C      1  0.5631870000000  0.5461820000000  0.5059530000000 1.0
C      1  0.4557870000000  0.5262540000000  0.5345900000000 1.0
C      1  0.4992040000000  0.5011670000000  0.4965040000000 1.0
C      1  0.5257570000000  0.5116610000000  0.4321020000000 1.0
C      1  0.4498500000000  0.5049090000000  0.4672700000000 1.0
C      1  0.5193020000000  0.4434650000000  0.5185700000000 1.0
C      1  0.5215910000000  0.4739460000000  0.5194340000000 1.0
C      1  0.5505740000000  0.5104390000000  0.5344540000000 1.0
C      1  0.5202300000000  0.5577390000000  0.4942950000000 1.0
C      1  0.5043090000000  0.5032960000000  0.4125140000000 1.0
C      1  0.5368940000000  0.5524740000000  0.5173870000000 1.0
C      1  0.5288340000000  0.4776410000000  0.5663180000000 1.0
C      1  0.5691160000000  0.5177100000000  0.5123500000000 1.0
C      1  0.4933220000000  0.5500300000000  0.4978690000000 1.0
C      1  0.5059560000000  0.5240720000000  0.5526190000000 1.0
C      1  0.4891680000000  0.5299470000000  0.4570350000000 1.0
C      1  0.5659730000000  0.5110900000000  0.4838770000000 1.0
C      1  0.5087590000000  0.4552570000000  0.5657640000000 1.0
C      1  0.5106120000000  0.4372970000000  0.4917240000000 1.0
C      1  0.4445990000000  0.4689130000000  0.5013600000000 1.0
C      1  0.4505830000000  0.4763830000000  0.4735650000000 1.0
C      1  0.4690010000000  0.5119760000000  0.4463280000000 1.0
C      1  0.5324980000000  0.5475460000000  0.4697560000000 1.0
C      1  0.4726600000000  0.4590420000000  0.4649120000000 1.0
C      1  0.4370980000000  0.5148190000000  0.5157490000000 1.0
C      1  0.4795870000000  0.4616900000000  0.5666030000000 1.0
C      1  0.4835210000000  0.4463710000000  0.4888250000000 1.0
C      1  0.5054280000000  0.4373650000000  0.5432300000000 1.0
C      1  0.4703860000000  0.5631020000000  0.5054490000000 1.0
C      1  0.5347830000000  0.4879600000000  0.4465450000000 1.0
C      1  0.4796860000000  0.5084880000000  0.5424180000000 1.0
C      1  0.4893900000000  0.5253710000000  0.4860410000000 1.0
C      1  0.4581770000000  0.5556980000000  0.5324650000000 1.0
C      1  0.4401650000000  0.5235000000000  0.4880940000000 1.0
C      1  0.4358010000000  0.4916410000000  0.5132490000000 1.0
C      1  0.5168480000000  0.5348040000000  0.4489500000000 1.0
C      1  0.5232570000000  0.4885590000000  0.4941480000000 1.0
C      1  0.4901210000000  0.4872360000000  0.5191780000000 1.0
C      1  0.5552940000000  0.4561860000000  0.4763560000000 1.0
C      1  0.5597980000000  0.5389760000000  0.4772010000000 1.0
C      1  0.4328280000000  0.5574620000000  0.5190810000000 1.0
C      1  0.5469380000000  0.4883500000000  0.4748510000000 1.0
C      1  0.4818810000000  0.4917290000000  0.4285640000000 1.0
END
