TITL C-4164243-3780-440 36.3417154703418 125000 -18286.0271264566 0 0 122 (C1) n - 1
REM
REM in /home/nfs/bkarasulu/CARBON/AIRSS/Generating-Clusters/ReaxFF-fromJPCA2015/Units_Real/with-SteepDescent/Only-C1/SD-CG/Try1-3A/FIRE-CG
REM
REM
REM
REM
REM
REM ./C.cell (11c1c37f851c82e70ff6c80c92926a4b)
REM
REM compiler GCC version 9.2.1 20190827 (Red Hat 9.2.1-1)
REM options -cpp -mtune=generic -march=x86-64 -g -O0 -fpre-include=/usr/include/finclude/math-vector-fortran.h
REM seed 935472347 -382031311 -1296980156 -1818555722 -2002098211 -1032436371 1423668370 -1365740749 218115544 -1623223759 -655531696 630488918 197252775 -1336948426 928126332 -1398870214 -1399796123 50680745 -208161768 -1722134409 622279815 -1470203355 253072260 1498297 1210541770 -17822556 531754 261171476 -492357408 -1923978500 -1329543300 663290497 -1254006918
REM
CELL 1.54180   50.00000   50.00000   50.00000   90.00000   90.00000   90.00000
LATT -1
SFAC C  
C      1  0.5311430000000  0.4088610000000  0.5143460000000 1.0
C      1  0.4405650000000  0.4188240000000  0.5057060000000 1.0
C      1  0.4299810000000  0.4748840000000  0.5648760000000 1.0
C      1  0.5100110000000  0.4635910000000  0.4485420000000 1.0
C      1  0.4790620000000  0.4434620000000  0.5015020000000 1.0
C      1  0.4706890000000  0.4259370000000  0.5520860000000 1.0
C      1  0.5021720000000  0.4639500000000  0.5299060000000 1.0
C      1  0.4734060000000  0.5632880000000  0.4845090000000 1.0
C      1  0.4441200000000  0.5756290000000  0.5183050000000 1.0
C      1  0.5164610000000  0.4040340000000  0.4652790000000 1.0
C      1  0.4887880000000  0.5719930000000  0.5446960000000 1.0
C      1  0.5695090000000  0.5029210000000  0.5609620000000 1.0
C      1  0.4770820000000  0.5926980000000  0.4975220000000 1.0
C      1  0.5482940000000  0.5108770000000  0.5798210000000 1.0
C      1  0.4981430000000  0.5488750000000  0.5009980000000 1.0
C      1  0.4283810000000  0.4332610000000  0.4801960000000 1.0
C      1  0.5500020000000  0.5389000000000  0.5146980000000 1.0
C      1  0.5541420000000  0.4290000000000  0.4485620000000 1.0
C      1  0.5164610000000  0.4591120000000  0.5813660000000 1.0
C      1  0.5759230000000  0.4813940000000  0.5416240000000 1.0
C      1  0.4315600000000  0.5334900000000  0.5018050000000 1.0
C      1  0.5462130000000  0.5034450000000  0.4683310000000 1.0
C      1  0.4410060000000  0.4872430000000  0.4447240000000 1.0
C      1  0.4818350000000  0.4146910000000  0.5008110000000 1.0
C      1  0.5375600000000  0.4059070000000  0.4860720000000 1.0
C      1  0.4656220000000  0.4624200000000  0.4878840000000 1.0
C      1  0.4882300000000  0.4087950000000  0.4718800000000 1.0
C      1  0.4624090000000  0.5337780000000  0.4172680000000 1.0
C      1  0.4472000000000  0.5115600000000  0.5690140000000 1.0
C      1  0.5360540000000  0.4831270000000  0.4856800000000 1.0
C      1  0.5365280000000  0.5591500000000  0.5610380000000 1.0
C      1  0.5616350000000  0.5724420000000  0.4765060000000 1.0
C      1  0.5530340000000  0.4190910000000  0.5307890000000 1.0
C      1  0.5029560000000  0.4557780000000  0.5017540000000 1.0
C      1  0.4091790000000  0.5166980000000  0.4980470000000 1.0
C      1  0.5302520000000  0.5983910000000  0.5004560000000 1.0
C      1  0.5040830000000  0.5967690000000  0.4981550000000 1.0
C      1  0.5371040000000  0.5863950000000  0.5285810000000 1.0
C      1  0.4993640000000  0.4323590000000  0.5431410000000 1.0
C      1  0.5233930000000  0.5077030000000  0.5476940000000 1.0
C      1  0.4923790000000  0.5445270000000  0.5287070000000 1.0
C      1  0.4758640000000  0.5690340000000  0.5703120000000 1.0
C      1  0.5817700000000  0.4618730000000  0.4918170000000 1.0
C      1  0.5615780000000  0.5164160000000  0.4240920000000 1.0
C      1  0.4717520000000  0.4934350000000  0.5692880000000 1.0
C      1  0.4970470000000  0.5023280000000  0.5839450000000 1.0
C      1  0.4818350000000  0.4915250000000  0.5379810000000 1.0
C      1  0.4658820000000  0.4404570000000  0.5775830000000 1.0
C      1  0.5486210000000  0.4345590000000  0.5543140000000 1.0
C      1  0.5007090000000  0.5199410000000  0.4598850000000 1.0
C      1  0.5038510000000  0.4130180000000  0.5208030000000 1.0
C      1  0.4312040000000  0.5648320000000  0.5440980000000 1.0
C      1  0.5809170000000  0.5528030000000  0.4769920000000 1.0
C      1  0.5161800000000  0.5151730000000  0.4083040000000 1.0
C      1  0.5784390000000  0.4333780000000  0.4934040000000 1.0
C      1  0.5821020000000  0.5426200000000  0.4485820000000 1.0
C      1  0.5273740000000  0.5257230000000  0.4704940000000 1.0
C      1  0.4151500000000  0.4605610000000  0.4813790000000 1.0
C      1  0.5425420000000  0.5896420000000  0.4736600000000 1.0
C      1  0.5172970000000  0.4631200000000  0.4785470000000 1.0
C      1  0.5353570000000  0.5603610000000  0.4275520000000 1.0
C      1  0.5773560000000  0.5343820000000  0.5001370000000 1.0
C      1  0.5008380000000  0.5737570000000  0.4475060000000 1.0
C      1  0.5248160000000  0.5414890000000  0.4943380000000 1.0
C      1  0.4139830000000  0.4988710000000  0.5214760000000 1.0
C      1  0.5606240000000  0.4183360000000  0.4746700000000 1.0
C      1  0.5305580000000  0.4702060000000  0.5320980000000 1.0
C      1  0.5266210000000  0.5805670000000  0.4473330000000 1.0
C      1  0.4501080000000  0.4282240000000  0.4647700000000 1.0
C      1  0.4907900000000  0.4917530000000  0.4542110000000 1.0
C      1  0.4173280000000  0.4821840000000  0.4618470000000 1.0
C      1  0.4700670000000  0.4603660000000  0.4170410000000 1.0
C      1  0.4232570000000  0.4994130000000  0.5553260000000 1.0
C      1  0.5186230000000  0.5805670000000  0.5504300000000 1.0
C      1  0.4979890000000  0.5175490000000  0.5388050000000 1.0
C      1  0.4219980000000  0.5320020000000  0.4572130000000 1.0
C      1  0.5295650000000  0.4140370000000  0.4400290000000 1.0
C      1  0.5381080000000  0.4904570000000  0.5133420000000 1.0
C      1  0.5710180000000  0.4307100000000  0.5153830000000 1.0
C      1  0.4747550000000  0.5676510000000  0.4534900000000 1.0
C      1  0.4808860000000  0.5460780000000  0.5854770000000 1.0
C      1  0.5228110000000  0.4913410000000  0.5756410000000 1.0
C      1  0.4732040000000  0.5252210000000  0.4699170000000 1.0
C      1  0.5750370000000  0.5001400000000  0.4670470000000 1.0
C      1  0.4196000000000  0.5388190000000  0.5454870000000 1.0
C      1  0.4194490000000  0.4713190000000  0.5094140000000 1.0
C      1  0.4738430000000  0.4238340000000  0.4511280000000 1.0
C      1  0.5817390000000  0.5148880000000  0.4440120000000 1.0
C      1  0.4471690000000  0.5636120000000  0.5696280000000 1.0
C      1  0.5607930000000  0.5458950000000  0.4283800000000 1.0
C      1  0.4740430000000  0.5078870000000  0.4939130000000 1.0
C      1  0.4633470000000  0.5051370000000  0.4507010000000 1.0
C      1  0.4498790000000  0.5085150000000  0.4077270000000 1.0
C      1  0.4530740000000  0.5529250000000  0.4386340000000 1.0
C      1  0.4474190000000  0.4801740000000  0.4161020000000 1.0
C      1  0.5439190000000  0.5129550000000  0.5286600000000 1.0
C      1  0.4914090000000  0.5317050000000  0.4105300000000 1.0
C      1  0.5351370000000  0.4729360000000  0.4336030000000 1.0
C      1  0.4463230000000  0.4642070000000  0.5087670000000 1.0
C      1  0.4632470000000  0.5045470000000  0.5198160000000 1.0
C      1  0.4088150000000  0.5099810000000  0.4687020000000 1.0
C      1  0.4537510000000  0.4207620000000  0.5306610000000 1.0
C      1  0.4389190000000  0.5190970000000  0.5242550000000 1.0
C      1  0.4874340000000  0.4466340000000  0.4356670000000 1.0
C      1  0.4431900000000  0.5586240000000  0.4923440000000 1.0
C      1  0.4526780000000  0.5372240000000  0.5821250000000 1.0
C      1  0.5042000000000  0.5298060000000  0.5865150000000 1.0
C      1  0.4903920000000  0.4509460000000  0.5867560000000 1.0
C      1  0.4805740000000  0.4847200000000  0.4806270000000 1.0
C      1  0.4688330000000  0.5876060000000  0.5249390000000 1.0
C      1  0.5218690000000  0.4355850000000  0.5651210000000 1.0
C      1  0.5846710000000  0.4834940000000  0.5126870000000 1.0
C      1  0.4336740000000  0.5555320000000  0.4599460000000 1.0
C      1  0.5738460000000  0.4710610000000  0.4660140000000 1.0
C      1  0.5518250000000  0.5621790000000  0.5356620000000 1.0
C      1  0.5372490000000  0.4994900000000  0.4217630000000 1.0
C      1  0.5172740000000  0.5445490000000  0.4097600000000 1.0
C      1  0.5318860000000  0.5355840000000  0.5784430000000 1.0
C      1  0.5534870000000  0.4627300000000  0.5476740000000 1.0
C      1  0.5862070000000  0.5076770000000  0.4978150000000 1.0
C      1  0.4533620000000  0.4672930000000  0.5759870000000 1.0
C      1  0.5577350000000  0.4587220000000  0.4456390000000 1.0
END
