TITL C-4164245-3996-172 -17.6163677967764 125000 -4704.45665164282 0 0 33 (C1) n - 1
REM
REM in /home/nfs/bkarasulu/CARBON/AIRSS/Generating-Clusters/ReaxFF-fromJPCA2015/Units_Real/with-SteepDescent/Only-C1/SD-CG/Try1-3A/FIRE-CG
REM
REM
REM
REM
REM
REM ./C.cell (11c1c37f851c82e70ff6c80c92926a4b)
REM
REM compiler GCC version 9.2.1 20190827 (Red Hat 9.2.1-1)
REM options -cpp -mtune=generic -march=x86-64 -g -O0 -fpre-include=/usr/include/finclude/math-vector-fortran.h
REM seed 983149730 1745043984 295598351 -603148185 -1532799570 1449394822 1720186559 578709257 904190231 -156957493 1979538526 1953152920 -240180425 1324988411 -703274315 2084576508 -125456554 -1253124681 643459441 -1440409570 -1464823860 -2127855468 661667130 -1931352337 1533258276 -1105774886 -1103983205 2114988875 1759402750 -1381116190 1737852247 -78492095 -200025951
REM
CELL 1.54180   50.00000   50.00000   50.00000   90.00000   90.00000   90.00000
LATT -1
SFAC C  
C      1  0.5397100000000  0.5303440000000  0.5503280000000 1.0
C      1  0.5523680000000  0.4650900000000  0.4973130000000 1.0
C      1  0.4544500000000  0.5365300000000  0.4984760000000 1.0
C      1  0.5132000000000  0.5164680000000  0.5422430000000 1.0
C      1  0.4875370000000  0.5515830000000  0.4584000000000 1.0
C      1  0.5739500000000  0.4827730000000  0.5058950000000 1.0
C      1  0.5345980000000  0.5361070000000  0.4745730000000 1.0
C      1  0.5812490000000  0.4619010000000  0.5007650000000 1.0
C      1  0.5102300000000  0.5046940000000  0.4562880000000 1.0
C      1  0.5084610000000  0.5129610000000  0.5140900000000 1.0
C      1  0.5088890000000  0.4432810000000  0.5018230000000 1.0
C      1  0.5001960000000  0.4727640000000  0.5556070000000 1.0
C      1  0.4685770000000  0.4932650000000  0.4826230000000 1.0
C      1  0.4938480000000  0.5018780000000  0.5584830000000 1.0
C      1  0.4672650000000  0.4875650000000  0.5281270000000 1.0
C      1  0.5110800000000  0.5323800000000  0.4550890000000 1.0
C      1  0.4596390000000  0.4963210000000  0.4362600000000 1.0
C      1  0.5144030000000  0.4606850000000  0.4806600000000 1.0
C      1  0.4483800000000  0.5138900000000  0.4801460000000 1.0
C      1  0.4598480000000  0.5468630000000  0.4517740000000 1.0
C      1  0.4778510000000  0.4610540000000  0.5386690000000 1.0
C      1  0.5328940000000  0.4527520000000  0.5170120000000 1.0
C      1  0.4672750000000  0.5101560000000  0.5473500000000 1.0
C      1  0.4831710000000  0.4406090000000  0.5188480000000 1.0
C      1  0.4476860000000  0.5195810000000  0.4514760000000 1.0
C      1  0.4857510000000  0.4958910000000  0.5063690000000 1.0
C      1  0.5254150000000  0.4635440000000  0.5440640000000 1.0
C      1  0.4671700000000  0.5552270000000  0.4788890000000 1.0
C      1  0.4754130000000  0.4809730000000  0.4564760000000 1.0
C      1  0.5316510000000  0.5277180000000  0.5024940000000 1.0
C      1  0.5509170000000  0.5382870000000  0.5243620000000 1.0
C      1  0.5064200000000  0.4766910000000  0.4582110000000 1.0
C      1  0.4605050000000  0.5301740000000  0.5268150000000 1.0
END
