TITL C-4164233-775-660 5.70723782056713 125000 -4118.90457134095 0 0 29 (C1) n - 1
REM
REM in /home/nfs/bkarasulu/CARBON/AIRSS/Generating-Clusters/ReaxFF-fromJPCA2015/Units_Real/with-SteepDescent/Only-C1/SD-CG/Try1-3A/FIRE-CG
REM
REM
REM
REM
REM
REM ./C.cell (11c1c37f851c82e70ff6c80c92926a4b)
REM
REM compiler GCC version 9.2.1 20190827 (Red Hat 9.2.1-1)
REM options -cpp -mtune=generic -march=x86-64 -g -O0 -fpre-include=/usr/include/finclude/math-vector-fortran.h
REM seed -916526804 1919124662 1153280493 -557695371 -2074093759 1607119695 -143137216 -1917435897 -425279957 59097006 -434901536 1776394923 -238974315 1387293592 543087821 607371082 -160857310 1827974497 -1537345822 -567665161 533006988 -1673710492 1733086029 -475539367 1164708611 540288820 301991920 1984150592 -1316523478 -2104011857 -1988869259 -76875496 -2095509549
REM
CELL 1.54180   50.00000   50.00000   50.00000   90.00000   90.00000   90.00000
LATT -1
SFAC C  
C      1  0.4348560000000  0.5648480000000  0.5334190000000 1.0
C      1  0.4799910000000  0.4438120000000  0.5201590000000 1.0
C      1  0.4784450000000  0.4670640000000  0.5647430000000 1.0
C      1  0.5145930000000  0.5438410000000  0.5079320000000 1.0
C      1  0.5413660000000  0.5497120000000  0.4929270000000 1.0
C      1  0.5818780000000  0.5167140000000  0.4879690000000 1.0
C      1  0.4465190000000  0.5260280000000  0.5006720000000 1.0
C      1  0.5061760000000  0.4538800000000  0.5296820000000 1.0
C      1  0.5270050000000  0.4558170000000  0.5112930000000 1.0
C      1  0.4614820000000  0.4540660000000  0.5418730000000 1.0
C      1  0.4979250000000  0.4782610000000  0.5458010000000 1.0
C      1  0.5636100000000  0.5336990000000  0.4907830000000 1.0
C      1  0.5134310000000  0.5001740000000  0.4552090000000 1.0
C      1  0.5060780000000  0.5293680000000  0.4580980000000 1.0
C      1  0.4838940000000  0.4934770000000  0.4593590000000 1.0
C      1  0.4627100000000  0.4970180000000  0.5086150000000 1.0
C      1  0.5159430000000  0.5473810000000  0.4784380000000 1.0
C      1  0.5367350000000  0.4869230000000  0.4639470000000 1.0
C      1  0.4767620000000  0.5225290000000  0.4564310000000 1.0
C      1  0.5024070000000  0.5222650000000  0.5192120000000 1.0
C      1  0.4545230000000  0.4762310000000  0.5261690000000 1.0
C      1  0.4884680000000  0.5019690000000  0.5281660000000 1.0
C      1  0.4594490000000  0.5287220000000  0.4776660000000 1.0
C      1  0.5756340000000  0.4950630000000  0.4809030000000 1.0
C      1  0.4726790000000  0.4799170000000  0.4825250000000 1.0
C      1  0.4756580000000  0.4523010000000  0.4911970000000 1.0
C      1  0.5587790000000  0.4721270000000  0.4734710000000 1.0
C      1  0.5427950000000  0.4597750000000  0.4949620000000 1.0
C      1  0.4402130000000  0.5470160000000  0.5183760000000 1.0
END
