TITL C-4164242-3624-500 25.7690630463435 125000 -24568.2125839004 0 0 164 (C1) n - 1
REM
REM in /home/nfs/bkarasulu/CARBON/AIRSS/Generating-Clusters/ReaxFF-fromJPCA2015/Units_Real/with-SteepDescent/Only-C1/SD-CG/Try1-3A/FIRE-CG
REM
REM
REM
REM
REM
REM ./C.cell (11c1c37f851c82e70ff6c80c92926a4b)
REM
REM compiler GCC version 9.2.1 20190827 (Red Hat 9.2.1-1)
REM options -cpp -mtune=generic -march=x86-64 -g -O0 -fpre-include=/usr/include/finclude/math-vector-fortran.h
REM seed 2075928468 -135911484 -2084335034 1293381053 -242224682 638903408 -1085330068 692813724 -2064694876 -1410309937 279519873 -1953047038 -531338172 1425926529 -1341437356 791289078 1560253758 1550936008 -2082877952 369071299 668380310 1994716860 764244908 -659068661 -361099342 -19865656 -940801701 804368647 886503727 -1595845854 -1324196837 -1227815460 1343370476
REM
CELL 1.54180   50.00000   50.00000   50.00000   90.00000   90.00000   90.00000
LATT -1
SFAC C  
C      1  0.4920050000000  0.4651960000000  0.6051760000000 1.0
C      1  0.4630070000000  0.5867470000000  0.4924470000000 1.0
C      1  0.5704210000000  0.4461320000000  0.4489380000000 1.0
C      1  0.4065930000000  0.5234630000000  0.4439500000000 1.0
C      1  0.5182130000000  0.5338330000000  0.5493130000000 1.0
C      1  0.5115450000000  0.5762990000000  0.5767570000000 1.0
C      1  0.5282910000000  0.6042290000000  0.5329650000000 1.0
C      1  0.4756320000000  0.5386780000000  0.4781830000000 1.0
C      1  0.5677160000000  0.5412050000000  0.5719570000000 1.0
C      1  0.4367680000000  0.4105220000000  0.4824750000000 1.0
C      1  0.5412320000000  0.5206770000000  0.4712000000000 1.0
C      1  0.4470890000000  0.4731910000000  0.5721620000000 1.0
C      1  0.4811810000000  0.4927510000000  0.6054230000000 1.0
C      1  0.5646230000000  0.4240640000000  0.4663080000000 1.0
C      1  0.5688620000000  0.5773480000000  0.5264010000000 1.0
C      1  0.5530050000000  0.4953540000000  0.4690880000000 1.0
C      1  0.6003840000000  0.5177900000000  0.4840510000000 1.0
C      1  0.4551450000000  0.5238820000000  0.4654750000000 1.0
C      1  0.4431080000000  0.4633170000000  0.4412890000000 1.0
C      1  0.5477590000000  0.5303840000000  0.5927770000000 1.0
C      1  0.5182830000000  0.4655400000000  0.5096840000000 1.0
C      1  0.5173590000000  0.3874490000000  0.5019300000000 1.0
C      1  0.4931620000000  0.3874900000000  0.5159870000000 1.0
C      1  0.4911830000000  0.4813950000000  0.5487700000000 1.0
C      1  0.5096500000000  0.5465590000000  0.5746500000000 1.0
C      1  0.4928660000000  0.5538420000000  0.4067080000000 1.0
C      1  0.5652270000000  0.5077360000000  0.5969330000000 1.0
C      1  0.4929980000000  0.5257950000000  0.4000770000000 1.0
C      1  0.4328600000000  0.5554660000000  0.5188170000000 1.0
C      1  0.5126010000000  0.5063090000000  0.3910870000000 1.0
C      1  0.5094050000000  0.5654540000000  0.5075310000000 1.0
C      1  0.5229940000000  0.5435580000000  0.5209530000000 1.0
C      1  0.5476490000000  0.4849320000000  0.4190600000000 1.0
C      1  0.3896410000000  0.4998160000000  0.5483530000000 1.0
C      1  0.4909380000000  0.4324520000000  0.5370970000000 1.0
C      1  0.4641870000000  0.5661600000000  0.5906510000000 1.0
C      1  0.4223180000000  0.4451450000000  0.4501750000000 1.0
C      1  0.4449750000000  0.4244900000000  0.5588280000000 1.0
C      1  0.4786020000000  0.5887070000000  0.4408290000000 1.0
C      1  0.5603800000000  0.5887940000000  0.4643470000000 1.0
C      1  0.5639670000000  0.4768360000000  0.5082140000000 1.0
C      1  0.4800670000000  0.4516280000000  0.4308920000000 1.0
C      1  0.5033240000000  0.4284100000000  0.5621360000000 1.0
C      1  0.4830840000000  0.5973890000000  0.5527770000000 1.0
C      1  0.4671070000000  0.3958530000000  0.5179240000000 1.0
C      1  0.5013140000000  0.5466830000000  0.4658140000000 1.0
C      1  0.3867970000000  0.4748440000000  0.5383040000000 1.0
C      1  0.4084040000000  0.4309330000000  0.5262620000000 1.0
C      1  0.5162930000000  0.5245790000000  0.4552330000000 1.0
C      1  0.4616400000000  0.4532300000000  0.4938680000000 1.0
C      1  0.5904660000000  0.5654320000000  0.5112520000000 1.0
C      1  0.6038950000000  0.4696690000000  0.4858020000000 1.0
C      1  0.5523510000000  0.4805280000000  0.6001960000000 1.0
C      1  0.5034890000000  0.5025640000000  0.4427820000000 1.0
C      1  0.3931630000000  0.5277380000000  0.5328690000000 1.0
C      1  0.5181920000000  0.5948980000000  0.4723890000000 1.0
C      1  0.5832250000000  0.5165130000000  0.5748460000000 1.0
C      1  0.4621900000000  0.3958780000000  0.4895120000000 1.0
C      1  0.5041730000000  0.4408860000000  0.5080160000000 1.0
C      1  0.4218900000000  0.4208340000000  0.5044280000000 1.0
C      1  0.4018890000000  0.5408660000000  0.4845590000000 1.0
C      1  0.5280980000000  0.4175720000000  0.5492010000000 1.0
C      1  0.4556920000000  0.4568550000000  0.4161190000000 1.0
C      1  0.5010540000000  0.4788160000000  0.3898700000000 1.0
C      1  0.4927120000000  0.4257470000000  0.4281230000000 1.0
C      1  0.5550120000000  0.5021750000000  0.5167610000000 1.0
C      1  0.4440640000000  0.5615820000000  0.5719660000000 1.0
C      1  0.5305400000000  0.4562440000000  0.4630680000000 1.0
C      1  0.4977490000000  0.4441140000000  0.5884010000000 1.0
C      1  0.4427870000000  0.4249760000000  0.4573130000000 1.0
C      1  0.4438680000000  0.5010610000000  0.4786860000000 1.0
C      1  0.4582050000000  0.5329060000000  0.5260880000000 1.0
C      1  0.3944680000000  0.4866400000000  0.4735360000000 1.0
C      1  0.5375910000000  0.5094480000000  0.4052070000000 1.0
C      1  0.4214510000000  0.5591620000000  0.4713470000000 1.0
C      1  0.4855530000000  0.4429710000000  0.4832280000000 1.0
C      1  0.5107830000000  0.4569670000000  0.4050420000000 1.0
C      1  0.4355860000000  0.4467730000000  0.5726470000000 1.0
C      1  0.5745990000000  0.4383930000000  0.5469270000000 1.0
C      1  0.4489050000000  0.4819150000000  0.4042220000000 1.0
C      1  0.5879900000000  0.4528210000000  0.5695480000000 1.0
C      1  0.4762280000000  0.4889000000000  0.4023360000000 1.0
C      1  0.5787820000000  0.4930180000000  0.4556400000000 1.0
C      1  0.4865410000000  0.4582850000000  0.4586410000000 1.0
C      1  0.6006630000000  0.4459760000000  0.5016830000000 1.0
C      1  0.5259520000000  0.4816320000000  0.5884440000000 1.0
C      1  0.5545420000000  0.4934190000000  0.5456850000000 1.0
C      1  0.5860730000000  0.5641270000000  0.4830090000000 1.0
C      1  0.6010170000000  0.5131650000000  0.5261930000000 1.0
C      1  0.4360230000000  0.5607520000000  0.5471330000000 1.0
C      1  0.5128070000000  0.4008420000000  0.4758390000000 1.0
C      1  0.5362220000000  0.4692040000000  0.5465360000000 1.0
C      1  0.5022800000000  0.5109600000000  0.5034310000000 1.0
C      1  0.4619560000000  0.4241310000000  0.5349530000000 1.0
C      1  0.5898670000000  0.4658110000000  0.4602910000000 1.0
C      1  0.5127190000000  0.4772260000000  0.5328550000000 1.0
C      1  0.5045730000000  0.4844300000000  0.5724730000000 1.0
C      1  0.4790140000000  0.5297260000000  0.5064350000000 1.0
C      1  0.5303650000000  0.4272340000000  0.5032070000000 1.0
C      1  0.4717470000000  0.4166070000000  0.4484270000000 1.0
C      1  0.3915630000000  0.4558980000000  0.5186980000000 1.0
C      1  0.4104300000000  0.4953670000000  0.4338920000000 1.0
C      1  0.5853160000000  0.4300050000000  0.4842340000000 1.0
C      1  0.5460930000000  0.4406540000000  0.5499010000000 1.0
C      1  0.4473290000000  0.5501730000000  0.4273770000000 1.0
C      1  0.4966170000000  0.6060360000000  0.5292210000000 1.0
C      1  0.3947510000000  0.5168010000000  0.4691500000000 1.0
C      1  0.4869990000000  0.5834600000000  0.5134910000000 1.0
C      1  0.4600270000000  0.4852260000000  0.5469060000000 1.0
C      1  0.4551230000000  0.4932740000000  0.5910980000000 1.0
C      1  0.4829900000000  0.5864950000000  0.5786690000000 1.0
C      1  0.5427390000000  0.4561310000000  0.4362510000000 1.0
C      1  0.5982480000000  0.4724320000000  0.5499500000000 1.0
C      1  0.4520840000000  0.5201350000000  0.5783420000000 1.0
C      1  0.4930780000000  0.4917140000000  0.4856670000000 1.0
C      1  0.5973130000000  0.5013790000000  0.5523460000000 1.0
C      1  0.5046520000000  0.4802090000000  0.4616920000000 1.0
C      1  0.4347650000000  0.5017570000000  0.4200690000000 1.0
C      1  0.5248380000000  0.5902630000000  0.5560270000000 1.0
C      1  0.5327140000000  0.4242020000000  0.4736140000000 1.0
C      1  0.5674970000000  0.4987940000000  0.4305950000000 1.0
C      1  0.5721330000000  0.4594090000000  0.5936740000000 1.0
C      1  0.4131830000000  0.5074980000000  0.5331570000000 1.0
C      1  0.5189650000000  0.5320980000000  0.5955780000000 1.0
C      1  0.5409330000000  0.5395330000000  0.4123220000000 1.0
C      1  0.4677680000000  0.5873190000000  0.4659610000000 1.0
C      1  0.4512870000000  0.4473620000000  0.5183040000000 1.0
C      1  0.5531790000000  0.5812310000000  0.4364620000000 1.0
C      1  0.4039500000000  0.5450410000000  0.5128720000000 1.0
C      1  0.4559080000000  0.5166020000000  0.5494690000000 1.0
C      1  0.4827790000000  0.5092940000000  0.4225230000000 1.0
C      1  0.5437270000000  0.6015320000000  0.4851470000000 1.0
C      1  0.5317350000000  0.5204480000000  0.5038650000000 1.0
C      1  0.4194190000000  0.4304800000000  0.5541350000000 1.0
C      1  0.5267330000000  0.5859990000000  0.4258920000000 1.0
C      1  0.5492240000000  0.5957130000000  0.5138070000000 1.0
C      1  0.4029690000000  0.4757140000000  0.4995820000000 1.0
C      1  0.4709060000000  0.5661350000000  0.4220670000000 1.0
C      1  0.5625940000000  0.5407390000000  0.4593970000000 1.0
C      1  0.5697170000000  0.5528520000000  0.5449740000000 1.0
C      1  0.5579270000000  0.5530550000000  0.4307830000000 1.0
C      1  0.4698830000000  0.5376220000000  0.5946700000000 1.0
C      1  0.5843290000000  0.4582740000000  0.5257040000000 1.0
C      1  0.4444280000000  0.4735990000000  0.5250060000000 1.0
C      1  0.4232690000000  0.5490420000000  0.4438810000000 1.0
C      1  0.5429190000000  0.4717450000000  0.4862960000000 1.0
C      1  0.5907190000000  0.5410190000000  0.5278050000000 1.0
C      1  0.5331620000000  0.5102200000000  0.5517010000000 1.0
C      1  0.5197660000000  0.4381310000000  0.4216400000000 1.0
C      1  0.4266040000000  0.4914470000000  0.5093390000000 1.0
C      1  0.4843320000000  0.4009180000000  0.4693900000000 1.0
C      1  0.4389330000000  0.5707330000000  0.4916470000000 1.0
C      1  0.6067210000000  0.4977720000000  0.4997260000000 1.0
C      1  0.5199910000000  0.5656920000000  0.4791920000000 1.0
C      1  0.4932780000000  0.5210320000000  0.6022850000000 1.0
C      1  0.5311180000000  0.4051370000000  0.5219400000000 1.0
C      1  0.5075800000000  0.5966910000000  0.4451050000000 1.0
C      1  0.5211940000000  0.5611470000000  0.4102470000000 1.0
C      1  0.4544210000000  0.5214010000000  0.4351350000000 1.0
C      1  0.4650090000000  0.4834270000000  0.4879070000000 1.0
C      1  0.4053790000000  0.4712350000000  0.4515160000000 1.0
C      1  0.5590680000000  0.5633770000000  0.4758020000000 1.0
C      1  0.4540310000000  0.4818390000000  0.4602840000000 1.0
C      1  0.5928100000000  0.5391120000000  0.4692350000000 1.0
END
