TITL C-4164239-2837-742 2.53678348135061 125000 -18421.3010524819 0 0 124 (C1) n - 1
REM
REM in /home/nfs/bkarasulu/CARBON/AIRSS/Generating-Clusters/ReaxFF-fromJPCA2015/Units_Real/with-SteepDescent/Only-C1/SD-CG/Try1-3A/FIRE-CG
REM
REM
REM
REM
REM
REM ./C.cell (11c1c37f851c82e70ff6c80c92926a4b)
REM
REM compiler GCC version 9.2.1 20190827 (Red Hat 9.2.1-1)
REM options -cpp -mtune=generic -march=x86-64 -g -O0 -fpre-include=/usr/include/finclude/math-vector-fortran.h
REM seed -1862196413 -1617653525 -1328509100 -1147998797 -1755376358 -7580690 2134087543 1613841110 -300975820 823985587 -839430190 -576305748 -414708399 116501942 1834908186 1673349664 1774044551 -1548721414 -500201051 27576463 662707979 1088262068 -606466839 -262031416 -1050019695 -1350249392 1762704111 1090905292 1143269231 -1172560106 -527915307 1929112452 1578537741
REM
CELL 1.54180   50.00000   50.00000   50.00000   90.00000   90.00000   90.00000
LATT -1
SFAC C  
C      1  0.4191340000000  0.5069330000000  0.4283500000000 1.0
C      1  0.5772320000000  0.5084520000000  0.4860130000000 1.0
C      1  0.5643470000000  0.4608410000000  0.4369100000000 1.0
C      1  0.4194550000000  0.4446250000000  0.4678840000000 1.0
C      1  0.5349580000000  0.4648350000000  0.4231740000000 1.0
C      1  0.5148940000000  0.4550640000000  0.5116750000000 1.0
C      1  0.5771200000000  0.4614180000000  0.5401250000000 1.0
C      1  0.4022780000000  0.4780810000000  0.5132120000000 1.0
C      1  0.4621570000000  0.5227340000000  0.5126330000000 1.0
C      1  0.4576450000000  0.4750130000000  0.4564780000000 1.0
C      1  0.4139380000000  0.5155840000000  0.4846290000000 1.0
C      1  0.4898370000000  0.4624260000000  0.5245000000000 1.0
C      1  0.4245600000000  0.5020650000000  0.5613370000000 1.0
C      1  0.5802020000000  0.4474950000000  0.4581810000000 1.0
C      1  0.5135860000000  0.5725460000000  0.4713490000000 1.0
C      1  0.5173470000000  0.5103640000000  0.6011120000000 1.0
C      1  0.5279090000000  0.4844860000000  0.6015010000000 1.0
C      1  0.5639400000000  0.4391930000000  0.5279020000000 1.0
C      1  0.4677440000000  0.5140920000000  0.4850480000000 1.0
C      1  0.4992100000000  0.5530330000000  0.5847130000000 1.0
C      1  0.4906600000000  0.4980950000000  0.4861340000000 1.0
C      1  0.4522980000000  0.5315820000000  0.5698430000000 1.0
C      1  0.4769840000000  0.4821930000000  0.5829180000000 1.0
C      1  0.4966110000000  0.4720530000000  0.5487660000000 1.0
C      1  0.4148610000000  0.4782530000000  0.4359880000000 1.0
C      1  0.4678180000000  0.4342010000000  0.4523790000000 1.0
C      1  0.4980120000000  0.4384910000000  0.4928400000000 1.0
C      1  0.5818880000000  0.5368490000000  0.4935460000000 1.0
C      1  0.4867360000000  0.5411700000000  0.5189960000000 1.0
C      1  0.4325880000000  0.5274570000000  0.5530830000000 1.0
C      1  0.4853010000000  0.5843540000000  0.4603610000000 1.0
C      1  0.5297840000000  0.5465940000000  0.4149830000000 1.0
C      1  0.4467770000000  0.4385330000000  0.4729470000000 1.0
C      1  0.4477910000000  0.4561530000000  0.5332540000000 1.0
C      1  0.5469680000000  0.5739020000000  0.5437140000000 1.0
C      1  0.5369020000000  0.5157060000000  0.4748370000000 1.0
C      1  0.4904290000000  0.5824890000000  0.4290230000000 1.0
C      1  0.5051750000000  0.5183070000000  0.5481320000000 1.0
C      1  0.5094610000000  0.4535960000000  0.5691010000000 1.0
C      1  0.4323180000000  0.5365780000000  0.5239470000000 1.0
C      1  0.5433550000000  0.5702580000000  0.5141280000000 1.0
C      1  0.5066070000000  0.4584500000000  0.4228970000000 1.0
C      1  0.5757960000000  0.5110710000000  0.4540510000000 1.0
C      1  0.4660040000000  0.4991440000000  0.5285080000000 1.0
C      1  0.4930840000000  0.4274860000000  0.5682420000000 1.0
C      1  0.4377730000000  0.5648630000000  0.5134940000000 1.0
C      1  0.3979070000000  0.4954150000000  0.5512900000000 1.0
C      1  0.4855860000000  0.5350130000000  0.4138140000000 1.0
C      1  0.5194460000000  0.5232380000000  0.4521940000000 1.0
C      1  0.5366980000000  0.4489190000000  0.5578600000000 1.0
C      1  0.5499850000000  0.4907130000000  0.5833010000000 1.0
C      1  0.5340750000000  0.5143500000000  0.5510110000000 1.0
C      1  0.5408550000000  0.4177350000000  0.4956510000000 1.0
C      1  0.5192070000000  0.4104440000000  0.5230980000000 1.0
C      1  0.5758030000000  0.4250820000000  0.4758190000000 1.0
C      1  0.4628410000000  0.5734680000000  0.4720190000000 1.0
C      1  0.4483040000000  0.4687450000000  0.4836430000000 1.0
C      1  0.4369890000000  0.4987030000000  0.4076100000000 1.0
C      1  0.4629560000000  0.5185940000000  0.4557210000000 1.0
C      1  0.5682890000000  0.4208720000000  0.5034960000000 1.0
C      1  0.4570490000000  0.4302740000000  0.5408650000000 1.0
C      1  0.3911670000000  0.5035850000000  0.5231260000000 1.0
C      1  0.4949650000000  0.4126180000000  0.5054480000000 1.0
C      1  0.4074280000000  0.5247820000000  0.5107120000000 1.0
C      1  0.4362870000000  0.4725510000000  0.5557760000000 1.0
C      1  0.5363010000000  0.4379680000000  0.4758830000000 1.0
C      1  0.4832820000000  0.4969010000000  0.5521430000000 1.0
C      1  0.4981410000000  0.5767420000000  0.5655120000000 1.0
C      1  0.5025350000000  0.4804690000000  0.4655000000000 1.0
C      1  0.4980450000000  0.5093170000000  0.4082400000000 1.0
C      1  0.5023750000000  0.5456070000000  0.4591690000000 1.0
C      1  0.4770210000000  0.4114400000000  0.5289070000000 1.0
C      1  0.5779760000000  0.4660190000000  0.4826130000000 1.0
C      1  0.5922170000000  0.4832680000000  0.5284860000000 1.0
C      1  0.5538360000000  0.4921740000000  0.5081020000000 1.0
C      1  0.5684430000000  0.4896720000000  0.4344390000000 1.0
C      1  0.4404270000000  0.5624670000000  0.4838980000000 1.0
C      1  0.4713920000000  0.5982330000000  0.4240150000000 1.0
C      1  0.4654850000000  0.4356350000000  0.5688930000000 1.0
C      1  0.5090050000000  0.5026600000000  0.5058300000000 1.0
C      1  0.4828480000000  0.5827870000000  0.5380660000000 1.0
C      1  0.4997530000000  0.4089430000000  0.5469900000000 1.0
C      1  0.5493140000000  0.5196030000000  0.5762840000000 1.0
C      1  0.5692940000000  0.5528850000000  0.5426450000000 1.0
C      1  0.4745860000000  0.5415320000000  0.5782900000000 1.0
C      1  0.5744220000000  0.5289910000000  0.5584950000000 1.0
C      1  0.4790160000000  0.5404860000000  0.4422020000000 1.0
C      1  0.4573110000000  0.5775160000000  0.5293310000000 1.0
C      1  0.5034740000000  0.5581110000000  0.4125840000000 1.0
C      1  0.5899470000000  0.5081440000000  0.5452780000000 1.0
C      1  0.5355020000000  0.4369000000000  0.5325520000000 1.0
C      1  0.4566730000000  0.4625390000000  0.5769370000000 1.0
C      1  0.5234090000000  0.5744200000000  0.5582880000000 1.0
C      1  0.5439940000000  0.4915590000000  0.4176090000000 1.0
C      1  0.5323500000000  0.4859700000000  0.4673090000000 1.0
C      1  0.4248390000000  0.5384180000000  0.4709820000000 1.0
C      1  0.4640540000000  0.4734940000000  0.5147730000000 1.0
C      1  0.5088430000000  0.5251570000000  0.5218300000000 1.0
C      1  0.5224390000000  0.5349880000000  0.5910920000000 1.0
C      1  0.5493660000000  0.5556600000000  0.4340440000000 1.0
C      1  0.5486850000000  0.4644400000000  0.4781430000000 1.0
C      1  0.4072000000000  0.4697510000000  0.5410680000000 1.0
C      1  0.5929350000000  0.4858120000000  0.4981600000000 1.0
C      1  0.5020050000000  0.4725860000000  0.5939010000000 1.0
C      1  0.4422480000000  0.4668470000000  0.4323100000000 1.0
C      1  0.5728560000000  0.5387200000000  0.4465940000000 1.0
C      1  0.5405780000000  0.5754100000000  0.4545590000000 1.0
C      1  0.4563230000000  0.4786670000000  0.4091070000000 1.0
C      1  0.5181700000000  0.5728210000000  0.5005710000000 1.0
C      1  0.5669040000000  0.5518630000000  0.5134970000000 1.0
C      1  0.5845720000000  0.5538430000000  0.4696370000000 1.0
C      1  0.4334820000000  0.5245510000000  0.4474650000000 1.0
C      1  0.4052240000000  0.4685110000000  0.4622230000000 1.0
C      1  0.5507720000000  0.4957150000000  0.5364810000000 1.0
C      1  0.4872070000000  0.4826220000000  0.4159490000000 1.0
C      1  0.5270390000000  0.4821840000000  0.5070580000000 1.0
C      1  0.5558500000000  0.4715920000000  0.5597340000000 1.0
C      1  0.4173780000000  0.4824210000000  0.4864710000000 1.0
C      1  0.4942880000000  0.5688710000000  0.5146500000000 1.0
C      1  0.5656560000000  0.5746550000000  0.4664860000000 1.0
C      1  0.4805480000000  0.4895330000000  0.4471650000000 1.0
C      1  0.5082460000000  0.4456520000000  0.4666310000000 1.0
C      1  0.5247260000000  0.5158920000000  0.4192440000000 1.0
C      1  0.4938880000000  0.4381490000000  0.4403960000000 1.0
END
