TITL C-4164245-3996-586 118.92153537414 125000 -25829.1552674294 0 0 173 (C1) n - 1
REM
REM in /home/nfs/bkarasulu/CARBON/AIRSS/Generating-Clusters/ReaxFF-fromJPCA2015/Units_Real/with-SteepDescent/Only-C1/SD-CG/Try1-3A/FIRE-CG
REM
REM
REM
REM
REM
REM ./C.cell (11c1c37f851c82e70ff6c80c92926a4b)
REM
REM compiler GCC version 9.2.1 20190827 (Red Hat 9.2.1-1)
REM options -cpp -mtune=generic -march=x86-64 -g -O0 -fpre-include=/usr/include/finclude/math-vector-fortran.h
REM seed -1238968766 1182435143 1650467636 -1890609049 1246251565 135974494 -1739880194 -828221702 -609008210 -1778220855 -1751647414 -1217351448 -30045626 -864203449 -962878457 946104448 306253161 -1402219034 783778376 -1797800868 623266518 1436190970 -130902488 272662058 2105477049 43144932 -157572391 -1817224976 -192679692 283998071 208152608 154533778 -90267460
REM
CELL 1.54180   50.00000   50.00000   50.00000   90.00000   90.00000   90.00000
LATT -1
SFAC C  
C      1  0.4319200000000  0.4196560000000  0.4894980000000 1.0
C      1  0.4258750000000  0.4980900000000  0.5654610000000 1.0
C      1  0.4435390000000  0.5318240000000  0.4975770000000 1.0
C      1  0.4323690000000  0.5807220000000  0.4931390000000 1.0
C      1  0.5637520000000  0.5296690000000  0.4482150000000 1.0
C      1  0.4192110000000  0.5375080000000  0.4315790000000 1.0
C      1  0.4463290000000  0.5251380000000  0.4700260000000 1.0
C      1  0.4773050000000  0.5511210000000  0.5371850000000 1.0
C      1  0.5449650000000  0.5700130000000  0.5713120000000 1.0
C      1  0.4655650000000  0.4674430000000  0.5843120000000 1.0
C      1  0.5045220000000  0.5534640000000  0.4065320000000 1.0
C      1  0.4727680000000  0.4762820000000  0.5160650000000 1.0
C      1  0.5056840000000  0.4762890000000  0.4304710000000 1.0
C      1  0.5883360000000  0.5844230000000  0.4763260000000 1.0
C      1  0.4366390000000  0.5404700000000  0.5829040000000 1.0
C      1  0.5547970000000  0.5186740000000  0.3994580000000 1.0
C      1  0.4837950000000  0.5964740000000  0.5484420000000 1.0
C      1  0.5948600000000  0.5464160000000  0.5294570000000 1.0
C      1  0.5334980000000  0.5578350000000  0.4162690000000 1.0
C      1  0.4286020000000  0.5733700000000  0.4650250000000 1.0
C      1  0.4915500000000  0.5981390000000  0.4595040000000 1.0
C      1  0.4933480000000  0.5421600000000  0.4628450000000 1.0
C      1  0.5549410000000  0.4610370000000  0.4748410000000 1.0
C      1  0.5738790000000  0.4888070000000  0.4682300000000 1.0
C      1  0.5096390000000  0.5972570000000  0.5058160000000 1.0
C      1  0.4753250000000  0.4717560000000  0.3923180000000 1.0
C      1  0.4660390000000  0.5174910000000  0.4019630000000 1.0
C      1  0.5277210000000  0.4694790000000  0.4770330000000 1.0
C      1  0.4226940000000  0.4641770000000  0.4422410000000 1.0
C      1  0.5936890000000  0.5232040000000  0.5483430000000 1.0
C      1  0.5650960000000  0.4686930000000  0.5028270000000 1.0
C      1  0.5131380000000  0.5662430000000  0.5011840000000 1.0
C      1  0.4992220000000  0.4369870000000  0.4754550000000 1.0
C      1  0.4492340000000  0.4135070000000  0.5436500000000 1.0
C      1  0.4576280000000  0.4987260000000  0.4696080000000 1.0
C      1  0.5608700000000  0.5924420000000  0.4684680000000 1.0
C      1  0.4443640000000  0.5252960000000  0.6056700000000 1.0
C      1  0.4627520000000  0.4632610000000  0.4510530000000 1.0
C      1  0.4706100000000  0.5422700000000  0.5084090000000 1.0
C      1  0.4396340000000  0.5840000000000  0.5374900000000 1.0
C      1  0.4100920000000  0.4756790000000  0.4715900000000 1.0
C      1  0.5341530000000  0.5948000000000  0.4572430000000 1.0
C      1  0.5557610000000  0.5391830000000  0.4206640000000 1.0
C      1  0.5520080000000  0.4676170000000  0.4073360000000 1.0
C      1  0.5542790000000  0.5426800000000  0.5653250000000 1.0
C      1  0.5053710000000  0.4783220000000  0.6099720000000 1.0
C      1  0.4514960000000  0.4926620000000  0.5279640000000 1.0
C      1  0.4562890000000  0.4287630000000  0.5031000000000 1.0
C      1  0.6010440000000  0.5365710000000  0.5030770000000 1.0
C      1  0.5462460000000  0.4568240000000  0.6002970000000 1.0
C      1  0.5509580000000  0.4037760000000  0.5235670000000 1.0
C      1  0.4308900000000  0.4838470000000  0.4216670000000 1.0
C      1  0.5254140000000  0.4989950000000  0.5988840000000 1.0
C      1  0.5354020000000  0.5920940000000  0.5505300000000 1.0
C      1  0.4535800000000  0.5019520000000  0.5553570000000 1.0
C      1  0.4910840000000  0.5305620000000  0.3920560000000 1.0
C      1  0.5717500000000  0.4683690000000  0.5648410000000 1.0
C      1  0.5123610000000  0.6048820000000  0.4750800000000 1.0
C      1  0.4743560000000  0.4508730000000  0.4746120000000 1.0
C      1  0.4905410000000  0.5556070000000  0.4852990000000 1.0
C      1  0.5922330000000  0.5535650000000  0.4804620000000 1.0
C      1  0.3945620000000  0.5434740000000  0.4985550000000 1.0
C      1  0.5030970000000  0.4798020000000  0.3832820000000 1.0
C      1  0.5192020000000  0.5733240000000  0.5847180000000 1.0
C      1  0.4385450000000  0.4827010000000  0.4860200000000 1.0
C      1  0.4065690000000  0.5401380000000  0.5436620000000 1.0
C      1  0.4137150000000  0.4737720000000  0.5554050000000 1.0
C      1  0.4160930000000  0.5095160000000  0.4235480000000 1.0
C      1  0.5245760000000  0.5808560000000  0.4320640000000 1.0
C      1  0.5365620000000  0.5965120000000  0.5219000000000 1.0
C      1  0.5176280000000  0.4533350000000  0.6039410000000 1.0
C      1  0.5266080000000  0.4959580000000  0.4614180000000 1.0
C      1  0.5752820000000  0.5684570000000  0.5295870000000 1.0
C      1  0.4481780000000  0.5430590000000  0.4422940000000 1.0
C      1  0.4653120000000  0.5076580000000  0.6189500000000 1.0
C      1  0.4163050000000  0.5264280000000  0.5668860000000 1.0
C      1  0.5718350000000  0.4105660000000  0.5032540000000 1.0
C      1  0.4556650000000  0.4901630000000  0.4037160000000 1.0
C      1  0.4155170000000  0.4357750000000  0.5091440000000 1.0
C      1  0.5010170000000  0.4971160000000  0.5509530000000 1.0
C      1  0.4884240000000  0.5174670000000  0.5099980000000 1.0
C      1  0.5060320000000  0.4496550000000  0.4120570000000 1.0
C      1  0.5538730000000  0.5493810000000  0.5368670000000 1.0
C      1  0.5882330000000  0.4347510000000  0.4977830000000 1.0
C      1  0.3987160000000  0.5021040000000  0.4691850000000 1.0
C      1  0.5903430000000  0.4369400000000  0.4665480000000 1.0
C      1  0.5067450000000  0.5072530000000  0.4765940000000 1.0
C      1  0.4609760000000  0.5556240000000  0.5679070000000 1.0
C      1  0.5445410000000  0.4752660000000  0.5529340000000 1.0
C      1  0.6008010000000  0.4983070000000  0.5348510000000 1.0
C      1  0.5271550000000  0.5102500000000  0.4043320000000 1.0
C      1  0.5955630000000  0.4505870000000  0.5212220000000 1.0
C      1  0.4800650000000  0.5115850000000  0.5640510000000 1.0
C      1  0.5097230000000  0.5924990000000  0.5636310000000 1.0
C      1  0.5924710000000  0.4845920000000  0.4447980000000 1.0
C      1  0.5156450000000  0.5059430000000  0.4314580000000 1.0
C      1  0.5696480000000  0.4182860000000  0.4584790000000 1.0
C      1  0.5062670000000  0.5479250000000  0.5931230000000 1.0
C      1  0.5249770000000  0.4629760000000  0.3949390000000 1.0
C      1  0.5049710000000  0.4423500000000  0.5783350000000 1.0
C      1  0.5521290000000  0.5091500000000  0.4679330000000 1.0
C      1  0.4156100000000  0.5662340000000  0.5347500000000 1.0
C      1  0.5285230000000  0.3887200000000  0.5081100000000 1.0
C      1  0.5624640000000  0.4506520000000  0.4286180000000 1.0
C      1  0.5471590000000  0.4896200000000  0.5152680000000 1.0
C      1  0.5349940000000  0.3868830000000  0.4798130000000 1.0
C      1  0.4374660000000  0.4161950000000  0.4611290000000 1.0
C      1  0.5083650000000  0.5086970000000  0.3821840000000 1.0
C      1  0.5143900000000  0.4258460000000  0.4518690000000 1.0
C      1  0.3929560000000  0.4971650000000  0.5185590000000 1.0
C      1  0.4573850000000  0.3820650000000  0.4731290000000 1.0
C      1  0.5480780000000  0.4369650000000  0.4502390000000 1.0
C      1  0.5880300000000  0.4555530000000  0.4440300000000 1.0
C      1  0.4357690000000  0.5052040000000  0.5064140000000 1.0
C      1  0.4810340000000  0.5983080000000  0.5198130000000 1.0
C      1  0.4772150000000  0.4459200000000  0.4063650000000 1.0
C      1  0.4838930000000  0.5382170000000  0.5766070000000 1.0
C      1  0.6010740000000  0.5068870000000  0.5070260000000 1.0
C      1  0.4943530000000  0.4043510000000  0.4459460000000 1.0
C      1  0.4697370000000  0.5313470000000  0.4272220000000 1.0
C      1  0.4532710000000  0.5912480000000  0.5124700000000 1.0
C      1  0.4706230000000  0.4145290000000  0.5236710000000 1.0
C      1  0.5438800000000  0.5138020000000  0.4992720000000 1.0
C      1  0.5149970000000  0.5208610000000  0.4987450000000 1.0
C      1  0.5752460000000  0.5215940000000  0.5709910000000 1.0
C      1  0.5676980000000  0.4929710000000  0.4067110000000 1.0
C      1  0.5870360000000  0.4862900000000  0.4933260000000 1.0
C      1  0.4102400000000  0.5512550000000  0.4551040000000 1.0
C      1  0.3958790000000  0.5315060000000  0.4719430000000 1.0
C      1  0.4910550000000  0.5190570000000  0.6199920000000 1.0
C      1  0.3919960000000  0.5250220000000  0.5213690000000 1.0
C      1  0.5084950000000  0.4479990000000  0.5244210000000 1.0
C      1  0.4256310000000  0.4295140000000  0.5369760000000 1.0
C      1  0.4853190000000  0.4730480000000  0.4420710000000 1.0
C      1  0.5269510000000  0.4971390000000  0.5621160000000 1.0
C      1  0.4035750000000  0.4608020000000  0.5021070000000 1.0
C      1  0.4933640000000  0.4707070000000  0.5387290000000 1.0
C      1  0.5580630000000  0.4424870000000  0.5780170000000 1.0
C      1  0.5657640000000  0.5501410000000  0.4700620000000 1.0
C      1  0.4822430000000  0.4971750000000  0.4889590000000 1.0
C      1  0.4099090000000  0.5673600000000  0.5064090000000 1.0
C      1  0.5470400000000  0.5604230000000  0.4916330000000 1.0
C      1  0.4970820000000  0.5779510000000  0.4214140000000 1.0
C      1  0.4744680000000  0.5880760000000  0.4402040000000 1.0
C      1  0.5806730000000  0.5054270000000  0.4293610000000 1.0
C      1  0.4591810000000  0.5842900000000  0.5592230000000 1.0
C      1  0.4567850000000  0.4438160000000  0.4272040000000 1.0
C      1  0.5459110000000  0.4173600000000  0.5472140000000 1.0
C      1  0.4950860000000  0.5283340000000  0.4399480000000 1.0
C      1  0.5185320000000  0.3944180000000  0.4555610000000 1.0
C      1  0.4645280000000  0.4208080000000  0.5675850000000 1.0
C      1  0.4640550000000  0.3999300000000  0.4566310000000 1.0
C      1  0.5039910000000  0.5569920000000  0.5298330000000 1.0
C      1  0.5346350000000  0.4284770000000  0.5678830000000 1.0
C      1  0.4874640000000  0.4617600000000  0.5660940000000 1.0
C      1  0.5939860000000  0.4702980000000  0.5418740000000 1.0
C      1  0.3974460000000  0.4729000000000  0.5281700000000 1.0
C      1  0.4599930000000  0.4576720000000  0.4976190000000 1.0
C      1  0.4940840000000  0.4198220000000  0.5637300000000 1.0
C      1  0.4496900000000  0.4437270000000  0.5775930000000 1.0
C      1  0.4964810000000  0.4238130000000  0.5346520000000 1.0
C      1  0.4315120000000  0.4366030000000  0.4398030000000 1.0
C      1  0.5450870000000  0.4972060000000  0.5406990000000 1.0
C      1  0.5524200000000  0.4863100000000  0.6012770000000 1.0
C      1  0.5589430000000  0.5827100000000  0.5094610000000 1.0
C      1  0.5722320000000  0.4947490000000  0.5826060000000 1.0
C      1  0.4759920000000  0.4813960000000  0.6084560000000 1.0
C      1  0.5491480000000  0.5385980000000  0.5108890000000 1.0
C      1  0.5138330000000  0.4517070000000  0.4962160000000 1.0
C      1  0.5165210000000  0.5259840000000  0.6104680000000 1.0
C      1  0.5627000000000  0.3986070000000  0.4790650000000 1.0
C      1  0.4261670000000  0.4482860000000  0.5593750000000 1.0
C      1  0.4500280000000  0.5732840000000  0.4462620000000 1.0
END
