TITL C-4164247-2821-754 83.8032229252712 125000 -28024.9263572726 0 0 190 (C1) n - 1
REM
REM in /home/nfs/bkarasulu/CARBON/AIRSS/Generating-Clusters/ReaxFF-fromJPCA2015/Units_Real/with-SteepDescent/Only-C1/SD-CG/Try1-3A/FIRE-CG
REM
REM
REM
REM
REM
REM ./C.cell (11c1c37f851c82e70ff6c80c92926a4b)
REM
REM compiler GCC version 9.2.1 20190827 (Red Hat 9.2.1-1)
REM options -cpp -mtune=generic -march=x86-64 -g -O0 -fpre-include=/usr/include/finclude/math-vector-fortran.h
REM seed 64679721 1380676430 -1547023768 965619309 1346040520 1417294879 962723464 -1930527397 -1513307761 -1890153406 -1680778982 2114930602 -872310937 -1815092575 1498900275 314259135 -1059689672 -444120597 377929979 -1184691623 586227645 1403922270 699715692 -1891623770 1899100279 1528188839 -560439786 1292838703 218917381 1861740168 1016659336 1674747319 1636883529
REM
CELL 1.54180   50.00000   50.00000   50.00000   90.00000   90.00000   90.00000
LATT -1
SFAC C  
C      1  0.4443530000000  0.3899680000000  0.5017490000000 1.0
C      1  0.5225710000000  0.4660450000000  0.5268340000000 1.0
C      1  0.4250310000000  0.5288360000000  0.5746380000000 1.0
C      1  0.5126420000000  0.5847500000000  0.5803930000000 1.0
C      1  0.5096350000000  0.5188460000000  0.4516700000000 1.0
C      1  0.5446470000000  0.5465920000000  0.5053010000000 1.0
C      1  0.4684630000000  0.6022620000000  0.5286350000000 1.0
C      1  0.4741580000000  0.5158610000000  0.5351540000000 1.0
C      1  0.4680520000000  0.5210320000000  0.5993760000000 1.0
C      1  0.5229370000000  0.5411980000000  0.5677650000000 1.0
C      1  0.5478420000000  0.5732940000000  0.4480930000000 1.0
C      1  0.4137310000000  0.5770360000000  0.4827860000000 1.0
C      1  0.5589460000000  0.5790540000000  0.5552410000000 1.0
C      1  0.3898800000000  0.4457410000000  0.5023050000000 1.0
C      1  0.5177350000000  0.3917990000000  0.5284990000000 1.0
C      1  0.4647520000000  0.4370610000000  0.4744480000000 1.0
C      1  0.4045200000000  0.4997570000000  0.5567630000000 1.0
C      1  0.4095290000000  0.4417220000000  0.4532190000000 1.0
C      1  0.5942270000000  0.4916910000000  0.5742120000000 1.0
C      1  0.4541480000000  0.5667600000000  0.4888390000000 1.0
C      1  0.4365870000000  0.5554950000000  0.5105580000000 1.0
C      1  0.5748520000000  0.5322860000000  0.4574160000000 1.0
C      1  0.4559640000000  0.4096470000000  0.5498070000000 1.0
C      1  0.5113130000000  0.5636990000000  0.5983720000000 1.0
C      1  0.4274810000000  0.4215010000000  0.5533590000000 1.0
C      1  0.5482950000000  0.4795910000000  0.4709810000000 1.0
C      1  0.5336370000000  0.4916210000000  0.5710240000000 1.0
C      1  0.5932120000000  0.4615670000000  0.4516460000000 1.0
C      1  0.4885430000000  0.4441510000000  0.4896560000000 1.0
C      1  0.5651360000000  0.5119750000000  0.4221230000000 1.0
C      1  0.4512520000000  0.5166940000000  0.4953380000000 1.0
C      1  0.4223680000000  0.5431270000000  0.4117100000000 1.0
C      1  0.6048020000000  0.5412490000000  0.4886900000000 1.0
C      1  0.5473180000000  0.4438100000000  0.5795550000000 1.0
C      1  0.5575580000000  0.5011860000000  0.5492330000000 1.0
C      1  0.4764720000000  0.5235350000000  0.5056880000000 1.0
C      1  0.4745130000000  0.4446650000000  0.4113640000000 1.0
C      1  0.4932050000000  0.4895410000000  0.3880720000000 1.0
C      1  0.5531500000000  0.5182240000000  0.5025240000000 1.0
C      1  0.6075430000000  0.5253700000000  0.5340040000000 1.0
C      1  0.5049050000000  0.4915730000000  0.4897130000000 1.0
C      1  0.4684410000000  0.4765120000000  0.4006870000000 1.0
C      1  0.4212760000000  0.5009930000000  0.5770730000000 1.0
C      1  0.4675260000000  0.5568600000000  0.3983050000000 1.0
C      1  0.5151640000000  0.6033420000000  0.5581300000000 1.0
C      1  0.4923430000000  0.5417950000000  0.3951910000000 1.0
C      1  0.4559920000000  0.3846610000000  0.5267590000000 1.0
C      1  0.5084040000000  0.4269570000000  0.4376160000000 1.0
C      1  0.4069590000000  0.5366280000000  0.4490980000000 1.0
C      1  0.5215330000000  0.4316130000000  0.5870600000000 1.0
C      1  0.5187960000000  0.6074920000000  0.4980420000000 1.0
C      1  0.5496630000000  0.5454220000000  0.4555100000000 1.0
C      1  0.5919390000000  0.5122000000000  0.4431610000000 1.0
C      1  0.5284170000000  0.4778660000000  0.4266670000000 1.0
C      1  0.5517600000000  0.4238740000000  0.5583120000000 1.0
C      1  0.5107030000000  0.5445960000000  0.5440280000000 1.0
C      1  0.5185820000000  0.4491960000000  0.3863950000000 1.0
C      1  0.3941990000000  0.4849060000000  0.5356110000000 1.0
C      1  0.5865490000000  0.5764320000000  0.5473510000000 1.0
C      1  0.4628270000000  0.4266850000000  0.5252770000000 1.0
C      1  0.4799520000000  0.5584040000000  0.4774460000000 1.0
C      1  0.4791660000000  0.5863120000000  0.4347210000000 1.0
C      1  0.5066740000000  0.4117270000000  0.5705760000000 1.0
C      1  0.4256960000000  0.4881240000000  0.4262180000000 1.0
C      1  0.4443310000000  0.5177920000000  0.4673000000000 1.0
C      1  0.4899010000000  0.6093720000000  0.5451810000000 1.0
C      1  0.5219430000000  0.5471200000000  0.4113390000000 1.0
C      1  0.4116030000000  0.5198890000000  0.4266860000000 1.0
C      1  0.5394860000000  0.4306540000000  0.3978950000000 1.0
C      1  0.4698580000000  0.5208640000000  0.4562710000000 1.0
C      1  0.4518590000000  0.4365350000000  0.4305960000000 1.0
C      1  0.5203120000000  0.5193860000000  0.5865890000000 1.0
C      1  0.4896570000000  0.5649150000000  0.4513710000000 1.0
C      1  0.5402100000000  0.5980010000000  0.5417100000000 1.0
C      1  0.5296980000000  0.5748720000000  0.4240730000000 1.0
C      1  0.5465970000000  0.4716980000000  0.5152100000000 1.0
C      1  0.5044610000000  0.3966480000000  0.5044190000000 1.0
C      1  0.5850520000000  0.5320140000000  0.5777500000000 1.0
C      1  0.5886020000000  0.5488830000000  0.5316110000000 1.0
C      1  0.5434840000000  0.6040950000000  0.5135410000000 1.0
C      1  0.5581030000000  0.4169270000000  0.5122460000000 1.0
C      1  0.5138520000000  0.4378750000000  0.5295280000000 1.0
C      1  0.4526250000000  0.5134950000000  0.3868420000000 1.0
C      1  0.4840880000000  0.5775880000000  0.5209240000000 1.0
C      1  0.5611430000000  0.4630570000000  0.4918100000000 1.0
C      1  0.4439910000000  0.4020100000000  0.4700600000000 1.0
C      1  0.5634670000000  0.4207570000000  0.4633130000000 1.0
C      1  0.4412110000000  0.5540630000000  0.5390590000000 1.0
C      1  0.4913830000000  0.4225930000000  0.5121020000000 1.0
C      1  0.5140950000000  0.5196800000000  0.6175020000000 1.0
C      1  0.4369430000000  0.4171500000000  0.5091150000000 1.0
C      1  0.4724260000000  0.4351830000000  0.5900900000000 1.0
C      1  0.4872860000000  0.5579660000000  0.5405850000000 1.0
C      1  0.4990560000000  0.4467640000000  0.5980550000000 1.0
C      1  0.5164040000000  0.4761230000000  0.3992320000000 1.0
C      1  0.6049610000000  0.5164920000000  0.5621670000000 1.0
C      1  0.4175130000000  0.5490650000000  0.5547200000000 1.0
C      1  0.5268190000000  0.4676120000000  0.4554530000000 1.0
C      1  0.6113740000000  0.5181970000000  0.5058360000000 1.0
C      1  0.5833760000000  0.5767840000000  0.4870780000000 1.0
C      1  0.4960370000000  0.4079970000000  0.4554740000000 1.0
C      1  0.5624120000000  0.5233250000000  0.5940690000000 1.0
C      1  0.4106440000000  0.4775500000000  0.4863730000000 1.0
C      1  0.4912470000000  0.5023250000000  0.4658340000000 1.0
C      1  0.4074830000000  0.5591620000000  0.5066710000000 1.0
C      1  0.5294950000000  0.5284130000000  0.4681000000000 1.0
C      1  0.5181860000000  0.5566100000000  0.4949900000000 1.0
C      1  0.5651910000000  0.5885920000000  0.4663530000000 1.0
C      1  0.5333100000000  0.5379630000000  0.6059470000000 1.0
C      1  0.4942590000000  0.4980140000000  0.5432630000000 1.0
C      1  0.5141050000000  0.3970440000000  0.4750340000000 1.0
C      1  0.5443790000000  0.5292240000000  0.4165060000000 1.0
C      1  0.4307270000000  0.5649350000000  0.4302200000000 1.0
C      1  0.5802160000000  0.4812310000000  0.5511550000000 1.0
C      1  0.5357880000000  0.4274920000000  0.5209660000000 1.0
C      1  0.4082730000000  0.4928600000000  0.5109390000000 1.0
C      1  0.5991130000000  0.4880750000000  0.4606970000000 1.0
C      1  0.5928490000000  0.4352670000000  0.4672590000000 1.0
C      1  0.3961370000000  0.5553250000000  0.5335880000000 1.0
C      1  0.4953740000000  0.4750530000000  0.5924690000000 1.0
C      1  0.4654570000000  0.5455750000000  0.5522190000000 1.0
C      1  0.4743170000000  0.4925500000000  0.4253430000000 1.0
C      1  0.4297750000000  0.4961980000000  0.4546330000000 1.0
C      1  0.5944590000000  0.4367670000000  0.5247900000000 1.0
C      1  0.5639430000000  0.4398360000000  0.4122750000000 1.0
C      1  0.3949500000000  0.4548900000000  0.4772570000000 1.0
C      1  0.5950420000000  0.4660550000000  0.5310280000000 1.0
C      1  0.4335550000000  0.5060780000000  0.5150910000000 1.0
C      1  0.4697560000000  0.4757570000000  0.6078900000000 1.0
C      1  0.4377770000000  0.4780800000000  0.4751210000000 1.0
C      1  0.4920730000000  0.6317580000000  0.4748210000000 1.0
C      1  0.4157750000000  0.5617610000000  0.4562510000000 1.0
C      1  0.4799250000000  0.4744270000000  0.4478750000000 1.0
C      1  0.5826170000000  0.5531620000000  0.5022160000000 1.0
C      1  0.5764990000000  0.4617630000000  0.4267100000000 1.0
C      1  0.4502150000000  0.5002770000000  0.5369390000000 1.0
C      1  0.4637740000000  0.5016640000000  0.6204990000000 1.0
C      1  0.4798690000000  0.4651170000000  0.5080960000000 1.0
C      1  0.4774170000000  0.4146400000000  0.5704750000000 1.0
C      1  0.5461840000000  0.4988790000000  0.5221930000000 1.0
C      1  0.4512710000000  0.4734250000000  0.5474870000000 1.0
C      1  0.5197960000000  0.6223720000000  0.4708920000000 1.0
C      1  0.4169220000000  0.4468520000000  0.5610480000000 1.0
C      1  0.5079000000000  0.4659210000000  0.4783810000000 1.0
C      1  0.4626290000000  0.4559790000000  0.5287120000000 1.0
C      1  0.4991090000000  0.5394450000000  0.4352920000000 1.0
C      1  0.5054520000000  0.5815690000000  0.5015740000000 1.0
C      1  0.4861360000000  0.5205390000000  0.6239040000000 1.0
C      1  0.4660030000000  0.6311470000000  0.4890560000000 1.0
C      1  0.4145950000000  0.4177620000000  0.5280640000000 1.0
C      1  0.4347290000000  0.4684730000000  0.5730520000000 1.0
C      1  0.5330640000000  0.5412730000000  0.5296890000000 1.0
C      1  0.5913440000000  0.4731950000000  0.5032320000000 1.0
C      1  0.5277430000000  0.4031120000000  0.5526530000000 1.0
C      1  0.5427460000000  0.4007300000000  0.4670570000000 1.0
C      1  0.5700290000000  0.4949710000000  0.5924600000000 1.0
C      1  0.4439170000000  0.5402530000000  0.3916240000000 1.0
C      1  0.6056700000000  0.4936660000000  0.4892190000000 1.0
C      1  0.4831290000000  0.5164960000000  0.3845160000000 1.0
C      1  0.3918300000000  0.4351530000000  0.5231300000000 1.0
C      1  0.5504060000000  0.4731150000000  0.5865680000000 1.0
C      1  0.4974990000000  0.4309430000000  0.3950230000000 1.0
C      1  0.4528410000000  0.4564000000000  0.5940930000000 1.0
C      1  0.5047560000000  0.4866650000000  0.5672460000000 1.0
C      1  0.4578940000000  0.4624730000000  0.4645930000000 1.0
C      1  0.4608360000000  0.5452500000000  0.5842020000000 1.0
C      1  0.4568140000000  0.5741520000000  0.4200890000000 1.0
C      1  0.4837400000000  0.5595350000000  0.5938730000000 1.0
C      1  0.4747870000000  0.5214540000000  0.4273360000000 1.0
C      1  0.4389240000000  0.5920000000000  0.4870080000000 1.0
C      1  0.4950450000000  0.4527590000000  0.4325860000000 1.0
C      1  0.5999010000000  0.4323820000000  0.4953160000000 1.0
C      1  0.5007640000000  0.4841210000000  0.5184340000000 1.0
C      1  0.5580800000000  0.4342750000000  0.4877130000000 1.0
C      1  0.5467530000000  0.5067270000000  0.4777820000000 1.0
C      1  0.6025510000000  0.5358540000000  0.4598870000000 1.0
C      1  0.4657890000000  0.4163320000000  0.4538950000000 1.0
C      1  0.4511880000000  0.6115600000000  0.5053240000000 1.0
C      1  0.5066390000000  0.5930430000000  0.4230050000000 1.0
C      1  0.5497560000000  0.5512930000000  0.5668180000000 1.0
C      1  0.4291500000000  0.4532770000000  0.4346460000000 1.0
C      1  0.5568880000000  0.4844400000000  0.4218120000000 1.0
C      1  0.5164790000000  0.4159850000000  0.4110080000000 1.0
C      1  0.4410690000000  0.4907830000000  0.4010960000000 1.0
C      1  0.4252290000000  0.4206520000000  0.4612890000000 1.0
C      1  0.5652250000000  0.5985510000000  0.4937090000000 1.0
C      1  0.4970150000000  0.5373820000000  0.4896420000000 1.0
C      1  0.5723870000000  0.4220920000000  0.5381240000000 1.0
C      1  0.5674370000000  0.5325010000000  0.5534900000000 1.0
C      1  0.3959060000000  0.4554570000000  0.5424720000000 1.0
END
