TITL C-4164242-3624-321 48.9772509273573 125000 -27313.6652229543 0 0 185 (C1) n - 1
REM
REM in /home/nfs/bkarasulu/CARBON/AIRSS/Generating-Clusters/ReaxFF-fromJPCA2015/Units_Real/with-SteepDescent/Only-C1/SD-CG/Try1-3A/FIRE-CG
REM
REM
REM
REM
REM
REM ./C.cell (11c1c37f851c82e70ff6c80c92926a4b)
REM
REM compiler GCC version 9.2.1 20190827 (Red Hat 9.2.1-1)
REM options -cpp -mtune=generic -march=x86-64 -g -O0 -fpre-include=/usr/include/finclude/math-vector-fortran.h
REM seed 1728147644 -45279392 -43350627 -2105439154 -2000051554 1779865624 -309415924 1934376103 355668665 -1110423423 -852355032 -938615536 -1196663006 1502483496 304322921 -1644722695 -1455735007 -1953067160 1826936156 -588890707 -1613645994 -1958311881 140006205 -1992000638 30842583 837811847 113694420 1141988132 -2096655074 904190274 -125925186 -1419848472 623486040
REM
CELL 1.54180   50.00000   50.00000   50.00000   90.00000   90.00000   90.00000
LATT -1
SFAC C  
C      1  0.6122990000000  0.5116100000000  0.4813590000000 1.0
C      1  0.4013200000000  0.5228390000000  0.4724400000000 1.0
C      1  0.5909770000000  0.4481230000000  0.4634610000000 1.0
C      1  0.4561430000000  0.6041050000000  0.4771810000000 1.0
C      1  0.5042470000000  0.5228680000000  0.4690950000000 1.0
C      1  0.5858820000000  0.5639390000000  0.4370400000000 1.0
C      1  0.5000320000000  0.5142540000000  0.6113070000000 1.0
C      1  0.5067350000000  0.5634010000000  0.5861690000000 1.0
C      1  0.5510680000000  0.4886700000000  0.5862670000000 1.0
C      1  0.5046710000000  0.4850250000000  0.6111090000000 1.0
C      1  0.4947060000000  0.4406560000000  0.5961360000000 1.0
C      1  0.5098050000000  0.6114120000000  0.4768800000000 1.0
C      1  0.3995960000000  0.4676130000000  0.5385730000000 1.0
C      1  0.5051530000000  0.4172550000000  0.5323720000000 1.0
C      1  0.4492160000000  0.5857970000000  0.4545870000000 1.0
C      1  0.5695830000000  0.4067440000000  0.4867740000000 1.0
C      1  0.5624870000000  0.4448460000000  0.4541660000000 1.0
C      1  0.5981420000000  0.4296260000000  0.5361760000000 1.0
C      1  0.5758620000000  0.5414420000000  0.4224130000000 1.0
C      1  0.5258070000000  0.4858670000000  0.4686260000000 1.0
C      1  0.4435020000000  0.5933840000000  0.5290250000000 1.0
C      1  0.4627750000000  0.5177050000000  0.4476730000000 1.0
C      1  0.4553080000000  0.5622870000000  0.4153090000000 1.0
C      1  0.4679520000000  0.4872570000000  0.5748390000000 1.0
C      1  0.4565800000000  0.4709040000000  0.5955610000000 1.0
C      1  0.5047440000000  0.5508820000000  0.4722150000000 1.0
C      1  0.5339400000000  0.4332690000000  0.5726730000000 1.0
C      1  0.4982500000000  0.4540520000000  0.4589250000000 1.0
C      1  0.4796610000000  0.5585320000000  0.5924200000000 1.0
C      1  0.4159220000000  0.4449290000000  0.4843290000000 1.0
C      1  0.5615170000000  0.5280980000000  0.5376290000000 1.0
C      1  0.4640420000000  0.5653800000000  0.5675450000000 1.0
C      1  0.3922170000000  0.4798920000000  0.5127070000000 1.0
C      1  0.6156840000000  0.4846430000000  0.4915270000000 1.0
C      1  0.5599180000000  0.4095340000000  0.5140540000000 1.0
C      1  0.4886500000000  0.5822340000000  0.5038690000000 1.0
C      1  0.4686090000000  0.5628970000000  0.4883470000000 1.0
C      1  0.4076930000000  0.5152460000000  0.5272870000000 1.0
C      1  0.4598500000000  0.5385320000000  0.4025910000000 1.0
C      1  0.4674890000000  0.3957910000000  0.5070060000000 1.0
C      1  0.4865300000000  0.4237180000000  0.5726890000000 1.0
C      1  0.5372570000000  0.5833490000000  0.4655330000000 1.0
C      1  0.3984480000000  0.4789150000000  0.4582360000000 1.0
C      1  0.4003140000000  0.5063760000000  0.4475880000000 1.0
C      1  0.4713390000000  0.4287820000000  0.4752060000000 1.0
C      1  0.5419960000000  0.5480500000000  0.5971390000000 1.0
C      1  0.5904650000000  0.4287500000000  0.4848040000000 1.0
C      1  0.5825610000000  0.5891470000000  0.4850770000000 1.0
C      1  0.5461560000000  0.4764670000000  0.4860460000000 1.0
C      1  0.5050790000000  0.4990410000000  0.4821240000000 1.0
C      1  0.5291520000000  0.6068200000000  0.4994150000000 1.0
C      1  0.4755630000000  0.4937090000000  0.4427860000000 1.0
C      1  0.4890010000000  0.5212250000000  0.5737960000000 1.0
C      1  0.5420960000000  0.4503920000000  0.5295600000000 1.0
C      1  0.5124350000000  0.4169550000000  0.5603720000000 1.0
C      1  0.3979410000000  0.4676880000000  0.4866260000000 1.0
C      1  0.5527350000000  0.5980420000000  0.4844400000000 1.0
C      1  0.4271130000000  0.5505050000000  0.5443500000000 1.0
C      1  0.4270010000000  0.5107120000000  0.4764410000000 1.0
C      1  0.4684430000000  0.3994470000000  0.4774740000000 1.0
C      1  0.5013340000000  0.4494780000000  0.4047240000000 1.0
C      1  0.4926020000000  0.3942120000000  0.4581150000000 1.0
C      1  0.4915050000000  0.5939950000000  0.5311930000000 1.0
C      1  0.5354040000000  0.5535390000000  0.4167710000000 1.0
C      1  0.4743080000000  0.4716600000000  0.4603430000000 1.0
C      1  0.5434900000000  0.4480860000000  0.4823290000000 1.0
C      1  0.4585270000000  0.4345420000000  0.4506500000000 1.0
C      1  0.4980420000000  0.4762480000000  0.3952610000000 1.0
C      1  0.5438960000000  0.5588970000000  0.4976740000000 1.0
C      1  0.4864400000000  0.4877830000000  0.5002990000000 1.0
C      1  0.4195770000000  0.5772040000000  0.5349790000000 1.0
C      1  0.5200910000000  0.3938700000000  0.4698600000000 1.0
C      1  0.5733610000000  0.5766200000000  0.5620090000000 1.0
C      1  0.3887780000000  0.5123600000000  0.5044370000000 1.0
C      1  0.5990630000000  0.4851780000000  0.5624230000000 1.0
C      1  0.4129420000000  0.4607830000000  0.4414820000000 1.0
C      1  0.4372180000000  0.4417250000000  0.5045390000000 1.0
C      1  0.5083430000000  0.4735950000000  0.5543790000000 1.0
C      1  0.5931290000000  0.5133390000000  0.5627950000000 1.0
C      1  0.4967820000000  0.5823480000000  0.4298920000000 1.0
C      1  0.4193240000000  0.4360010000000  0.4566430000000 1.0
C      1  0.5071310000000  0.4242630000000  0.4161480000000 1.0
C      1  0.4169470000000  0.5431840000000  0.4569020000000 1.0
C      1  0.4701520000000  0.4726800000000  0.3944660000000 1.0
C      1  0.5566630000000  0.4909350000000  0.4246960000000 1.0
C      1  0.3935830000000  0.5387650000000  0.5167680000000 1.0
C      1  0.5061560000000  0.5426220000000  0.5425910000000 1.0
C      1  0.4797470000000  0.5589680000000  0.4605820000000 1.0
C      1  0.5588900000000  0.5625730000000  0.5813170000000 1.0
C      1  0.4953050000000  0.4939680000000  0.5703720000000 1.0
C      1  0.4478290000000  0.4742110000000  0.4056760000000 1.0
C      1  0.4422700000000  0.5295310000000  0.4671550000000 1.0
C      1  0.5535210000000  0.4181130000000  0.4437660000000 1.0
C      1  0.4961030000000  0.3979270000000  0.5127370000000 1.0
C      1  0.4424270000000  0.5229240000000  0.5842440000000 1.0
C      1  0.4626160000000  0.4804180000000  0.4851990000000 1.0
C      1  0.4807040000000  0.5377580000000  0.5525510000000 1.0
C      1  0.4884130000000  0.4065180000000  0.4319780000000 1.0
C      1  0.5126770000000  0.4431140000000  0.4834280000000 1.0
C      1  0.5388600000000  0.4933300000000  0.5160290000000 1.0
C      1  0.4502370000000  0.5450200000000  0.4956360000000 1.0
C      1  0.5515890000000  0.5914820000000  0.5534090000000 1.0
C      1  0.5068120000000  0.5602580000000  0.4136750000000 1.0
C      1  0.5099170000000  0.5045370000000  0.4047460000000 1.0
C      1  0.4218310000000  0.4135860000000  0.5307300000000 1.0
C      1  0.4384710000000  0.5979850000000  0.4998200000000 1.0
C      1  0.5487190000000  0.4434220000000  0.4050900000000 1.0
C      1  0.5350340000000  0.5796850000000  0.5409230000000 1.0
C      1  0.5535760000000  0.5547670000000  0.5254490000000 1.0
C      1  0.6085070000000  0.4726680000000  0.4649790000000 1.0
C      1  0.5531830000000  0.5341250000000  0.4036950000000 1.0
C      1  0.5957650000000  0.5195700000000  0.5044060000000 1.0
C      1  0.4639090000000  0.4387200000000  0.5015740000000 1.0
C      1  0.5024500000000  0.4603770000000  0.5070190000000 1.0
C      1  0.4913770000000  0.5345190000000  0.4118290000000 1.0
C      1  0.4403100000000  0.4146470000000  0.4524730000000 1.0
C      1  0.4608190000000  0.4171190000000  0.5582010000000 1.0
C      1  0.5033200000000  0.4965520000000  0.4311090000000 1.0
C      1  0.4313220000000  0.4982700000000  0.5194500000000 1.0
C      1  0.4189670000000  0.5070060000000  0.4239650000000 1.0
C      1  0.4504500000000  0.4059480000000  0.5313380000000 1.0
C      1  0.5141060000000  0.5928310000000  0.4521940000000 1.0
C      1  0.4244010000000  0.4772050000000  0.4193960000000 1.0
C      1  0.4154880000000  0.4767910000000  0.5655650000000 1.0
C      1  0.5494470000000  0.4002160000000  0.4655900000000 1.0
C      1  0.5488430000000  0.4633190000000  0.4299150000000 1.0
C      1  0.5865770000000  0.5773070000000  0.4589980000000 1.0
C      1  0.5510560000000  0.5010390000000  0.5410920000000 1.0
C      1  0.5933560000000  0.4726780000000  0.5093090000000 1.0
C      1  0.5184300000000  0.5600770000000  0.5603690000000 1.0
C      1  0.4663340000000  0.5836750000000  0.4294870000000 1.0
C      1  0.4243020000000  0.5709820000000  0.4626070000000 1.0
C      1  0.5177460000000  0.5180420000000  0.4458260000000 1.0
C      1  0.5716970000000  0.4164110000000  0.5418230000000 1.0
C      1  0.5097970000000  0.5320510000000  0.5160820000000 1.0
C      1  0.5771920000000  0.5000890000000  0.5826780000000 1.0
C      1  0.5331610000000  0.5190240000000  0.5055390000000 1.0
C      1  0.5962710000000  0.4790630000000  0.5364440000000 1.0
C      1  0.4787410000000  0.5383310000000  0.4388250000000 1.0
C      1  0.4733730000000  0.5288420000000  0.5974080000000 1.0
C      1  0.4045130000000  0.5662890000000  0.5124090000000 1.0
C      1  0.4371370000000  0.5264600000000  0.4140710000000 1.0
C      1  0.5906030000000  0.5294860000000  0.5335510000000 1.0
C      1  0.4394300000000  0.5481500000000  0.5709310000000 1.0
C      1  0.4404050000000  0.4363560000000  0.5612940000000 1.0
C      1  0.4854030000000  0.4565380000000  0.5486440000000 1.0
C      1  0.5698340000000  0.4897610000000  0.4808480000000 1.0
C      1  0.4607200000000  0.4149780000000  0.4309660000000 1.0
C      1  0.4832520000000  0.6074690000000  0.4871050000000 1.0
C      1  0.5234530000000  0.4471290000000  0.5958780000000 1.0
C      1  0.4339270000000  0.4584870000000  0.5796890000000 1.0
C      1  0.4869280000000  0.4417180000000  0.5234440000000 1.0
C      1  0.5139950000000  0.5597400000000  0.4979980000000 1.0
C      1  0.4670960000000  0.5233360000000  0.5317070000000 1.0
C      1  0.4344090000000  0.4507250000000  0.5317930000000 1.0
C      1  0.4441930000000  0.5377840000000  0.5231840000000 1.0
C      1  0.4418340000000  0.4773800000000  0.5349310000000 1.0
C      1  0.4828310000000  0.4643700000000  0.6072740000000 1.0
C      1  0.5221640000000  0.5312920000000  0.6059250000000 1.0
C      1  0.4655970000000  0.4774900000000  0.5485770000000 1.0
C      1  0.5516390000000  0.4503160000000  0.5565160000000 1.0
C      1  0.4671390000000  0.5880140000000  0.5454650000000 1.0
C      1  0.5506130000000  0.5322190000000  0.4868680000000 1.0
C      1  0.4281600000000  0.5001670000000  0.5750710000000 1.0
C      1  0.4177050000000  0.5802540000000  0.4895240000000 1.0
C      1  0.5709840000000  0.5135130000000  0.4944450000000 1.0
C      1  0.5375610000000  0.4201910000000  0.4182570000000 1.0
C      1  0.4382910000000  0.4928180000000  0.4926830000000 1.0
C      1  0.5502040000000  0.4356860000000  0.5078670000000 1.0
C      1  0.5732950000000  0.5007530000000  0.4506330000000 1.0
C      1  0.4057840000000  0.4393060000000  0.5336070000000 1.0
C      1  0.5378380000000  0.5383900000000  0.4421980000000 1.0
C      1  0.5306910000000  0.4747510000000  0.6031410000000 1.0
C      1  0.5207950000000  0.5998150000000  0.5277450000000 1.0
C      1  0.5185010000000  0.4699770000000  0.4443730000000 1.0
C      1  0.5469190000000  0.4799160000000  0.5601290000000 1.0
C      1  0.5656750000000  0.5309250000000  0.4486180000000 1.0
C      1  0.5852310000000  0.5629970000000  0.5349370000000 1.0
C      1  0.6035120000000  0.4995990000000  0.4550020000000 1.0
C      1  0.5920630000000  0.5783900000000  0.5104910000000 1.0
C      1  0.5404020000000  0.5074780000000  0.4073260000000 1.0
C      1  0.4867060000000  0.5135860000000  0.5141710000000 1.0
C      1  0.5215300000000  0.4708470000000  0.5265580000000 1.0
C      1  0.5120320000000  0.4112600000000  0.4914140000000 1.0
C      1  0.5983170000000  0.4427580000000  0.5093150000000 1.0
END
