TITL C-4164241-3639-607 -0.73863175475225 125000 -8279.37203939656 0 0 57 (C1) n - 1
REM
REM in /home/nfs/bkarasulu/CARBON/AIRSS/Generating-Clusters/ReaxFF-fromJPCA2015/Units_Real/with-SteepDescent/Only-C1/SD-CG/Try1-3A/FIRE-CG
REM
REM
REM
REM
REM
REM ./C.cell (11c1c37f851c82e70ff6c80c92926a4b)
REM
REM compiler GCC version 9.2.1 20190827 (Red Hat 9.2.1-1)
REM options -cpp -mtune=generic -march=x86-64 -g -O0 -fpre-include=/usr/include/finclude/math-vector-fortran.h
REM seed -1298298513 -1953905453 -1776068562 -1762608652 1211968788 -1711520885 1374126941 767652132 2137695670 -1425047253 -179638554 2142800423 -1322321404 1703408540 -1479746947 -1567439120 -2117138527 596656993 1441194624 -520141963 -1770464482 -522500874 -1122540259 -1079081085 1850131564 60857031 -834367029 1459003878 1287350716 -18242431 -509483404 957564512 -1159370699
REM
CELL 1.54180   50.00000   50.00000   50.00000   90.00000   90.00000   90.00000
LATT -1
SFAC C  
C      1  0.4811010000000  0.5030710000000  0.5675560000000 1.0
C      1  0.4723470000000  0.5355240000000  0.4949040000000 1.0
C      1  0.4956320000000  0.5619700000000  0.5077170000000 1.0
C      1  0.5000230000000  0.4911970000000  0.4980020000000 1.0
C      1  0.5363890000000  0.4933160000000  0.5544010000000 1.0
C      1  0.4339090000000  0.5129940000000  0.5079280000000 1.0
C      1  0.4360640000000  0.5070580000000  0.4545240000000 1.0
C      1  0.4972660000000  0.5371400000000  0.4544380000000 1.0
C      1  0.5337550000000  0.5555590000000  0.4746930000000 1.0
C      1  0.5155610000000  0.5165890000000  0.4959420000000 1.0
C      1  0.5472000000000  0.5191550000000  0.5514060000000 1.0
C      1  0.4763390000000  0.4472810000000  0.4595080000000 1.0
C      1  0.5376950000000  0.5138690000000  0.4501340000000 1.0
C      1  0.4623960000000  0.5738290000000  0.4585850000000 1.0
C      1  0.5578000000000  0.4782120000000  0.4804840000000 1.0
C      1  0.5366020000000  0.4640230000000  0.4471810000000 1.0
C      1  0.4540160000000  0.4482600000000  0.4816390000000 1.0
C      1  0.4671900000000  0.4434310000000  0.5336780000000 1.0
C      1  0.5530060000000  0.4481580000000  0.4814520000000 1.0
C      1  0.5507980000000  0.4874510000000  0.4529820000000 1.0
C      1  0.4481580000000  0.5389320000000  0.5111590000000 1.0
C      1  0.4871870000000  0.5562200000000  0.5377340000000 1.0
C      1  0.5112840000000  0.5402070000000  0.5448940000000 1.0
C      1  0.5421980000000  0.5457610000000  0.5433270000000 1.0
C      1  0.5145990000000  0.5215930000000  0.5235910000000 1.0
C      1  0.4852350000000  0.4744250000000  0.5734130000000 1.0
C      1  0.5286640000000  0.4412360000000  0.4605810000000 1.0
C      1  0.5015350000000  0.4348420000000  0.4693200000000 1.0
C      1  0.4420880000000  0.4717480000000  0.4827030000000 1.0
C      1  0.4736710000000  0.4485720000000  0.5602340000000 1.0
C      1  0.5115670000000  0.5391930000000  0.4769110000000 1.0
C      1  0.4508820000000  0.5278350000000  0.4460130000000 1.0
C      1  0.5290850000000  0.5640990000000  0.5016330000000 1.0
C      1  0.4579620000000  0.5033790000000  0.4352240000000 1.0
C      1  0.5335530000000  0.4565540000000  0.5241060000000 1.0
C      1  0.4548930000000  0.4990250000000  0.5229440000000 1.0
C      1  0.5474260000000  0.4833450000000  0.5291060000000 1.0
C      1  0.4624790000000  0.5139330000000  0.5475190000000 1.0
C      1  0.4309260000000  0.4970720000000  0.4821730000000 1.0
C      1  0.5079110000000  0.4907650000000  0.5673980000000 1.0
C      1  0.4675100000000  0.4372850000000  0.5070410000000 1.0
C      1  0.4871730000000  0.4952640000000  0.4356720000000 1.0
C      1  0.4964190000000  0.4400310000000  0.4977500000000 1.0
C      1  0.5086030000000  0.4646140000000  0.5077780000000 1.0
C      1  0.4997570000000  0.4373590000000  0.5582170000000 1.0
C      1  0.5255770000000  0.4372140000000  0.5502800000000 1.0
C      1  0.5505520000000  0.5320610000000  0.4695660000000 1.0
C      1  0.5574060000000  0.5247120000000  0.4971190000000 1.0
C      1  0.4749940000000  0.5066280000000  0.5021600000000 1.0
C      1  0.4621670000000  0.5412790000000  0.5377420000000 1.0
C      1  0.5096770000000  0.5150260000000  0.4421280000000 1.0
C      1  0.4840770000000  0.5868340000000  0.5121190000000 1.0
C      1  0.5527210000000  0.4365500000000  0.5074650000000 1.0
C      1  0.5568890000000  0.4959350000000  0.5039290000000 1.0
C      1  0.4693290000000  0.5432290000000  0.4622010000000 1.0
C      1  0.4818050000000  0.4714880000000  0.4474830000000 1.0
C      1  0.5489530000000  0.5476680000000  0.5142150000000 1.0
END
