TITL C-4164239-2837-2 5.44614377802766 125000 -15459.501569205 0 0 104 (C1) n - 1
REM
REM in /home/nfs/bkarasulu/CARBON/AIRSS/Generating-Clusters/ReaxFF-fromJPCA2015/Units_Real/with-SteepDescent/Only-C1/SD-CG/Try1-3A/FIRE-CG
REM
REM
REM
REM
REM
REM ./C.cell (11c1c37f851c82e70ff6c80c92926a4b)
REM
REM compiler GCC version 9.2.1 20190827 (Red Hat 9.2.1-1)
REM options -cpp -mtune=generic -march=x86-64 -g -O0 -fpre-include=/usr/include/finclude/math-vector-fortran.h
REM seed 2001957426 883391272 -1689368799 -601595284 1838966854 -796690749 1631144440 -1604392964 -1839329764 2323009 -260846748 -1780458195 570094019 -1114790680 -1438686544 1498219633 -1860813592 1896412617 1688349457 -336501366 1893062153 1808727210 -163776701 -1851390257 849310260 -735000830 -20818488 -1552899100 -440515833 -2125778489 1208310478 2012334993 -670627718
REM
CELL 1.54180   50.00000   50.00000   50.00000   90.00000   90.00000   90.00000
LATT -1
SFAC C  
C      1  0.4851820000000  0.5731500000000  0.5449110000000 1.0
C      1  0.4418760000000  0.5070010000000  0.5106890000000 1.0
C      1  0.5463800000000  0.4820300000000  0.4391460000000 1.0
C      1  0.4579420000000  0.4563350000000  0.5141150000000 1.0
C      1  0.4748890000000  0.5920060000000  0.4879560000000 1.0
C      1  0.4691830000000  0.4896620000000  0.5411110000000 1.0
C      1  0.5348650000000  0.5223690000000  0.5721900000000 1.0
C      1  0.5246830000000  0.4680450000000  0.5226490000000 1.0
C      1  0.4810400000000  0.5453040000000  0.5115000000000 1.0
C      1  0.4429110000000  0.4795610000000  0.4541210000000 1.0
C      1  0.5817580000000  0.4836540000000  0.5182370000000 1.0
C      1  0.5722840000000  0.5229300000000  0.4496920000000 1.0
C      1  0.5124660000000  0.4723960000000  0.4735000000000 1.0
C      1  0.4624140000000  0.4422760000000  0.4525400000000 1.0
C      1  0.5731900000000  0.4575830000000  0.5263050000000 1.0
C      1  0.4342820000000  0.4949220000000  0.5377350000000 1.0
C      1  0.5231410000000  0.5250460000000  0.4038720000000 1.0
C      1  0.4927950000000  0.5510830000000  0.5623750000000 1.0
C      1  0.5128370000000  0.5026180000000  0.4046750000000 1.0
C      1  0.5473620000000  0.5685070000000  0.5285660000000 1.0
C      1  0.5683540000000  0.4672320000000  0.5533120000000 1.0
C      1  0.4375890000000  0.5625650000000  0.4887530000000 1.0
C      1  0.5312380000000  0.5802310000000  0.4753240000000 1.0
C      1  0.5366930000000  0.4249330000000  0.4751720000000 1.0
C      1  0.4619920000000  0.4220830000000  0.4696470000000 1.0
C      1  0.5684960000000  0.5491480000000  0.4585030000000 1.0
C      1  0.5245390000000  0.5984360000000  0.4970450000000 1.0
C      1  0.4875520000000  0.5015400000000  0.5209780000000 1.0
C      1  0.5450710000000  0.5575900000000  0.5546120000000 1.0
C      1  0.4854980000000  0.5102650000000  0.4681150000000 1.0
C      1  0.5206500000000  0.4949930000000  0.4321250000000 1.0
C      1  0.4697160000000  0.4682560000000  0.4906220000000 1.0
C      1  0.4480310000000  0.4285720000000  0.5178370000000 1.0
C      1  0.4416410000000  0.4300660000000  0.4865270000000 1.0
C      1  0.5027010000000  0.4903630000000  0.4536260000000 1.0
C      1  0.4663220000000  0.5225720000000  0.5177320000000 1.0
C      1  0.4927710000000  0.4643950000000  0.5787540000000 1.0
C      1  0.4807760000000  0.4535720000000  0.4361860000000 1.0
C      1  0.5024140000000  0.4511160000000  0.5173550000000 1.0
C      1  0.4599150000000  0.5237490000000  0.4624760000000 1.0
C      1  0.4284330000000  0.4545330000000  0.4728000000000 1.0
C      1  0.5588290000000  0.5344540000000  0.5609650000000 1.0
C      1  0.4289950000000  0.5240410000000  0.5518610000000 1.0
C      1  0.4669040000000  0.5026140000000  0.5682580000000 1.0
C      1  0.4674400000000  0.5031360000000  0.4158950000000 1.0
C      1  0.4908100000000  0.4058910000000  0.5043830000000 1.0
C      1  0.5609010000000  0.5413190000000  0.4323380000000 1.0
C      1  0.4812850000000  0.4941360000000  0.4929070000000 1.0
C      1  0.4963970000000  0.6027370000000  0.5048400000000 1.0
C      1  0.5633030000000  0.4976410000000  0.4593000000000 1.0
C      1  0.4718550000000  0.4116850000000  0.5251370000000 1.0
C      1  0.5719670000000  0.5281780000000  0.5141680000000 1.0
C      1  0.5027270000000  0.5927570000000  0.5320210000000 1.0
C      1  0.5208070000000  0.5475440000000  0.5665920000000 1.0
C      1  0.4853150000000  0.4904960000000  0.5822080000000 1.0
C      1  0.5303750000000  0.5899790000000  0.5237560000000 1.0
C      1  0.5084140000000  0.4431430000000  0.4411210000000 1.0
C      1  0.4498970000000  0.5270590000000  0.5712030000000 1.0
C      1  0.5537810000000  0.5622080000000  0.4801690000000 1.0
C      1  0.5102920000000  0.5382080000000  0.5068540000000 1.0
C      1  0.5504690000000  0.4488100000000  0.4646230000000 1.0
C      1  0.4774610000000  0.4619740000000  0.5356380000000 1.0
C      1  0.4336890000000  0.4674340000000  0.5471280000000 1.0
C      1  0.4889790000000  0.5061400000000  0.4006310000000 1.0
C      1  0.5734810000000  0.5212360000000  0.5416540000000 1.0
C      1  0.4773510000000  0.5295430000000  0.5737140000000 1.0
C      1  0.5744380000000  0.5033900000000  0.4986560000000 1.0
C      1  0.4537400000000  0.5796560000000  0.5049510000000 1.0
C      1  0.5248530000000  0.4973220000000  0.5605480000000 1.0
C      1  0.4681400000000  0.5658110000000  0.5249910000000 1.0
C      1  0.4444360000000  0.4427330000000  0.5499520000000 1.0
C      1  0.4877640000000  0.4120610000000  0.4765290000000 1.0
C      1  0.5334860000000  0.5436770000000  0.4221100000000 1.0
C      1  0.5210740000000  0.4715940000000  0.5763250000000 1.0
C      1  0.5401850000000  0.4712110000000  0.4809290000000 1.0
C      1  0.5492460000000  0.4989860000000  0.4848930000000 1.0
C      1  0.5444120000000  0.4555780000000  0.5663720000000 1.0
C      1  0.5106260000000  0.4226820000000  0.4616350000000 1.0
C      1  0.5271590000000  0.5248710000000  0.4873740000000 1.0
C      1  0.5359870000000  0.4549440000000  0.4399180000000 1.0
C      1  0.4206310000000  0.5428110000000  0.5009330000000 1.0
C      1  0.4733170000000  0.4432010000000  0.5616690000000 1.0
C      1  0.5157040000000  0.4128440000000  0.5166540000000 1.0
C      1  0.5387790000000  0.4224430000000  0.5034110000000 1.0
C      1  0.5177490000000  0.4933420000000  0.5329260000000 1.0
C      1  0.4644370000000  0.5301930000000  0.4211370000000 1.0
C      1  0.5132410000000  0.5483480000000  0.4434420000000 1.0
C      1  0.5476080000000  0.4432410000000  0.5229060000000 1.0
C      1  0.4801470000000  0.5760580000000  0.4646150000000 1.0
C      1  0.5597470000000  0.5535680000000  0.5072660000000 1.0
C      1  0.5083310000000  0.5736070000000  0.4576510000000 1.0
C      1  0.4366340000000  0.5064980000000  0.4637750000000 1.0
C      1  0.4606090000000  0.5529440000000  0.4354340000000 1.0
C      1  0.5806530000000  0.4934600000000  0.5451180000000 1.0
C      1  0.5376120000000  0.4330810000000  0.5503900000000 1.0
C      1  0.4956320000000  0.4556440000000  0.4893560000000 1.0
C      1  0.4629200000000  0.4792740000000  0.4337010000000 1.0
C      1  0.4241550000000  0.5150760000000  0.4895200000000 1.0
C      1  0.4856770000000  0.4189270000000  0.5495250000000 1.0
C      1  0.4569400000000  0.5535610000000  0.4647750000000 1.0
C      1  0.5143750000000  0.4170710000000  0.5456090000000 1.0
C      1  0.5090780000000  0.5302430000000  0.4657370000000 1.0
C      1  0.4074710000000  0.4531760000000  0.4868900000000 1.0
C      1  0.4194130000000  0.5418250000000  0.5316250000000 1.0
END
