TITL C-4164236-1577-713 1.52741469901541 125000 -21424.1877334618 0 0 144 (C1) n - 1
REM
REM in /home/nfs/bkarasulu/CARBON/AIRSS/Generating-Clusters/ReaxFF-fromJPCA2015/Units_Real/with-SteepDescent/Only-C1/SD-CG/Try1-3A/FIRE-CG
REM
REM
REM
REM
REM
REM ./C.cell (11c1c37f851c82e70ff6c80c92926a4b)
REM
REM compiler GCC version 9.2.1 20190827 (Red Hat 9.2.1-1)
REM options -cpp -mtune=generic -march=x86-64 -g -O0 -fpre-include=/usr/include/finclude/math-vector-fortran.h
REM seed 2120899015 399222515 -1345116698 773068160 -572569250 1904235221 287277611 -1655148007 -285963964 -2082476499 -1016978984 274207052 26058827 1204153692 407572349 1263860270 1947058929 1152941136 1089286982 -1477397606 1670140513 1918117716 -398275932 1798637052 -2124916659 1957758000 2116458939 310905053 1172596678 -226276210 -767174348 772141879 -642228604
REM
CELL 1.54180   50.00000   50.00000   50.00000   90.00000   90.00000   90.00000
LATT -1
SFAC C  
C      1  0.5517210000000  0.4123160000000  0.4855270000000 1.0
C      1  0.4406990000000  0.5435940000000  0.4257600000000 1.0
C      1  0.4679250000000  0.4832730000000  0.4715300000000 1.0
C      1  0.4433490000000  0.5585260000000  0.5563570000000 1.0
C      1  0.5328200000000  0.4329940000000  0.4413290000000 1.0
C      1  0.4035460000000  0.5320930000000  0.4527580000000 1.0
C      1  0.4330880000000  0.4878450000000  0.5752400000000 1.0
C      1  0.5532940000000  0.5767790000000  0.5390560000000 1.0
C      1  0.4770000000000  0.4964260000000  0.5616260000000 1.0
C      1  0.5051630000000  0.5111410000000  0.4881910000000 1.0
C      1  0.4372090000000  0.5779080000000  0.5324080000000 1.0
C      1  0.4572820000000  0.4751340000000  0.5646170000000 1.0
C      1  0.4761930000000  0.4943790000000  0.5270260000000 1.0
C      1  0.5520320000000  0.4112350000000  0.5415700000000 1.0
C      1  0.5072860000000  0.5898240000000  0.5100920000000 1.0
C      1  0.4217590000000  0.4397770000000  0.5060130000000 1.0
C      1  0.5478830000000  0.4865460000000  0.4942130000000 1.0
C      1  0.4840460000000  0.5890290000000  0.5498950000000 1.0
C      1  0.4173220000000  0.5079960000000  0.4443990000000 1.0
C      1  0.5525750000000  0.5842020000000  0.4967080000000 1.0
C      1  0.5048360000000  0.4069030000000  0.5366570000000 1.0
C      1  0.4344510000000  0.5156040000000  0.4225300000000 1.0
C      1  0.5629850000000  0.5739110000000  0.4722950000000 1.0
C      1  0.5544010000000  0.4703540000000  0.5589620000000 1.0
C      1  0.5087730000000  0.4303920000000  0.4273290000000 1.0
C      1  0.5457390000000  0.5621690000000  0.5645450000000 1.0
C      1  0.4376740000000  0.5154670000000  0.5786250000000 1.0
C      1  0.4705300000000  0.3811730000000  0.4863540000000 1.0
C      1  0.5249650000000  0.5417620000000  0.4538480000000 1.0
C      1  0.5573940000000  0.5366560000000  0.5725700000000 1.0
C      1  0.4429720000000  0.4354540000000  0.5467260000000 1.0
C      1  0.5756350000000  0.4236490000000  0.4962800000000 1.0
C      1  0.5527590000000  0.5391370000000  0.5139760000000 1.0
C      1  0.5090820000000  0.5654130000000  0.4213600000000 1.0
C      1  0.5172660000000  0.5104630000000  0.5674180000000 1.0
C      1  0.5030030000000  0.4873910000000  0.5715540000000 1.0
C      1  0.5608490000000  0.4687550000000  0.4513100000000 1.0
C      1  0.4983170000000  0.4611070000000  0.4936740000000 1.0
C      1  0.5158180000000  0.5217990000000  0.5413160000000 1.0
C      1  0.4357930000000  0.4542580000000  0.4475150000000 1.0
C      1  0.5909780000000  0.5277920000000  0.4845830000000 1.0
C      1  0.4707420000000  0.5357750000000  0.4279000000000 1.0
C      1  0.4320280000000  0.5312970000000  0.5548830000000 1.0
C      1  0.5751780000000  0.4849650000000  0.4849920000000 1.0
C      1  0.5441170000000  0.5692160000000  0.4455860000000 1.0
C      1  0.4571960000000  0.5830930000000  0.4819920000000 1.0
C      1  0.4808090000000  0.5989050000000  0.5243830000000 1.0
C      1  0.5187820000000  0.4659570000000  0.5833710000000 1.0
C      1  0.4984550000000  0.3761900000000  0.4763260000000 1.0
C      1  0.4743720000000  0.5522490000000  0.4794390000000 1.0
C      1  0.5571080000000  0.5589620000000  0.4222200000000 1.0
C      1  0.3936430000000  0.5127370000000  0.5028860000000 1.0
C      1  0.4620000000000  0.5083460000000  0.4192740000000 1.0
C      1  0.4670020000000  0.5535480000000  0.5717030000000 1.0
C      1  0.4846880000000  0.4660100000000  0.5238770000000 1.0
C      1  0.4171600000000  0.4871690000000  0.5580550000000 1.0
C      1  0.5970620000000  0.5041070000000  0.5565750000000 1.0
C      1  0.5088020000000  0.4294050000000  0.5182170000000 1.0
C      1  0.4099080000000  0.4626630000000  0.4924000000000 1.0
C      1  0.4575310000000  0.4620660000000  0.4307820000000 1.0
C      1  0.4782070000000  0.5408690000000  0.5064770000000 1.0
C      1  0.5969740000000  0.5203870000000  0.5135630000000 1.0
C      1  0.5683730000000  0.4325640000000  0.5483930000000 1.0
C      1  0.5740990000000  0.4928700000000  0.4428090000000 1.0
C      1  0.5212150000000  0.4689560000000  0.3972330000000 1.0
C      1  0.5921630000000  0.5400900000000  0.5342370000000 1.0
C      1  0.5719480000000  0.5592460000000  0.5247620000000 1.0
C      1  0.5059640000000  0.5598030000000  0.5168130000000 1.0
C      1  0.4753260000000  0.4831560000000  0.4227320000000 1.0
C      1  0.5200040000000  0.5868420000000  0.4352290000000 1.0
C      1  0.4278520000000  0.5489720000000  0.4924830000000 1.0
C      1  0.5509200000000  0.4523190000000  0.4311580000000 1.0
C      1  0.5100860000000  0.4553390000000  0.5327450000000 1.0
C      1  0.4759730000000  0.4016320000000  0.5431000000000 1.0
C      1  0.5201840000000  0.4357750000000  0.5770270000000 1.0
C      1  0.5372070000000  0.5915500000000  0.5187670000000 1.0
C      1  0.5157770000000  0.5210720000000  0.6057920000000 1.0
C      1  0.5423140000000  0.5172260000000  0.5294450000000 1.0
C      1  0.5344870000000  0.4703520000000  0.5368240000000 1.0
C      1  0.4777740000000  0.5993020000000  0.4674490000000 1.0
C      1  0.5018860000000  0.5872300000000  0.4767890000000 1.0
C      1  0.5168880000000  0.5613760000000  0.5692370000000 1.0
C      1  0.5234100000000  0.4730300000000  0.4834050000000 1.0
C      1  0.4990530000000  0.5568760000000  0.4644740000000 1.0
C      1  0.4007900000000  0.4848470000000  0.5095760000000 1.0
C      1  0.4492510000000  0.4982480000000  0.5141130000000 1.0
C      1  0.4601470000000  0.4573330000000  0.5427710000000 1.0
C      1  0.4780030000000  0.5395530000000  0.4555780000000 1.0
C      1  0.5434960000000  0.4812330000000  0.5831940000000 1.0
C      1  0.4676800000000  0.5247520000000  0.5805690000000 1.0
C      1  0.5919760000000  0.4662170000000  0.5252540000000 1.0
C      1  0.4371420000000  0.5207530000000  0.5277520000000 1.0
C      1  0.4207120000000  0.4477490000000  0.5338880000000 1.0
C      1  0.5836660000000  0.5304240000000  0.5619350000000 1.0
C      1  0.5301840000000  0.4820020000000  0.4572780000000 1.0
C      1  0.4556600000000  0.5889990000000  0.5127720000000 1.0
C      1  0.5994110000000  0.4944420000000  0.5278800000000 1.0
C      1  0.4509610000000  0.4125300000000  0.5317720000000 1.0
C      1  0.4919300000000  0.4139520000000  0.4450510000000 1.0
C      1  0.4921100000000  0.4972270000000  0.4668920000000 1.0
C      1  0.5001730000000  0.5404700000000  0.4147070000000 1.0
C      1  0.4068750000000  0.4744380000000  0.5367410000000 1.0
C      1  0.5465030000000  0.4717360000000  0.4108130000000 1.0
C      1  0.5835970000000  0.5046170000000  0.4670980000000 1.0
C      1  0.5441370000000  0.4910730000000  0.5214470000000 1.0
C      1  0.5772700000000  0.5512680000000  0.4785920000000 1.0
C      1  0.4627790000000  0.4557860000000  0.4585430000000 1.0
C      1  0.4244400000000  0.4932580000000  0.4668240000000 1.0
C      1  0.5079290000000  0.5495290000000  0.5447580000000 1.0
C      1  0.5159430000000  0.5232750000000  0.4318730000000 1.0
C      1  0.5292220000000  0.5488620000000  0.5012860000000 1.0
C      1  0.4742200000000  0.4181240000000  0.5655760000000 1.0
C      1  0.4243040000000  0.5540210000000  0.4474580000000 1.0
C      1  0.5254580000000  0.5295410000000  0.4807220000000 1.0
C      1  0.4934340000000  0.5154570000000  0.5148800000000 1.0
C      1  0.5633330000000  0.4957250000000  0.4163120000000 1.0
C      1  0.3929270000000  0.5229970000000  0.4773360000000 1.0
C      1  0.5091030000000  0.4956080000000  0.4417360000000 1.0
C      1  0.4171550000000  0.4676730000000  0.4647360000000 1.0
C      1  0.5654330000000  0.5219830000000  0.4057940000000 1.0
C      1  0.4773360000000  0.4259280000000  0.4680050000000 1.0
C      1  0.4028800000000  0.5449900000000  0.5096350000000 1.0
C      1  0.5040680000000  0.4476090000000  0.4045870000000 1.0
C      1  0.5580880000000  0.4059930000000  0.5123020000000 1.0
C      1  0.4131480000000  0.5631450000000  0.5281120000000 1.0
C      1  0.5800960000000  0.4592110000000  0.4761700000000 1.0
C      1  0.4930180000000  0.4727670000000  0.4029310000000 1.0
C      1  0.4417220000000  0.4184070000000  0.5044390000000 1.0
C      1  0.5256960000000  0.4146400000000  0.5560360000000 1.0
C      1  0.5841400000000  0.4502010000000  0.5021160000000 1.0
C      1  0.4327840000000  0.5684980000000  0.4708970000000 1.0
C      1  0.5666750000000  0.5465180000000  0.4030080000000 1.0
C      1  0.5812960000000  0.4566950000000  0.5509850000000 1.0
C      1  0.4494500000000  0.5410300000000  0.5107260000000 1.0
C      1  0.5393480000000  0.5128020000000  0.5842910000000 1.0
C      1  0.4462550000000  0.4962800000000  0.4852390000000 1.0
C      1  0.5292420000000  0.4197580000000  0.4684480000000 1.0
C      1  0.5026500000000  0.6022330000000  0.4535060000000 1.0
C      1  0.4877500000000  0.5225310000000  0.6045940000000 1.0
C      1  0.5106530000000  0.3971740000000  0.4591930000000 1.0
C      1  0.5032070000000  0.4327340000000  0.4884870000000 1.0
C      1  0.4895550000000  0.5742230000000  0.5728090000000 1.0
C      1  0.4940630000000  0.4327010000000  0.5774590000000 1.0
C      1  0.4584470000000  0.4081130000000  0.4829680000000 1.0
END
