TITL C-4164235-1454-595 46.0611495154598 125000 -14623.8528053045 0 0 99 (C1) n - 1
REM
REM in /home/nfs/bkarasulu/CARBON/AIRSS/Generating-Clusters/ReaxFF-fromJPCA2015/Units_Real/with-SteepDescent/Only-C1/SD-CG/Try1-3A/FIRE-CG
REM
REM
REM
REM
REM
REM ./C.cell (11c1c37f851c82e70ff6c80c92926a4b)
REM
REM compiler GCC version 9.2.1 20190827 (Red Hat 9.2.1-1)
REM options -cpp -mtune=generic -march=x86-64 -g -O0 -fpre-include=/usr/include/finclude/math-vector-fortran.h
REM seed 1211966661 -1325286692 1499279766 989573317 589026953 2141357907 630990511 -1312301183 890451022 1564032532 -864466222 1927396498 1387608153 876466323 585246909 1424316906 1526645069 1368476555 1369718756 1773400601 213962669 1000821897 1268129048 -1128449490 -685490088 -1368829427 1163092047 -454049953 -1514600842 1749772 -2098398471 507721763 -1091170134
REM
CELL 1.54180   50.00000   50.00000   50.00000   90.00000   90.00000   90.00000
LATT -1
SFAC C  
C      1  0.4366350000000  0.5055800000000  0.4208270000000 1.0
C      1  0.5111350000000  0.4635150000000  0.4180050000000 1.0
C      1  0.4731310000000  0.4519680000000  0.5157630000000 1.0
C      1  0.5385270000000  0.4661840000000  0.4281930000000 1.0
C      1  0.4750460000000  0.5942210000000  0.4949070000000 1.0
C      1  0.4257910000000  0.4663940000000  0.5013780000000 1.0
C      1  0.4831130000000  0.5480220000000  0.5774410000000 1.0
C      1  0.4288980000000  0.4761570000000  0.5294070000000 1.0
C      1  0.5492990000000  0.5048870000000  0.4968390000000 1.0
C      1  0.5341730000000  0.4948290000000  0.5722710000000 1.0
C      1  0.4565180000000  0.5227050000000  0.5290080000000 1.0
C      1  0.4593340000000  0.4282950000000  0.5058140000000 1.0
C      1  0.4516950000000  0.5463610000000  0.4464490000000 1.0
C      1  0.4269810000000  0.4691440000000  0.4542800000000 1.0
C      1  0.5146260000000  0.5146260000000  0.4120750000000 1.0
C      1  0.4752530000000  0.4542390000000  0.4526010000000 1.0
C      1  0.5479590000000  0.4389820000000  0.5008400000000 1.0
C      1  0.4862550000000  0.5693610000000  0.5593700000000 1.0
C      1  0.5475190000000  0.4880130000000  0.4461930000000 1.0
C      1  0.4352230000000  0.4902950000000  0.5685700000000 1.0
C      1  0.4968130000000  0.4984280000000  0.5419730000000 1.0
C      1  0.4682320000000  0.4537860000000  0.5639980000000 1.0
C      1  0.4936450000000  0.4686730000000  0.4710510000000 1.0
C      1  0.4606940000000  0.5308130000000  0.5774030000000 1.0
C      1  0.5466820000000  0.4859920000000  0.4747790000000 1.0
C      1  0.5060630000000  0.5070150000000  0.5713890000000 1.0
C      1  0.5169760000000  0.5805040000000  0.5201570000000 1.0
C      1  0.5046170000000  0.4890050000000  0.4042590000000 1.0
C      1  0.5414510000000  0.4574140000000  0.4802010000000 1.0
C      1  0.5591930000000  0.5509440000000  0.4541140000000 1.0
C      1  0.5891790000000  0.4853290000000  0.4816930000000 1.0
C      1  0.4684050000000  0.5858260000000  0.5197790000000 1.0
C      1  0.4603990000000  0.4359880000000  0.5802370000000 1.0
C      1  0.5723140000000  0.4938420000000  0.5365990000000 1.0
C      1  0.4370560000000  0.5572730000000  0.5413000000000 1.0
C      1  0.4470530000000  0.5323690000000  0.4190460000000 1.0
C      1  0.5458950000000  0.5656350000000  0.4755340000000 1.0
C      1  0.4928070000000  0.4078780000000  0.5337990000000 1.0
C      1  0.4886750000000  0.5084000000000  0.4214060000000 1.0
C      1  0.4710430000000  0.4966870000000  0.5257330000000 1.0
C      1  0.4945960000000  0.5337660000000  0.4939460000000 1.0
C      1  0.4893190000000  0.5089010000000  0.4762220000000 1.0
C      1  0.5357010000000  0.4189500000000  0.4247390000000 1.0
C      1  0.5124220000000  0.5414530000000  0.4418450000000 1.0
C      1  0.5189020000000  0.5779260000000  0.4724920000000 1.0
C      1  0.4923400000000  0.4448930000000  0.4308770000000 1.0
C      1  0.4398810000000  0.5089980000000  0.4821180000000 1.0
C      1  0.4243710000000  0.4999110000000  0.5457980000000 1.0
C      1  0.5013550000000  0.5667020000000  0.4521660000000 1.0
C      1  0.4361910000000  0.5605240000000  0.4851100000000 1.0
C      1  0.4365400000000  0.5360490000000  0.4693230000000 1.0
C      1  0.5277900000000  0.5041030000000  0.5152710000000 1.0
C      1  0.5144870000000  0.4533560000000  0.4832700000000 1.0
C      1  0.5552700000000  0.4408880000000  0.4234720000000 1.0
C      1  0.4978680000000  0.4519230000000  0.5690190000000 1.0
C      1  0.5278950000000  0.4189410000000  0.5097400000000 1.0
C      1  0.5631350000000  0.5361000000000  0.5188570000000 1.0
C      1  0.5090880000000  0.5371890000000  0.5726560000000 1.0
C      1  0.5516000000000  0.5349630000000  0.5458630000000 1.0
C      1  0.5289770000000  0.5559990000000  0.5158320000000 1.0
C      1  0.5807260000000  0.4612920000000  0.4904820000000 1.0
C      1  0.4280070000000  0.5599000000000  0.5141860000000 1.0
C      1  0.5741360000000  0.5111630000000  0.5087740000000 1.0
C      1  0.5082040000000  0.4200880000000  0.4375020000000 1.0
C      1  0.5197230000000  0.4547930000000  0.5477160000000 1.0
C      1  0.5554050000000  0.5076270000000  0.5558090000000 1.0
C      1  0.4750920000000  0.5370240000000  0.5140040000000 1.0
C      1  0.4801320000000  0.4073830000000  0.5064670000000 1.0
C      1  0.4577770000000  0.4689620000000  0.5349620000000 1.0
C      1  0.5294430000000  0.5505580000000  0.5572660000000 1.0
C      1  0.4716920000000  0.5676010000000  0.4525280000000 1.0
C      1  0.4229040000000  0.4847900000000  0.4793990000000 1.0
C      1  0.5590940000000  0.5131950000000  0.4365220000000 1.0
C      1  0.5072760000000  0.4133310000000  0.4642030000000 1.0
C      1  0.4398650000000  0.5288170000000  0.5534380000000 1.0
C      1  0.4615020000000  0.5766460000000  0.5441120000000 1.0
C      1  0.5062710000000  0.4074520000000  0.4909180000000 1.0
C      1  0.4545000000000  0.4922040000000  0.5866390000000 1.0
C      1  0.5753770000000  0.4658430000000  0.5387160000000 1.0
C      1  0.5530890000000  0.5576730000000  0.5024530000000 1.0
C      1  0.4307200000000  0.4862140000000  0.4323750000000 1.0
C      1  0.4661370000000  0.5020130000000  0.4927510000000 1.0
C      1  0.4474420000000  0.4488730000000  0.4613750000000 1.0
C      1  0.5413340000000  0.5370800000000  0.4345330000000 1.0
C      1  0.5764310000000  0.5265110000000  0.4565320000000 1.0
C      1  0.5657380000000  0.4561750000000  0.5659830000000 1.0
C      1  0.4764300000000  0.5090900000000  0.5875320000000 1.0
C      1  0.5049150000000  0.5899200000000  0.4953900000000 1.0
C      1  0.5383480000000  0.4660190000000  0.5713660000000 1.0
C      1  0.5126970000000  0.5727100000000  0.5475150000000 1.0
C      1  0.4939450000000  0.4634420000000  0.4996610000000 1.0
C      1  0.5153300000000  0.5309040000000  0.5149720000000 1.0
C      1  0.5888640000000  0.5122600000000  0.4788330000000 1.0
C      1  0.4579760000000  0.5783630000000  0.4751890000000 1.0
C      1  0.5166130000000  0.4823000000000  0.5298180000000 1.0
C      1  0.5729020000000  0.4482630000000  0.5138250000000 1.0
C      1  0.5175430000000  0.4248840000000  0.5353550000000 1.0
C      1  0.4942490000000  0.5183250000000  0.4485910000000 1.0
C      1  0.4401430000000  0.4431990000000  0.4890080000000 1.0
END
