TITL C-816414-3139-1 4.96429101613598e-08 125000 -1843.84093530729 0 0 14 (C1) n - 1
REM
REM in /home/nfs/bkarasulu/CARBON/AIRSS/Generating-Clusters/ReaxFF-fromJPCA2015/Units_Real/with-SteepDescent/Only-C1/SD-CG/Try1-3A/FIRE-CG
REM
REM
REM
REM
REM
REM ./C.cell (11c1c37f851c82e70ff6c80c92926a4b)
REM AIRSS Version 0.9.1 bugfix July 2018 build 013d7b7c2542+ Fri, 06 Jul 2018 19:26:36 +0100
REM compiler GCC version 9.2.1 20190827 (Red Hat 9.2.1-1)
REM options -cpp -mtune=generic -march=x86-64 -g -O0 -fpre-include=/usr/include/finclude/math-vector-fortran.h
REM seed -1114598088 -408887010 1290534248 -526836271 -2002534857 1978620426 2049072293 1382368894 227700381 -2119476938 -1606354956 -289261563 809568796 -1092407101 1419352646 -225851386 1035337715 610527605 295120730 -1869113442 -1244739436 -258360294 1497170740 282826784 1739897798 -927949987 606131957 876247319 -401235613 481009400 1194424498 1199246490 561822069
REM
CELL 1.54180   50.00000   50.00000   50.00000   90.00000   90.00000   90.00000
LATT -1
SFAC C  
C      1  0.5172110000000  0.5107710000000  0.4887690000000 1.0
C      1  0.5138900000000  0.5281980000000  0.4622850000000 1.0
C      1  0.4767220000000  0.4737380000000  0.4782590000000 1.0
C      1  0.5326830000000  0.5207220000000  0.4421630000000 1.0
C      1  0.5200530000000  0.5273370000000  0.5134570000000 1.0
C      1  0.4766260000000  0.4839360000000  0.5193870000000 1.0
C      1  0.4769570000000  0.4995260000000  0.5448180000000 1.0
C      1  0.5436390000000  0.4938840000000  0.4820650000000 1.0
C      1  0.4907860000000  0.4907310000000  0.4941270000000 1.0
C      1  0.4371560000000  0.4512140000000  0.5138980000000 1.0
C      1  0.4567480000000  0.4656920000000  0.5072320000000 1.0
C      1  0.5517560000000  0.4986080000000  0.4552060000000 1.0
C      1  0.5138180000000  0.5345760000000  0.5406400000000 1.0
C      1  0.4919560000000  0.5210660000000  0.5576920000000 1.0
END
