TITL C-816416-2960-1 18.9871092853275 125000 -19716.421383249 0 0 133 (C1) n - 1
REM
REM in /home/nfs/bkarasulu/CARBON/AIRSS/Generating-Clusters/ReaxFF-fromJPCA2015/Units_Real/with-SteepDescent/Only-C1/SD-CG/Try1-3A/FIRE-CG
REM
REM
REM
REM
REM
REM ./C.cell (11c1c37f851c82e70ff6c80c92926a4b)
REM AIRSS Version 0.9.1 bugfix July 2018 build 013d7b7c2542+ Fri, 06 Jul 2018 19:26:36 +0100
REM compiler GCC version 9.2.1 20190827 (Red Hat 9.2.1-1)
REM options -cpp -mtune=generic -march=x86-64 -g -O0 -fpre-include=/usr/include/finclude/math-vector-fortran.h
REM seed 1000444463 -530517511 262980549 1814957803 -266479272 -1681190188 -659228731 -1368535636 -949674181 -1942551332 626523208 394213467 1300890085 1764744369 -1781440228 677660378 -1304737500 1140710448 1921670373 1907659232 -725636017 1952223636 -708836281 307732315 -2011967997 -1276730914 2045089966 -257228868 -1816016823 217693946 -1164071314 1153395452 -56294954
REM
CELL 1.54180   50.00000   50.00000   50.00000   90.00000   90.00000   90.00000
LATT -1
SFAC C  
C      1  0.4536950000000  0.4712290000000  0.5756440000000 1.0
C      1  0.5536620000000  0.4688740000000  0.4495480000000 1.0
C      1  0.5078040000000  0.5072550000000  0.5292670000000 1.0
C      1  0.5456880000000  0.4808490000000  0.5204980000000 1.0
C      1  0.4904560000000  0.5409460000000  0.4329580000000 1.0
C      1  0.4853540000000  0.4818830000000  0.4234820000000 1.0
C      1  0.4546950000000  0.4482380000000  0.4298190000000 1.0
C      1  0.5839060000000  0.4719070000000  0.5372830000000 1.0
C      1  0.4441290000000  0.5423880000000  0.4355750000000 1.0
C      1  0.4761420000000  0.5568510000000  0.5053550000000 1.0
C      1  0.5580600000000  0.5338620000000  0.4664910000000 1.0
C      1  0.5815220000000  0.4374920000000  0.4782020000000 1.0
C      1  0.5827730000000  0.5200550000000  0.5338860000000 1.0
C      1  0.4877760000000  0.5531250000000  0.4583260000000 1.0
C      1  0.4617800000000  0.4896770000000  0.4077720000000 1.0
C      1  0.4908440000000  0.4559590000000  0.5306550000000 1.0
C      1  0.5744960000000  0.5736980000000  0.5221710000000 1.0
C      1  0.5020450000000  0.4192340000000  0.4621980000000 1.0
C      1  0.5822300000000  0.4977460000000  0.5530790000000 1.0
C      1  0.4907240000000  0.5254540000000  0.5435160000000 1.0
C      1  0.5097950000000  0.4469740000000  0.5112380000000 1.0
C      1  0.4687380000000  0.5437540000000  0.4152980000000 1.0
C      1  0.5561240000000  0.4192070000000  0.5307090000000 1.0
C      1  0.4292490000000  0.5360890000000  0.4809980000000 1.0
C      1  0.5449680000000  0.4381220000000  0.4534090000000 1.0
C      1  0.5729180000000  0.5113570000000  0.4784980000000 1.0
C      1  0.4328400000000  0.4741200000000  0.5602540000000 1.0
C      1  0.5593010000000  0.4885790000000  0.4239180000000 1.0
C      1  0.5037380000000  0.4145580000000  0.5518980000000 1.0
C      1  0.4910700000000  0.5421900000000  0.4857160000000 1.0
C      1  0.4873190000000  0.4008000000000  0.5093040000000 1.0
C      1  0.5085750000000  0.5892270000000  0.4832660000000 1.0
C      1  0.4667800000000  0.5003710000000  0.5152550000000 1.0
C      1  0.5211050000000  0.4628570000000  0.4030360000000 1.0
C      1  0.5994430000000  0.5337900000000  0.4994710000000 1.0
C      1  0.5355550000000  0.5520740000000  0.5812980000000 1.0
C      1  0.5087050000000  0.4439220000000  0.4192250000000 1.0
C      1  0.5450640000000  0.5375290000000  0.5357850000000 1.0
C      1  0.5769850000000  0.5395610000000  0.4313820000000 1.0
C      1  0.4521850000000  0.5909360000000  0.5024990000000 1.0
C      1  0.5050220000000  0.5009620000000  0.5011160000000 1.0
C      1  0.5299660000000  0.4926900000000  0.5411840000000 1.0
C      1  0.4421160000000  0.4225610000000  0.4955680000000 1.0
C      1  0.4708620000000  0.4703480000000  0.5162930000000 1.0
C      1  0.4678420000000  0.4675100000000  0.4869280000000 1.0
C      1  0.4965790000000  0.4785980000000  0.5984640000000 1.0
C      1  0.5194690000000  0.5417230000000  0.4277100000000 1.0
C      1  0.5165220000000  0.4021790000000  0.5041180000000 1.0
C      1  0.5953990000000  0.4629190000000  0.4880600000000 1.0
C      1  0.4728170000000  0.4134740000000  0.4619000000000 1.0
C      1  0.3907850000000  0.5046260000000  0.4763490000000 1.0
C      1  0.4257120000000  0.4666240000000  0.4725550000000 1.0
C      1  0.5512880000000  0.4992000000000  0.4989320000000 1.0
C      1  0.3968430000000  0.4907970000000  0.5021910000000 1.0
C      1  0.5371190000000  0.5875110000000  0.4813710000000 1.0
C      1  0.5316570000000  0.5300710000000  0.4530900000000 1.0
C      1  0.5949710000000  0.4796210000000  0.5113090000000 1.0
C      1  0.4926050000000  0.5891490000000  0.5346780000000 1.0
C      1  0.4444220000000  0.5230550000000  0.4593170000000 1.0
C      1  0.5551810000000  0.5384070000000  0.5639980000000 1.0
C      1  0.4358450000000  0.4312530000000  0.5224920000000 1.0
C      1  0.5278580000000  0.4827210000000  0.4615410000000 1.0
C      1  0.4190420000000  0.4819690000000  0.4350990000000 1.0
C      1  0.5250120000000  0.5533870000000  0.5241250000000 1.0
C      1  0.4033790000000  0.5279870000000  0.4852090000000 1.0
C      1  0.4828850000000  0.4557300000000  0.4347160000000 1.0
C      1  0.4890350000000  0.5721230000000  0.5803520000000 1.0
C      1  0.5798380000000  0.4620420000000  0.4626490000000 1.0
C      1  0.4810600000000  0.5133440000000  0.4906080000000 1.0
C      1  0.4694900000000  0.5166450000000  0.4079410000000 1.0
C      1  0.4233730000000  0.5204020000000  0.5350950000000 1.0
C      1  0.4323740000000  0.5611210000000  0.4228790000000 1.0
C      1  0.5361910000000  0.4542350000000  0.5217080000000 1.0
C      1  0.4431860000000  0.5090360000000  0.5254320000000 1.0
C      1  0.4018550000000  0.4914190000000  0.4518490000000 1.0
C      1  0.5426240000000  0.4518570000000  0.5507030000000 1.0
C      1  0.5209970000000  0.4278020000000  0.4410420000000 1.0
C      1  0.5370520000000  0.4898820000000  0.4039950000000 1.0
C      1  0.5699370000000  0.4456350000000  0.5428980000000 1.0
C      1  0.4798920000000  0.4088300000000  0.5364400000000 1.0
C      1  0.4714130000000  0.4929500000000  0.5900010000000 1.0
C      1  0.4561600000000  0.4255630000000  0.5431240000000 1.0
C      1  0.5704590000000  0.5572470000000  0.4522500000000 1.0
C      1  0.5138260000000  0.5457880000000  0.5010440000000 1.0
C      1  0.4476520000000  0.4848450000000  0.4747200000000 1.0
C      1  0.5323840000000  0.4753690000000  0.5637790000000 1.0
C      1  0.5439220000000  0.4120310000000  0.5030200000000 1.0
C      1  0.5425950000000  0.5059660000000  0.5909640000000 1.0
C      1  0.4027670000000  0.5004750000000  0.5296420000000 1.0
C      1  0.5257320000000  0.5698440000000  0.4397470000000 1.0
C      1  0.4616750000000  0.4437430000000  0.5648460000000 1.0
C      1  0.5029770000000  0.5775860000000  0.4574190000000 1.0
C      1  0.4971150000000  0.5210250000000  0.5723360000000 1.0
C      1  0.5222370000000  0.5268970000000  0.5880400000000 1.0
C      1  0.4169090000000  0.4531480000000  0.5217150000000 1.0
C      1  0.5970110000000  0.5059820000000  0.4933920000000 1.0
C      1  0.5551490000000  0.4254670000000  0.4774620000000 1.0
C      1  0.5905740000000  0.5478100000000  0.5222280000000 1.0
C      1  0.4218740000000  0.5641820000000  0.4905250000000 1.0
C      1  0.5309500000000  0.4133310000000  0.5427300000000 1.0
C      1  0.5051420000000  0.4419710000000  0.4814900000000 1.0
C      1  0.4325100000000  0.4386260000000  0.4729630000000 1.0
C      1  0.4659890000000  0.4071350000000  0.4891810000000 1.0
C      1  0.4668010000000  0.5514610000000  0.5835630000000 1.0
C      1  0.4711820000000  0.5424750000000  0.5298320000000 1.0
C      1  0.4428320000000  0.5501420000000  0.5370650000000 1.0
C      1  0.4095060000000  0.4646800000000  0.4961230000000 1.0
C      1  0.5185820000000  0.5051650000000  0.4508300000000 1.0
C      1  0.4991390000000  0.4511100000000  0.5908770000000 1.0
C      1  0.5649880000000  0.5119760000000  0.5722440000000 1.0
C      1  0.5323740000000  0.5169700000000  0.4085600000000 1.0
C      1  0.5199540000000  0.5788660000000  0.5419520000000 1.0
C      1  0.4852630000000  0.5866520000000  0.5062440000000 1.0
C      1  0.4926280000000  0.4973660000000  0.4469950000000 1.0
C      1  0.5704210000000  0.5140740000000  0.4246290000000 1.0
C      1  0.5505550000000  0.5867880000000  0.5309300000000 1.0
C      1  0.5576950000000  0.5190410000000  0.5197770000000 1.0
C      1  0.5272610000000  0.4816080000000  0.5918140000000 1.0
C      1  0.4504160000000  0.4299550000000  0.4514340000000 1.0
C      1  0.4522630000000  0.5644120000000  0.5621590000000 1.0
C      1  0.4345950000000  0.5710530000000  0.5157340000000 1.0
C      1  0.4913680000000  0.4419900000000  0.5604700000000 1.0
C      1  0.4747170000000  0.5839120000000  0.5572800000000 1.0
C      1  0.4120330000000  0.4741510000000  0.5422210000000 1.0
C      1  0.5271550000000  0.4922170000000  0.4875540000000 1.0
C      1  0.4398030000000  0.4711730000000  0.4201580000000 1.0
C      1  0.4728410000000  0.5222600000000  0.5884030000000 1.0
C      1  0.4369070000000  0.5889990000000  0.4773610000000 1.0
C      1  0.4665130000000  0.5050160000000  0.4646980000000 1.0
C      1  0.5568400000000  0.5905510000000  0.5039080000000 1.0
C      1  0.4868280000000  0.4581720000000  0.4677810000000 1.0
C      1  0.5167710000000  0.5715520000000  0.5714410000000 1.0
C      1  0.5484050000000  0.5770470000000  0.4552580000000 1.0
END
