TITL C-883732-77-430 2.87732001279758 125000 -8200.05424764183 0 0 56 (C1) n - 1
REM
REM in /home/nfs/bkarasulu/CARBON/AIRSS/Generating-Clusters/ReaxFF-fromJPCA2015/Units_Real/with-SteepDescent/Only-C1/SD-CG/Try1-3A/FIRE-CG
REM
REM
REM
REM
REM
REM ./C.cell (11c1c37f851c82e70ff6c80c92926a4b)
REM
REM compiler GCC version 9.2.1 20190827 (Red Hat 9.2.1-1)
REM options -cpp -mtune=generic -march=x86-64 -g -O0 -fpre-include=/usr/include/finclude/math-vector-fortran.h
REM seed -791799764 -43467022 -353862404 1603867072 126021753 912139212 1609905222 -243583833 1743507555 -1120385561 -2074779919 -1927155256 -998933918 663662270 -606897260 268113763 1295458220 742438132 932408425 -1720569177 -1073675965 -1694847983 1074567691 -24381426 -870815335 -566290694 1922591556 -92954967 -1607199975 1518669844 785911167 1472098160 -1646801511
REM
CELL 1.54180   50.00000   50.00000   50.00000   90.00000   90.00000   90.00000
LATT -1
SFAC C  
C      1  0.5021730000000  0.5549350000000  0.5317500000000 1.0
C      1  0.5387370000000  0.5401990000000  0.4575860000000 1.0
C      1  0.4521720000000  0.5406860000000  0.4883130000000 1.0
C      1  0.5396320000000  0.5270320000000  0.5348580000000 1.0
C      1  0.4667040000000  0.4578470000000  0.5652960000000 1.0
C      1  0.4967270000000  0.5260100000000  0.5412910000000 1.0
C      1  0.4680800000000  0.5301070000000  0.4367070000000 1.0
C      1  0.4294030000000  0.4874480000000  0.5007160000000 1.0
C      1  0.5430180000000  0.4854400000000  0.4737160000000 1.0
C      1  0.5615340000000  0.5316180000000  0.4731790000000 1.0
C      1  0.5224990000000  0.5712020000000  0.4929370000000 1.0
C      1  0.5173770000000  0.5127040000000  0.5237010000000 1.0
C      1  0.5206350000000  0.5173500000000  0.4473390000000 1.0
C      1  0.4392540000000  0.5279170000000  0.4379170000000 1.0
C      1  0.5323190000000  0.5025170000000  0.4217010000000 1.0
C      1  0.4386400000000  0.5365460000000  0.5142810000000 1.0
C      1  0.4926420000000  0.5562070000000  0.4595400000000 1.0
C      1  0.5631950000000  0.5410380000000  0.5009010000000 1.0
C      1  0.5650090000000  0.5201370000000  0.5218900000000 1.0
C      1  0.4425220000000  0.4927830000000  0.4755100000000 1.0
C      1  0.5028170000000  0.4205400000000  0.5516690000000 1.0
C      1  0.4724270000000  0.4833950000000  0.5178930000000 1.0
C      1  0.5650320000000  0.4912360000000  0.5198400000000 1.0
C      1  0.4700510000000  0.5036390000000  0.5408940000000 1.0
C      1  0.5126750000000  0.5002040000000  0.4970810000000 1.0
C      1  0.5663820000000  0.4833040000000  0.4923250000000 1.0
C      1  0.4465100000000  0.4685360000000  0.5166370000000 1.0
C      1  0.5452730000000  0.5627300000000  0.5091820000000 1.0
C      1  0.4439750000000  0.5191880000000  0.5367840000000 1.0
C      1  0.4724490000000  0.4543350000000  0.4612560000000 1.0
C      1  0.4764320000000  0.4851190000000  0.5645470000000 1.0
C      1  0.4873340000000  0.4350880000000  0.5590670000000 1.0
C      1  0.4961130000000  0.5650090000000  0.5052790000000 1.0
C      1  0.5477510000000  0.4728840000000  0.5383900000000 1.0
C      1  0.5124270000000  0.4497720000000  0.4279870000000 1.0
C      1  0.4485230000000  0.4620550000000  0.5440240000000 1.0
C      1  0.5051930000000  0.4923140000000  0.5730560000000 1.0
C      1  0.4412830000000  0.5212770000000  0.4687050000000 1.0
C      1  0.4946090000000  0.5349250000000  0.4400400000000 1.0
C      1  0.5142200000000  0.4303190000000  0.5260100000000 1.0
C      1  0.5264600000000  0.4747470000000  0.4187070000000 1.0
C      1  0.5054660000000  0.5215430000000  0.5713970000000 1.0
C      1  0.5214870000000  0.5618570000000  0.4654120000000 1.0
C      1  0.4239230000000  0.5108370000000  0.5176180000000 1.0
C      1  0.5188790000000  0.4980440000000  0.4706660000000 1.0
C      1  0.4769540000000  0.4085630000000  0.5005080000000 1.0
C      1  0.4939940000000  0.4397290000000  0.4478660000000 1.0
C      1  0.5664440000000  0.5026130000000  0.4705430000000 1.0
C      1  0.4940190000000  0.4470570000000  0.4762290000000 1.0
C      1  0.5311220000000  0.5554390000000  0.5339440000000 1.0
C      1  0.4946350000000  0.4271430000000  0.4999080000000 1.0
C      1  0.4691830000000  0.4799290000000  0.4706350000000 1.0
C      1  0.4772140000000  0.5552160000000  0.4848800000000 1.0
C      1  0.4863930000000  0.4891610000000  0.4934830000000 1.0
C      1  0.5315910000000  0.4512290000000  0.5300640000000 1.0
C      1  0.5284890000000  0.4813010000000  0.5583460000000 1.0
END
