TITL C-884129-4740-368 -13.7359189682146 125000 -16719.3525336742 0 0 113 (C1) n - 1
REM
REM in /home/nfs/bkarasulu/CARBON/AIRSS/Generating-Clusters/ReaxFF-fromJPCA2015/Units_Real/with-SteepDescent/Only-C1/SD-CG/Try1-3A/FIRE-CG
REM
REM
REM
REM
REM
REM ./C.cell (11c1c37f851c82e70ff6c80c92926a4b)
REM
REM compiler GCC version 9.2.1 20190827 (Red Hat 9.2.1-1)
REM options -cpp -mtune=generic -march=x86-64 -g -O0 -fpre-include=/usr/include/finclude/math-vector-fortran.h
REM seed -1964321403 -1017982582 2081408386 -827329705 -342673135 1969460684 1306846230 730039848 778056387 -1405435524 -599693549 -443878383 1452001826 606616368 944762614 1642999079 -1188088032 -945156320 -545587143 -1274625813 1799789632 43911881 -329482351 1934489721 -1650708527 -1322860820 -227722460 -282330760 1137037435 -861500134 -715815502 -61164078 1739724536
REM
CELL 1.54180   50.00000   50.00000   50.00000   90.00000   90.00000   90.00000
LATT -1
SFAC C  
C      1  0.5669420000000  0.5676090000000  0.4808290000000 1.0
C      1  0.4683200000000  0.5243300000000  0.4785660000000 1.0
C      1  0.4665200000000  0.5291070000000  0.5745100000000 1.0
C      1  0.5683710000000  0.4318730000000  0.5179830000000 1.0
C      1  0.4877910000000  0.4818650000000  0.5858050000000 1.0
C      1  0.4614100000000  0.4828280000000  0.5734470000000 1.0
C      1  0.5389950000000  0.4829480000000  0.5205100000000 1.0
C      1  0.5219010000000  0.5864560000000  0.4823640000000 1.0
C      1  0.4975520000000  0.5585160000000  0.5776040000000 1.0
C      1  0.4276850000000  0.5163250000000  0.5476490000000 1.0
C      1  0.5360280000000  0.5572340000000  0.5344550000000 1.0
C      1  0.4732200000000  0.5069160000000  0.4550450000000 1.0
C      1  0.4223580000000  0.4877020000000  0.5130370000000 1.0
C      1  0.4889940000000  0.4817400000000  0.5070340000000 1.0
C      1  0.4598690000000  0.5497110000000  0.5233040000000 1.0
C      1  0.4956320000000  0.4146260000000  0.5422050000000 1.0
C      1  0.4128790000000  0.4913960000000  0.5415350000000 1.0
C      1  0.5739960000000  0.5500640000000  0.5007500000000 1.0
C      1  0.5040220000000  0.5622790000000  0.4939630000000 1.0
C      1  0.4468640000000  0.5080730000000  0.5685240000000 1.0
C      1  0.5076430000000  0.4729740000000  0.4633280000000 1.0
C      1  0.5345120000000  0.5154270000000  0.4186870000000 1.0
C      1  0.4615550000000  0.4472420000000  0.4794270000000 1.0
C      1  0.5236010000000  0.5438060000000  0.5066450000000 1.0
C      1  0.5113530000000  0.4821080000000  0.5279660000000 1.0
C      1  0.4871950000000  0.5951520000000  0.5313360000000 1.0
C      1  0.5197850000000  0.5785620000000  0.4545300000000 1.0
C      1  0.4390720000000  0.4664610000000  0.4726020000000 1.0
C      1  0.4005440000000  0.5007040000000  0.4813360000000 1.0
C      1  0.5475990000000  0.4402450000000  0.4388610000000 1.0
C      1  0.5342470000000  0.5361880000000  0.5764740000000 1.0
C      1  0.4575860000000  0.4595330000000  0.5275690000000 1.0
C      1  0.4597060000000  0.4253230000000  0.5056170000000 1.0
C      1  0.5184610000000  0.4146640000000  0.4716790000000 1.0
C      1  0.5616650000000  0.5129900000000  0.4289660000000 1.0
C      1  0.5510570000000  0.4196690000000  0.5408810000000 1.0
C      1  0.5114580000000  0.5948840000000  0.5253680000000 1.0
C      1  0.4679010000000  0.5576480000000  0.4283510000000 1.0
C      1  0.4555340000000  0.4571230000000  0.4280310000000 1.0
C      1  0.4996210000000  0.5082350000000  0.5930640000000 1.0
C      1  0.4287890000000  0.5314250000000  0.4523900000000 1.0
C      1  0.5867390000000  0.4631870000000  0.4965240000000 1.0
C      1  0.4696380000000  0.5017210000000  0.5133900000000 1.0
C      1  0.4908290000000  0.4428600000000  0.5575290000000 1.0
C      1  0.5375630000000  0.5866890000000  0.5213100000000 1.0
C      1  0.4714790000000  0.5505530000000  0.4923720000000 1.0
C      1  0.4497110000000  0.4806740000000  0.4487820000000 1.0
C      1  0.4748650000000  0.5167860000000  0.4234340000000 1.0
C      1  0.4592620000000  0.4568890000000  0.5584080000000 1.0
C      1  0.4408070000000  0.5183270000000  0.4766810000000 1.0
C      1  0.4264290000000  0.5558080000000  0.4755030000000 1.0
C      1  0.4841070000000  0.4128290000000  0.5146410000000 1.0
C      1  0.4498920000000  0.4829140000000  0.5154660000000 1.0
C      1  0.4881040000000  0.5236300000000  0.5546900000000 1.0
C      1  0.5010010000000  0.5020370000000  0.4597700000000 1.0
C      1  0.4864770000000  0.5344380000000  0.5950120000000 1.0
C      1  0.5602830000000  0.4387880000000  0.4629880000000 1.0
C      1  0.5234790000000  0.4123440000000  0.5417590000000 1.0
C      1  0.5365950000000  0.5610800000000  0.4386690000000 1.0
C      1  0.5114800000000  0.5261050000000  0.4695160000000 1.0
C      1  0.5348980000000  0.4580390000000  0.5774980000000 1.0
C      1  0.4725380000000  0.5686720000000  0.4547520000000 1.0
C      1  0.4509380000000  0.5341430000000  0.4298520000000 1.0
C      1  0.5285860000000  0.4166850000000  0.4462530000000 1.0
C      1  0.5209950000000  0.4895630000000  0.4142310000000 1.0
C      1  0.4663020000000  0.5777070000000  0.5387870000000 1.0
C      1  0.4084830000000  0.5069690000000  0.4550210000000 1.0
C      1  0.5615000000000  0.5566110000000  0.4528220000000 1.0
C      1  0.5138690000000  0.5164590000000  0.5688950000000 1.0
C      1  0.5323260000000  0.4633690000000  0.4221330000000 1.0
C      1  0.5697430000000  0.5056940000000  0.4550460000000 1.0
C      1  0.4568260000000  0.4357570000000  0.4493130000000 1.0
C      1  0.4215750000000  0.5107240000000  0.4966400000000 1.0
C      1  0.5624740000000  0.5450900000000  0.5411960000000 1.0
C      1  0.4405230000000  0.4357870000000  0.5246690000000 1.0
C      1  0.4779850000000  0.4242680000000  0.4370320000000 1.0
C      1  0.5205990000000  0.5406830000000  0.4229690000000 1.0
C      1  0.5804220000000  0.5024180000000  0.5188670000000 1.0
C      1  0.5791850000000  0.4916100000000  0.4923150000000 1.0
C      1  0.4532090000000  0.5677720000000  0.4757970000000 1.0
C      1  0.4192750000000  0.4657780000000  0.5518680000000 1.0
C      1  0.4197830000000  0.4793470000000  0.4536820000000 1.0
C      1  0.4773890000000  0.5256890000000  0.5281010000000 1.0
C      1  0.4914520000000  0.4921280000000  0.4093570000000 1.0
C      1  0.5074270000000  0.4538140000000  0.5338870000000 1.0
C      1  0.4313910000000  0.5390470000000  0.5280820000000 1.0
C      1  0.5584080000000  0.5042600000000  0.5712890000000 1.0
C      1  0.4914550000000  0.5414210000000  0.4192060000000 1.0
C      1  0.5341890000000  0.4764990000000  0.4745380000000 1.0
C      1  0.4191910000000  0.5508120000000  0.5035860000000 1.0
C      1  0.5654710000000  0.4814940000000  0.5356730000000 1.0
C      1  0.5095390000000  0.4162850000000  0.4978970000000 1.0
C      1  0.5050250000000  0.4593430000000  0.5776560000000 1.0
C      1  0.5360230000000  0.4627890000000  0.4990900000000 1.0
C      1  0.5734290000000  0.4372780000000  0.4879930000000 1.0
C      1  0.5609450000000  0.5318570000000  0.5676440000000 1.0
C      1  0.5521400000000  0.4992480000000  0.4771600000000 1.0
C      1  0.5571240000000  0.4778530000000  0.5683100000000 1.0
C      1  0.4746880000000  0.4721310000000  0.4148030000000 1.0
C      1  0.4997200000000  0.5575510000000  0.4632080000000 1.0
C      1  0.5480570000000  0.5877240000000  0.4940030000000 1.0
C      1  0.5804730000000  0.5325830000000  0.5214680000000 1.0
C      1  0.5323490000000  0.5246080000000  0.4884550000000 1.0
C      1  0.4788670000000  0.5720810000000  0.5625760000000 1.0
C      1  0.5228320000000  0.5565080000000  0.5626660000000 1.0
C      1  0.4318920000000  0.4411180000000  0.5534000000000 1.0
C      1  0.5746910000000  0.5321970000000  0.4453310000000 1.0
C      1  0.4859920000000  0.4643460000000  0.4838900000000 1.0
C      1  0.5187270000000  0.4418670000000  0.5101270000000 1.0
C      1  0.5474080000000  0.4375650000000  0.5631220000000 1.0
C      1  0.5043850000000  0.4260410000000  0.4295910000000 1.0
C      1  0.5089310000000  0.4546470000000  0.4350190000000 1.0
C      1  0.5813840000000  0.4564510000000  0.5245590000000 1.0
END
