TITL C-884140-4336-419 55.0365731045223 125000 -16819.3279822256 0 0 115 (C1) n - 1
REM
REM in /home/nfs/bkarasulu/CARBON/AIRSS/Generating-Clusters/ReaxFF-fromJPCA2015/Units_Real/with-SteepDescent/Only-C1/SD-CG/Try1-3A/FIRE-CG
REM
REM
REM
REM
REM
REM ./C.cell (11c1c37f851c82e70ff6c80c92926a4b)
REM
REM compiler GCC version 9.2.1 20190827 (Red Hat 9.2.1-1)
REM options -cpp -mtune=generic -march=x86-64 -g -O0 -fpre-include=/usr/include/finclude/math-vector-fortran.h
REM seed -210146938 1807185871 573305429 -313638121 -1220142277 658891690 -1418563876 200778998 -1067706565 -2063433298 -149920167 425194476 -772325519 1588126125 -839641842 -2064421387 253505928 476570109 -2053685296 -606106382 1572466840 -230730885 -1315797642 697450546 116754214 1270194231 -1088461186 94587925 989787945 2025883653 636630900 -1276735106 -1860070736
REM
CELL 1.54180   50.00000   50.00000   50.00000   90.00000   90.00000   90.00000
LATT -1
SFAC C  
C      1  0.4664020000000  0.4816000000000  0.5538530000000 1.0
C      1  0.4528340000000  0.4125220000000  0.4328090000000 1.0
C      1  0.4996780000000  0.5581260000000  0.5178160000000 1.0
C      1  0.5110510000000  0.4108250000000  0.5079670000000 1.0
C      1  0.4674620000000  0.4853780000000  0.4385020000000 1.0
C      1  0.5743380000000  0.4773700000000  0.5633920000000 1.0
C      1  0.3962480000000  0.4830570000000  0.5187460000000 1.0
C      1  0.4879140000000  0.4737620000000  0.5999870000000 1.0
C      1  0.5684290000000  0.5283390000000  0.5600560000000 1.0
C      1  0.4643340000000  0.5368750000000  0.4707790000000 1.0
C      1  0.4643680000000  0.4620550000000  0.5903120000000 1.0
C      1  0.4793430000000  0.5738340000000  0.5312780000000 1.0
C      1  0.5631290000000  0.4745450000000  0.4174970000000 1.0
C      1  0.5254200000000  0.4142320000000  0.5329950000000 1.0
C      1  0.5900490000000  0.4762370000000  0.4667000000000 1.0
C      1  0.4813160000000  0.4310920000000  0.5421340000000 1.0
C      1  0.4807110000000  0.4480550000000  0.4975450000000 1.0
C      1  0.4476840000000  0.5258680000000  0.4505170000000 1.0
C      1  0.5282350000000  0.4993670000000  0.4907710000000 1.0
C      1  0.5246150000000  0.5431740000000  0.5289500000000 1.0
C      1  0.5224920000000  0.4538420000000  0.5586180000000 1.0
C      1  0.3953880000000  0.5222200000000  0.4569560000000 1.0
C      1  0.4562530000000  0.5257430000000  0.4225640000000 1.0
C      1  0.4054680000000  0.5060980000000  0.4342040000000 1.0
C      1  0.4957670000000  0.5370890000000  0.4686470000000 1.0
C      1  0.4574350000000  0.4492650000000  0.4799260000000 1.0
C      1  0.4285090000000  0.4620890000000  0.4236980000000 1.0
C      1  0.5054850000000  0.4262560000000  0.4443630000000 1.0
C      1  0.4997770000000  0.5587590000000  0.4891300000000 1.0
C      1  0.4618310000000  0.4523860000000  0.5498730000000 1.0
C      1  0.4238950000000  0.5174060000000  0.5295300000000 1.0
C      1  0.5361430000000  0.5200850000000  0.5120240000000 1.0
C      1  0.4526670000000  0.5682350000000  0.4964780000000 1.0
C      1  0.4814670000000  0.5189520000000  0.5434060000000 1.0
C      1  0.5501490000000  0.4728290000000  0.5283160000000 1.0
C      1  0.5732420000000  0.5491050000000  0.5379890000000 1.0
C      1  0.4630090000000  0.4564930000000  0.4488950000000 1.0
C      1  0.5085290000000  0.4292360000000  0.5525440000000 1.0
C      1  0.5421120000000  0.4876800000000  0.4034630000000 1.0
C      1  0.3963140000000  0.5103270000000  0.5111230000000 1.0
C      1  0.4686030000000  0.4972680000000  0.5296710000000 1.0
C      1  0.5989630000000  0.5396810000000  0.4905750000000 1.0
C      1  0.6117000000000  0.5223950000000  0.4730040000000 1.0
C      1  0.5351290000000  0.5754290000000  0.4730070000000 1.0
C      1  0.5448070000000  0.5256940000000  0.5767780000000 1.0
C      1  0.5413030000000  0.4439540000000  0.5011490000000 1.0
C      1  0.4952820000000  0.4725760000000  0.5019400000000 1.0
C      1  0.5513550000000  0.5618660000000  0.4931670000000 1.0
C      1  0.5665630000000  0.5004430000000  0.4104400000000 1.0
C      1  0.5481960000000  0.4313060000000  0.5270680000000 1.0
C      1  0.5368460000000  0.5608410000000  0.4475130000000 1.0
C      1  0.4590780000000  0.5680750000000  0.4705450000000 1.0
C      1  0.5299390000000  0.5144920000000  0.4008800000000 1.0
C      1  0.5789060000000  0.4746420000000  0.5157880000000 1.0
C      1  0.4940090000000  0.4944600000000  0.4456160000000 1.0
C      1  0.4427470000000  0.4531720000000  0.5722830000000 1.0
C      1  0.5105630000000  0.4718680000000  0.4394240000000 1.0
C      1  0.5562400000000  0.5393090000000  0.4405050000000 1.0
C      1  0.4350710000000  0.4491200000000  0.4951410000000 1.0
C      1  0.5617250000000  0.5155500000000  0.4600840000000 1.0
C      1  0.5903880000000  0.5025060000000  0.4541710000000 1.0
C      1  0.5826590000000  0.5031880000000  0.5531560000000 1.0
C      1  0.5020820000000  0.5238930000000  0.4031490000000 1.0
C      1  0.5100260000000  0.5489830000000  0.4428550000000 1.0
C      1  0.4985950000000  0.5511990000000  0.5775310000000 1.0
C      1  0.4206210000000  0.4694670000000  0.5579090000000 1.0
C      1  0.5109340000000  0.4932590000000  0.6052670000000 1.0
C      1  0.4985640000000  0.5167210000000  0.6008200000000 1.0
C      1  0.5261500000000  0.4380610000000  0.4626580000000 1.0
C      1  0.4323070000000  0.5455190000000  0.5372510000000 1.0
C      1  0.4790090000000  0.5349320000000  0.5934260000000 1.0
C      1  0.5380120000000  0.5024890000000  0.5937570000000 1.0
C      1  0.5675490000000  0.5368640000000  0.4851580000000 1.0
C      1  0.4805100000000  0.5405710000000  0.4135440000000 1.0
C      1  0.4479080000000  0.4987230000000  0.5722250000000 1.0
C      1  0.5495440000000  0.5593470000000  0.5222050000000 1.0
C      1  0.4411040000000  0.5442240000000  0.5649240000000 1.0
C      1  0.5862790000000  0.4876680000000  0.4285380000000 1.0
C      1  0.4829680000000  0.5681400000000  0.5598970000000 1.0
C      1  0.4914840000000  0.4495510000000  0.4363300000000 1.0
C      1  0.4857380000000  0.4238800000000  0.5141730000000 1.0
C      1  0.5959150000000  0.5463740000000  0.5203150000000 1.0
C      1  0.5195120000000  0.5341640000000  0.5622740000000 1.0
C      1  0.5841920000000  0.5021350000000  0.5235400000000 1.0
C      1  0.4404130000000  0.4403920000000  0.4352300000000 1.0
C      1  0.5501100000000  0.4817210000000  0.5771250000000 1.0
C      1  0.5061600000000  0.5826990000000  0.4744000000000 1.0
C      1  0.5511150000000  0.4509880000000  0.5490160000000 1.0
C      1  0.4041290000000  0.4606650000000  0.5334380000000 1.0
C      1  0.5289330000000  0.4220970000000  0.4867580000000 1.0
C      1  0.4166420000000  0.4500080000000  0.5095570000000 1.0
C      1  0.5011110000000  0.5081510000000  0.4723930000000 1.0
C      1  0.4519020000000  0.5248320000000  0.5841330000000 1.0
C      1  0.5647880000000  0.5193710000000  0.5092110000000 1.0
C      1  0.4223980000000  0.5129670000000  0.4551300000000 1.0
C      1  0.4892720000000  0.5648120000000  0.4310360000000 1.0
C      1  0.5859260000000  0.4710160000000  0.4890090000000 1.0
C      1  0.5479550000000  0.5367560000000  0.4130560000000 1.0
C      1  0.4833130000000  0.4967300000000  0.4908570000000 1.0
C      1  0.5249010000000  0.4699410000000  0.5045820000000 1.0
C      1  0.5448580000000  0.4914230000000  0.4675040000000 1.0
C      1  0.4467750000000  0.5063740000000  0.5127560000000 1.0
C      1  0.4219560000000  0.4886790000000  0.4174700000000 1.0
C      1  0.3943850000000  0.5174240000000  0.4842500000000 1.0
C      1  0.4829560000000  0.5791590000000  0.4559230000000 1.0
C      1  0.4511540000000  0.4974280000000  0.4172450000000 1.0
C      1  0.5388960000000  0.4900130000000  0.5489380000000 1.0
C      1  0.4801990000000  0.4094110000000  0.4433530000000 1.0
C      1  0.4496870000000  0.5656330000000  0.5233490000000 1.0
C      1  0.4587510000000  0.5112460000000  0.4872660000000 1.0
C      1  0.4684320000000  0.5430740000000  0.5532140000000 1.0
C      1  0.5115350000000  0.4804760000000  0.5517500000000 1.0
C      1  0.5037140000000  0.5082540000000  0.5570780000000 1.0
C      1  0.5345340000000  0.4665750000000  0.4557110000000 1.0
C      1  0.4245310000000  0.4972750000000  0.5552600000000 1.0
END
