TITL C-884135-4325-18 1229042.97223 125000 -15238.9903647397 0 0 104 (C1) n - 1
REM
REM in /home/nfs/bkarasulu/CARBON/AIRSS/Generating-Clusters/ReaxFF-fromJPCA2015/Units_Real/with-SteepDescent/Only-C1/SD-CG/Try1-3A/FIRE-CG
REM
REM
REM
REM
REM
REM ./C.cell (11c1c37f851c82e70ff6c80c92926a4b)
REM
REM compiler GCC version 9.2.1 20190827 (Red Hat 9.2.1-1)
REM options -cpp -mtune=generic -march=x86-64 -g -O0 -fpre-include=/usr/include/finclude/math-vector-fortran.h
REM seed -1283187717 -1877073985 -1701914960 -1792625110 1552492509 -1747842716 1276310509 -1755119123 977163935 -1434977150 340245420 462369497 877825365 1846700103 -1680257792 49710272 384949087 1252117323 -1971128101 90277026 -1230234666 739678729 1127995083 -386867085 426606254 -426513672 -623251984 1797514616 1526720844 -1635679159 -1440667986 1852367482 -1870237228
REM
CELL 1.54180   50.00000   50.00000   50.00000   90.00000   90.00000   90.00000
LATT -1
SFAC C  
C      1  0.5172490000000  0.4963920000000  0.4113180000000 1.0
C      1  0.5014960000000  0.4307920000000  0.5175660000000 1.0
C      1  0.5361430000000  0.4322160000000  0.4523810000000 1.0
C      1  0.4594680000000  0.5073510000000  0.4995790000000 1.0
C      1  0.4850380000000  0.4651760000000  0.4905710000000 1.0
C      1  0.4354420000000  0.5475790000000  0.4763700000000 1.0
C      1  0.4839220000000  0.4546020000000  0.4209060000000 1.0
C      1  0.5449410000000  0.5115390000000  0.5075510000000 1.0
C      1  0.4234150000000  0.5262240000000  0.5469050000000 1.0
C      1  0.5077960000000  0.4300020000000  0.4571460000000 1.0
C      1  0.4729160000000  0.4595510000000  0.5677120000000 1.0
C      1  0.5141040000000  0.4933800000000  0.5950170000000 1.0
C      1  0.5128670000000  0.4304340000000  0.5462800000000 1.0
C      1  0.5663350000000  0.5543180000000  0.4742470000000 1.0
C      1  0.5255210000000  0.5484230000000  0.4130080000000 1.0
C      1  0.4441100000000  0.5178790000000  0.4250860000000 1.0
C      1  0.4420470000000  0.4609820000000  0.4464160000000 1.0
C      1  0.5612900000000  0.4381900000000  0.5476950000000 1.0
C      1  0.4696590000000  0.4894920000000  0.5762360000000 1.0
C      1  0.5399600000000  0.4247960000000  0.5332010000000 1.0
C      1  0.5016040000000  0.5795680000000  0.4793240000000 1.0
C      1  0.5435180000000  0.5197900000000  0.4486820000000 1.0
C      1  0.4867240000000  0.5347800000000  0.4676190000000 1.0
C      1  0.4579640000000  0.4357340000000  0.4548350000000 1.0
C      1  0.4612170000000  0.4250510000000  0.4815350000000 1.0
C      1  0.5462890000000  0.4908080000000  0.5275980000000 1.0
C      1  0.5207140000000  0.5037790000000  0.4928620000000 1.0
C      1  0.5252040000000  0.5037540000000  0.4648200000000 1.0
C      1  0.5521910000000  0.4570550000000  0.5689010000000 1.0
C      1  0.5271190000000  0.4768610000000  0.4593490000000 1.0
C      1  0.4471570000000  0.5719040000000  0.5176590000000 1.0
C      1  0.5187520000000  0.5672330000000  0.5320690000000 1.0
C      1  0.4476570000000  0.5381470000000  0.5550370000000 1.0
C      1  0.5097870000000  0.4657370000000  0.5869270000000 1.0
C      1  0.5134510000000  0.5618750000000  0.5844430000000 1.0
C      1  0.5690080000000  0.5081580000000  0.4908190000000 1.0
C      1  0.5277450000000  0.5276130000000  0.5665860000000 1.0
C      1  0.5261470000000  0.5737760000000  0.5614050000000 1.0
C      1  0.4950580000000  0.4562030000000  0.5483680000000 1.0
C      1  0.5046260000000  0.5260450000000  0.5051600000000 1.0
C      1  0.5821260000000  0.4808480000000  0.4930150000000 1.0
C      1  0.4870900000000  0.5903210000000  0.5008750000000 1.0
C      1  0.5373060000000  0.5042880000000  0.5801280000000 1.0
C      1  0.5477580000000  0.4757910000000  0.4383020000000 1.0
C      1  0.4286020000000  0.5524990000000  0.5040820000000 1.0
C      1  0.4697800000000  0.5688170000000  0.5378380000000 1.0
C      1  0.4875870000000  0.5078800000000  0.4217320000000 1.0
C      1  0.5724380000000  0.4936560000000  0.5446810000000 1.0
C      1  0.5679780000000  0.4722000000000  0.4541090000000 1.0
C      1  0.5104690000000  0.4550670000000  0.4743470000000 1.0
C      1  0.4384760000000  0.4658020000000  0.4862510000000 1.0
C      1  0.4585530000000  0.4702260000000  0.4241760000000 1.0
C      1  0.5692540000000  0.5194690000000  0.5460960000000 1.0
C      1  0.5259450000000  0.4470920000000  0.5728240000000 1.0
C      1  0.4161220000000  0.5304210000000  0.5182110000000 1.0
C      1  0.5583650000000  0.4864350000000  0.5684440000000 1.0
C      1  0.5051280000000  0.4793260000000  0.5570210000000 1.0
C      1  0.5430710000000  0.5006100000000  0.4257920000000 1.0
C      1  0.4619800000000  0.5861430000000  0.5013050000000 1.0
C      1  0.5192070000000  0.5245010000000  0.4026350000000 1.0
C      1  0.5768640000000  0.4568190000000  0.4744740000000 1.0
C      1  0.4678530000000  0.5055720000000  0.5283920000000 1.0
C      1  0.4932870000000  0.5822520000000  0.5266690000000 1.0
C      1  0.4731440000000  0.4370490000000  0.5069340000000 1.0
C      1  0.4153350000000  0.4838450000000  0.5252980000000 1.0
C      1  0.5456750000000  0.5684050000000  0.4578880000000 1.0
C      1  0.5342400000000  0.4464770000000  0.4230300000000 1.0
C      1  0.4617040000000  0.4826460000000  0.4837740000000 1.0
C      1  0.5673580000000  0.5259860000000  0.4684180000000 1.0
C      1  0.4094510000000  0.5046590000000  0.5057970000000 1.0
C      1  0.4840750000000  0.4331000000000  0.4405640000000 1.0
C      1  0.5103950000000  0.4640620000000  0.4138510000000 1.0
C      1  0.4895330000000  0.4923550000000  0.5230140000000 1.0
C      1  0.5206020000000  0.5415870000000  0.5197460000000 1.0
C      1  0.4619410000000  0.4973130000000  0.4125590000000 1.0
C      1  0.4794320000000  0.5140360000000  0.4483900000000 1.0
C      1  0.4721240000000  0.5484000000000  0.5584700000000 1.0
C      1  0.5542500000000  0.5656360000000  0.4995660000000 1.0
C      1  0.4511960000000  0.5063360000000  0.4517290000000 1.0
C      1  0.4292210000000  0.4612010000000  0.5130030000000 1.0
C      1  0.4247660000000  0.4966780000000  0.5498570000000 1.0
C      1  0.4902100000000  0.5077960000000  0.5864060000000 1.0
C      1  0.5489240000000  0.4339190000000  0.5050290000000 1.0
C      1  0.4144320000000  0.4984330000000  0.4774770000000 1.0
C      1  0.5527820000000  0.5395530000000  0.5504800000000 1.0
C      1  0.4547060000000  0.5602910000000  0.4566270000000 1.0
C      1  0.4496990000000  0.4437140000000  0.5556270000000 1.0
C      1  0.4841220000000  0.5630970000000  0.4620500000000 1.0
C      1  0.5737840000000  0.4473030000000  0.5233100000000 1.0
C      1  0.4479620000000  0.5467860000000  0.4310780000000 1.0
C      1  0.4534490000000  0.4960660000000  0.5533350000000 1.0
C      1  0.4777090000000  0.5283310000000  0.4944480000000 1.0
C      1  0.4987910000000  0.5341370000000  0.5732530000000 1.0
C      1  0.5591230000000  0.5542460000000  0.5259420000000 1.0
C      1  0.5832560000000  0.4738350000000  0.5206210000000 1.0
C      1  0.5552280000000  0.4368960000000  0.4741620000000 1.0
C      1  0.5051440000000  0.4801120000000  0.5056750000000 1.0
C      1  0.5209000000000  0.4435580000000  0.5009110000000 1.0
C      1  0.4322530000000  0.5193990000000  0.4699790000000 1.0
C      1  0.4224940000000  0.4728120000000  0.4651450000000 1.0
C      1  0.4479950000000  0.4441020000000  0.5264420000000 1.0
C      1  0.5358070000000  0.5491460000000  0.4373890000000 1.0
C      1  0.5306910000000  0.5760210000000  0.4812520000000 1.0
C      1  0.5252090000000  0.4814550000000  0.5408810000000 1.0
END
