TITL C-884142-5251-293 28.6424390190878 125000 -24914.7973351115 0 0 165 (C1) n - 1
REM
REM in /home/nfs/bkarasulu/CARBON/AIRSS/Generating-Clusters/ReaxFF-fromJPCA2015/Units_Real/with-SteepDescent/Only-C1/SD-CG/Try1-3A/FIRE-CG
REM
REM
REM
REM
REM
REM ./C.cell (11c1c37f851c82e70ff6c80c92926a4b)
REM
REM compiler GCC version 9.2.1 20190827 (Red Hat 9.2.1-1)
REM options -cpp -mtune=generic -march=x86-64 -g -O0 -fpre-include=/usr/include/finclude/math-vector-fortran.h
REM seed 881506494 1425638685 -906318265 353727270 1461949074 2096774707 1582185892 -515096674 2092347088 -1467824498 -1168157157 -1009534536 -1743365272 -281721106 -133189995 1053382971 596628700 1301322255 -828438197 1297496429 -720360144 575633168 -751860837 -439415762 1115673780 -1364387059 409317195 927612681 -1620362005 -1050707110 2082365647 1889333735 -1989037731
REM
CELL 1.54180   50.00000   50.00000   50.00000   90.00000   90.00000   90.00000
LATT -1
SFAC C  
C      1  0.5226500000000  0.5296110000000  0.3875280000000 1.0
C      1  0.4430910000000  0.4429830000000  0.5438570000000 1.0
C      1  0.4666440000000  0.4559820000000  0.5293360000000 1.0
C      1  0.6028420000000  0.4763440000000  0.4838170000000 1.0
C      1  0.5670140000000  0.5266970000000  0.5302760000000 1.0
C      1  0.4754930000000  0.5735320000000  0.5872470000000 1.0
C      1  0.4532590000000  0.4678990000000  0.4840090000000 1.0
C      1  0.5253670000000  0.4745950000000  0.4463330000000 1.0
C      1  0.4244550000000  0.5100790000000  0.5025580000000 1.0
C      1  0.5788250000000  0.4493310000000  0.4432570000000 1.0
C      1  0.4460030000000  0.5054890000000  0.4510390000000 1.0
C      1  0.4785740000000  0.4494180000000  0.4172260000000 1.0
C      1  0.4528410000000  0.4340150000000  0.5700010000000 1.0
C      1  0.5533920000000  0.5973670000000  0.5130460000000 1.0
C      1  0.4399960000000  0.5465670000000  0.5857560000000 1.0
C      1  0.4651380000000  0.5651840000000  0.4629750000000 1.0
C      1  0.4566580000000  0.5104100000000  0.6101230000000 1.0
C      1  0.5822240000000  0.4944520000000  0.4972160000000 1.0
C      1  0.4363610000000  0.5514440000000  0.4325000000000 1.0
C      1  0.4600350000000  0.4425440000000  0.4991130000000 1.0
C      1  0.5802190000000  0.5546910000000  0.5711720000000 1.0
C      1  0.4379290000000  0.4331660000000  0.4499280000000 1.0
C      1  0.5129430000000  0.4394230000000  0.5080800000000 1.0
C      1  0.5186510000000  0.4115180000000  0.5141810000000 1.0
C      1  0.4963200000000  0.4964950000000  0.4792180000000 1.0
C      1  0.4797860000000  0.5178260000000  0.4922140000000 1.0
C      1  0.5358660000000  0.3914850000000  0.4735640000000 1.0
C      1  0.5519840000000  0.5489250000000  0.5200900000000 1.0
C      1  0.4312790000000  0.5324610000000  0.5211700000000 1.0
C      1  0.5606670000000  0.4558580000000  0.4220140000000 1.0
C      1  0.5485830000000  0.4318550000000  0.5553590000000 1.0
C      1  0.4783720000000  0.4276860000000  0.4823200000000 1.0
C      1  0.5678930000000  0.5586300000000  0.4692330000000 1.0
C      1  0.5467630000000  0.5996660000000  0.4843000000000 1.0
C      1  0.4821750000000  0.4734450000000  0.5899570000000 1.0
C      1  0.5211750000000  0.5446410000000  0.4824140000000 1.0
C      1  0.4687230000000  0.4027720000000  0.4704130000000 1.0
C      1  0.5085440000000  0.4828280000000  0.3941800000000 1.0
C      1  0.5984320000000  0.4530330000000  0.5011570000000 1.0
C      1  0.4746610000000  0.5261030000000  0.3991150000000 1.0
C      1  0.4051660000000  0.5366830000000  0.5346610000000 1.0
C      1  0.5994620000000  0.5014630000000  0.5319770000000 1.0
C      1  0.4303590000000  0.4789200000000  0.5766140000000 1.0
C      1  0.5241240000000  0.5402610000000  0.5891780000000 1.0
C      1  0.5192380000000  0.6079940000000  0.4879690000000 1.0
C      1  0.5954480000000  0.4721290000000  0.4555820000000 1.0
C      1  0.5415570000000  0.3970050000000  0.5019600000000 1.0
C      1  0.5315390000000  0.4844960000000  0.4902600000000 1.0
C      1  0.4766950000000  0.4175390000000  0.5636730000000 1.0
C      1  0.5294290000000  0.4608290000000  0.4716500000000 1.0
C      1  0.5313460000000  0.5018110000000  0.3894150000000 1.0
C      1  0.4101660000000  0.4893310000000  0.5548130000000 1.0
C      1  0.5670340000000  0.5239370000000  0.4199700000000 1.0
C      1  0.4302230000000  0.4185030000000  0.4732630000000 1.0
C      1  0.4045460000000  0.4749900000000  0.4639330000000 1.0
C      1  0.4591810000000  0.5590240000000  0.5686390000000 1.0
C      1  0.5147540000000  0.4594230000000  0.5263520000000 1.0
C      1  0.5547850000000  0.4369200000000  0.4816520000000 1.0
C      1  0.4951330000000  0.4794650000000  0.5636530000000 1.0
C      1  0.5714970000000  0.5178240000000  0.4851190000000 1.0
C      1  0.3946990000000  0.5004560000000  0.4734470000000 1.0
C      1  0.5060660000000  0.4566690000000  0.4070900000000 1.0
C      1  0.5295540000000  0.5789880000000  0.4438450000000 1.0
C      1  0.4215220000000  0.5680460000000  0.4816850000000 1.0
C      1  0.5977300000000  0.5294220000000  0.4864070000000 1.0
C      1  0.4908410000000  0.4904130000000  0.4322690000000 1.0
C      1  0.4316130000000  0.4624610000000  0.4585310000000 1.0
C      1  0.4143660000000  0.4606290000000  0.5151680000000 1.0
C      1  0.4162850000000  0.5315730000000  0.4371680000000 1.0
C      1  0.5825230000000  0.5321090000000  0.5539520000000 1.0
C      1  0.4660490000000  0.5466270000000  0.4206650000000 1.0
C      1  0.5596240000000  0.4186570000000  0.5068600000000 1.0
C      1  0.5708610000000  0.4550340000000  0.4909650000000 1.0
C      1  0.4753520000000  0.6091670000000  0.5472650000000 1.0
C      1  0.5890710000000  0.4506550000000  0.5287370000000 1.0
C      1  0.5312290000000  0.4623250000000  0.5924700000000 1.0
C      1  0.5475710000000  0.4085280000000  0.4513450000000 1.0
C      1  0.4308940000000  0.5085150000000  0.4281010000000 1.0
C      1  0.4978340000000  0.5285950000000  0.6017610000000 1.0
C      1  0.4675810000000  0.3994900000000  0.5111790000000 1.0
C      1  0.4792910000000  0.4021400000000  0.5380150000000 1.0
C      1  0.4623940000000  0.4289550000000  0.4316020000000 1.0
C      1  0.5261550000000  0.5589270000000  0.5663790000000 1.0
C      1  0.5088660000000  0.4017900000000  0.5403840000000 1.0
C      1  0.4478120000000  0.5565450000000  0.5191480000000 1.0
C      1  0.4992430000000  0.5096910000000  0.4528270000000 1.0
C      1  0.4014440000000  0.5274800000000  0.4627470000000 1.0
C      1  0.5969690000000  0.5257800000000  0.5169030000000 1.0
C      1  0.4243560000000  0.4347040000000  0.5231370000000 1.0
C      1  0.5511850000000  0.5414290000000  0.4889320000000 1.0
C      1  0.4928730000000  0.4599660000000  0.5423530000000 1.0
C      1  0.5000940000000  0.4481460000000  0.4826210000000 1.0
C      1  0.5580950000000  0.5021270000000  0.4015140000000 1.0
C      1  0.4853250000000  0.5822230000000  0.5468290000000 1.0
C      1  0.4842350000000  0.3877180000000  0.4899100000000 1.0
C      1  0.4009110000000  0.4814300000000  0.5290980000000 1.0
C      1  0.5672560000000  0.4310090000000  0.5322130000000 1.0
C      1  0.5645180000000  0.5776000000000  0.5560870000000 1.0
C      1  0.5684460000000  0.4270160000000  0.4587900000000 1.0
C      1  0.4554020000000  0.5398650000000  0.6103070000000 1.0
C      1  0.5271640000000  0.5040900000000  0.4455650000000 1.0
C      1  0.3904060000000  0.5344030000000  0.5097140000000 1.0
C      1  0.5273720000000  0.4830210000000  0.5191430000000 1.0
C      1  0.5355310000000  0.5152800000000  0.5918650000000 1.0
C      1  0.4715190000000  0.5076000000000  0.5422280000000 1.0
C      1  0.5013670000000  0.5919880000000  0.4712600000000 1.0
C      1  0.5080080000000  0.3894460000000  0.4696930000000 1.0
C      1  0.5411250000000  0.5253010000000  0.4324830000000 1.0
C      1  0.5212250000000  0.5170760000000  0.5451270000000 1.0
C      1  0.4960060000000  0.5427270000000  0.3882840000000 1.0
C      1  0.4053150000000  0.5179840000000  0.5577450000000 1.0
C      1  0.5541750000000  0.5828120000000  0.4610090000000 1.0
C      1  0.4549900000000  0.4862680000000  0.5287670000000 1.0
C      1  0.4908210000000  0.5632740000000  0.4082410000000 1.0
C      1  0.4413900000000  0.4812630000000  0.4333310000000 1.0
C      1  0.4399120000000  0.4178860000000  0.5025500000000 1.0
C      1  0.4867680000000  0.5000120000000  0.4043570000000 1.0
C      1  0.5723790000000  0.4811950000000  0.4157290000000 1.0
C      1  0.5597450000000  0.4790290000000  0.4964040000000 1.0
C      1  0.4869890000000  0.5956670000000  0.5717220000000 1.0
C      1  0.5013380000000  0.4271700000000  0.5769250000000 1.0
C      1  0.5236470000000  0.4171690000000  0.5607260000000 1.0
C      1  0.5503150000000  0.4573430000000  0.5695410000000 1.0
C      1  0.4746230000000  0.5882490000000  0.4766760000000 1.0
C      1  0.5906670000000  0.4936520000000  0.4373950000000 1.0
C      1  0.4365620000000  0.5676220000000  0.4560620000000 1.0
C      1  0.5888050000000  0.5225270000000  0.4393320000000 1.0
C      1  0.4526460000000  0.4610450000000  0.5808570000000 1.0
C      1  0.4812030000000  0.5521600000000  0.6076950000000 1.0
C      1  0.5317300000000  0.6001460000000  0.5324730000000 1.0
C      1  0.4688130000000  0.4728190000000  0.4297190000000 1.0
C      1  0.4757840000000  0.4058880000000  0.4412180000000 1.0
C      1  0.5919990000000  0.5438510000000  0.4611040000000 1.0
C      1  0.4619350000000  0.5979570000000  0.4997320000000 1.0
C      1  0.4396460000000  0.5783630000000  0.5031340000000 1.0
C      1  0.5269820000000  0.4199660000000  0.4354870000000 1.0
C      1  0.4968600000000  0.5068600000000  0.5549190000000 1.0
C      1  0.5095540000000  0.6098550000000  0.5155070000000 1.0
C      1  0.5295630000000  0.4494440000000  0.4245810000000 1.0
C      1  0.4017180000000  0.5467720000000  0.4844820000000 1.0
C      1  0.4998060000000  0.5377340000000  0.5002240000000 1.0
C      1  0.5875840000000  0.4769850000000  0.5430700000000 1.0
C      1  0.4977090000000  0.5457540000000  0.5272340000000 1.0
C      1  0.4325750000000  0.5014930000000  0.5942980000000 1.0
C      1  0.5049360000000  0.4028870000000  0.4436420000000 1.0
C      1  0.5038400000000  0.4514970000000  0.5929710000000 1.0
C      1  0.5236400000000  0.5448390000000  0.5387860000000 1.0
C      1  0.4362280000000  0.4823920000000  0.5056340000000 1.0
C      1  0.5315350000000  0.5433880000000  0.4115660000000 1.0
C      1  0.5448590000000  0.4999780000000  0.5380770000000 1.0
C      1  0.4821050000000  0.4721200000000  0.4812160000000 1.0
C      1  0.4205770000000  0.5246390000000  0.5814800000000 1.0
C      1  0.4800930000000  0.6113680000000  0.5184450000000 1.0
C      1  0.5362740000000  0.4895770000000  0.5929140000000 1.0
C      1  0.5659030000000  0.5748760000000  0.5269310000000 1.0
C      1  0.5133980000000  0.5655230000000  0.4641730000000 1.0
C      1  0.4718030000000  0.5564040000000  0.5390090000000 1.0
C      1  0.4620560000000  0.5238020000000  0.4651140000000 1.0
C      1  0.4831710000000  0.5030420000000  0.6030010000000 1.0
C      1  0.4672840000000  0.5086760000000  0.5160420000000 1.0
C      1  0.5364890000000  0.5848150000000  0.5587250000000 1.0
C      1  0.5611510000000  0.4804600000000  0.5549730000000 1.0
C      1  0.3951250000000  0.5044050000000  0.5057670000000 1.0
C      1  0.5176970000000  0.5683040000000  0.4185590000000 1.0
C      1  0.4779220000000  0.5419660000000  0.4490300000000 1.0
END
