TITL C-883726-8501-247 10.6392740886387 125000 -20621.5524470023 0 0 138 (C1) n - 1
REM
REM in /home/nfs/bkarasulu/CARBON/AIRSS/Generating-Clusters/ReaxFF-fromJPCA2015/Units_Real/with-SteepDescent/Only-C1/SD-CG/Try1-3A/FIRE-CG
REM
REM
REM
REM
REM
REM ./C.cell (11c1c37f851c82e70ff6c80c92926a4b)
REM
REM compiler GCC version 9.2.1 20190827 (Red Hat 9.2.1-1)
REM options -cpp -mtune=generic -march=x86-64 -g -O0 -fpre-include=/usr/include/finclude/math-vector-fortran.h
REM seed -1682121690 -1381925940 -1934529160 345920993 -669334011 1624994619 1501637787 1984199065 1021830008 931976705 429900294 530042561 -1951105233 1354374199 2070344841 1887502455 1721986804 1876492062 -617225243 885707632 -1969713424 836622120 334861359 239844470 -941792017 1184179608 1333223523 794620313 897185178 549882865 -1650579626 481510742 -779230475
REM
CELL 1.54180   50.00000   50.00000   50.00000   90.00000   90.00000   90.00000
LATT -1
SFAC C  
C      1  0.6088320000000  0.5242310000000  0.4811070000000 1.0
C      1  0.4957880000000  0.4876240000000  0.5000170000000 1.0
C      1  0.5039120000000  0.4126060000000  0.5432650000000 1.0
C      1  0.4099210000000  0.5687310000000  0.5135390000000 1.0
C      1  0.6189380000000  0.4743620000000  0.4760170000000 1.0
C      1  0.6071410000000  0.5241840000000  0.5075080000000 1.0
C      1  0.4285300000000  0.5500100000000  0.4489570000000 1.0
C      1  0.5299930000000  0.5648040000000  0.5514430000000 1.0
C      1  0.4564300000000  0.4274710000000  0.5475300000000 1.0
C      1  0.4517200000000  0.4896750000000  0.4838210000000 1.0
C      1  0.4794640000000  0.4376940000000  0.4279060000000 1.0
C      1  0.3993360000000  0.4900750000000  0.5079990000000 1.0
C      1  0.5146090000000  0.5632280000000  0.4415190000000 1.0
C      1  0.4925950000000  0.4523110000000  0.5725820000000 1.0
C      1  0.4231950000000  0.5736320000000  0.5384800000000 1.0
C      1  0.4635370000000  0.5668760000000  0.5390290000000 1.0
C      1  0.4120470000000  0.5016890000000  0.4557170000000 1.0
C      1  0.4548490000000  0.5020820000000  0.5380660000000 1.0
C      1  0.4832870000000  0.4648870000000  0.4210120000000 1.0
C      1  0.5527320000000  0.5064590000000  0.4855590000000 1.0
C      1  0.5590820000000  0.5539520000000  0.5104930000000 1.0
C      1  0.5024180000000  0.5697620000000  0.5585110000000 1.0
C      1  0.4903680000000  0.5561810000000  0.5354190000000 1.0
C      1  0.4968640000000  0.5475500000000  0.6043030000000 1.0
C      1  0.4454590000000  0.5940990000000  0.4994140000000 1.0
C      1  0.5449060000000  0.4850950000000  0.4139370000000 1.0
C      1  0.5579750000000  0.4393800000000  0.4426070000000 1.0
C      1  0.4469930000000  0.4248360000000  0.4604190000000 1.0
C      1  0.5220160000000  0.4647180000000  0.5241800000000 1.0
C      1  0.4892440000000  0.5130360000000  0.4626990000000 1.0
C      1  0.5612190000000  0.4631240000000  0.4265700000000 1.0
C      1  0.4803350000000  0.4636570000000  0.5050300000000 1.0
C      1  0.6011280000000  0.4511420000000  0.4828180000000 1.0
C      1  0.4146220000000  0.5611610000000  0.4723370000000 1.0
C      1  0.4606940000000  0.4868350000000  0.4318200000000 1.0
C      1  0.4938140000000  0.4242290000000  0.4525160000000 1.0
C      1  0.4983030000000  0.5982790000000  0.4989500000000 1.0
C      1  0.5580920000000  0.4843470000000  0.5884360000000 1.0
C      1  0.4705830000000  0.4155670000000  0.4731670000000 1.0
C      1  0.5387610000000  0.5284900000000  0.5036550000000 1.0
C      1  0.5086630000000  0.4480090000000  0.4625020000000 1.0
C      1  0.5199290000000  0.5418730000000  0.4854060000000 1.0
C      1  0.6001440000000  0.5247760000000  0.5337220000000 1.0
C      1  0.5648250000000  0.5404360000000  0.5601930000000 1.0
C      1  0.5893500000000  0.4979150000000  0.5439080000000 1.0
C      1  0.4512040000000  0.4396310000000  0.4352560000000 1.0
C      1  0.4658080000000  0.5527560000000  0.4799400000000 1.0
C      1  0.4388830000000  0.4659170000000  0.4341150000000 1.0
C      1  0.5625080000000  0.4453980000000  0.5479310000000 1.0
C      1  0.5879460000000  0.4357570000000  0.5049470000000 1.0
C      1  0.4586970000000  0.4687730000000  0.5755290000000 1.0
C      1  0.5836650000000  0.4508100000000  0.5301120000000 1.0
C      1  0.5009830000000  0.5464990000000  0.4212820000000 1.0
C      1  0.4983170000000  0.5295800000000  0.5279250000000 1.0
C      1  0.4803200000000  0.5967020000000  0.4598850000000 1.0
C      1  0.5261370000000  0.4545280000000  0.4848150000000 1.0
C      1  0.4961790000000  0.4159630000000  0.5141170000000 1.0
C      1  0.5706560000000  0.4850200000000  0.4959080000000 1.0
C      1  0.5196150000000  0.5992940000000  0.4797730000000 1.0
C      1  0.4908140000000  0.5328850000000  0.4830180000000 1.0
C      1  0.4429400000000  0.5514860000000  0.5564510000000 1.0
C      1  0.4844700000000  0.4287650000000  0.5584350000000 1.0
C      1  0.4193580000000  0.5852890000000  0.4898480000000 1.0
C      1  0.5292120000000  0.4780490000000  0.5953670000000 1.0
C      1  0.5193610000000  0.3971380000000  0.4727180000000 1.0
C      1  0.5485350000000  0.5147760000000  0.4190540000000 1.0
C      1  0.5772660000000  0.5310910000000  0.4763570000000 1.0
C      1  0.5799850000000  0.4753100000000  0.4448380000000 1.0
C      1  0.5195070000000  0.4841760000000  0.4035410000000 1.0
C      1  0.4478000000000  0.5113860000000  0.5888560000000 1.0
C      1  0.4363440000000  0.4893140000000  0.5798670000000 1.0
C      1  0.5065800000000  0.5057220000000  0.4171130000000 1.0
C      1  0.4676400000000  0.4157860000000  0.5013880000000 1.0
C      1  0.4491730000000  0.5255280000000  0.5467530000000 1.0
C      1  0.4862350000000  0.5140150000000  0.5072950000000 1.0
C      1  0.4733660000000  0.4844210000000  0.5547890000000 1.0
C      1  0.5691620000000  0.5567470000000  0.4821660000000 1.0
C      1  0.4576580000000  0.5567640000000  0.4477460000000 1.0
C      1  0.4286790000000  0.5224700000000  0.4403680000000 1.0
C      1  0.4177580000000  0.4731420000000  0.4522060000000 1.0
C      1  0.4194140000000  0.4557270000000  0.5497360000000 1.0
C      1  0.5683390000000  0.5462810000000  0.4550840000000 1.0
C      1  0.5403920000000  0.4382050000000  0.5613370000000 1.0
C      1  0.5085230000000  0.4647330000000  0.4142820000000 1.0
C      1  0.5317050000000  0.4658680000000  0.4581760000000 1.0
C      1  0.4464290000000  0.5376460000000  0.4957130000000 1.0
C      1  0.5239070000000  0.5410940000000  0.4572480000000 1.0
C      1  0.5143820000000  0.5121350000000  0.4494610000000 1.0
C      1  0.5220700000000  0.4778080000000  0.4994210000000 1.0
C      1  0.4558270000000  0.6000420000000  0.4155140000000 1.0
C      1  0.4608260000000  0.5507920000000  0.5842890000000 1.0
C      1  0.5752740000000  0.4923970000000  0.5670730000000 1.0
C      1  0.4535610000000  0.4619430000000  0.4924500000000 1.0
C      1  0.4030730000000  0.4993900000000  0.5366580000000 1.0
C      1  0.4721120000000  0.5390900000000  0.4279820000000 1.0
C      1  0.5012800000000  0.4947490000000  0.5589160000000 1.0
C      1  0.4684290000000  0.4944360000000  0.4608860000000 1.0
C      1  0.5782450000000  0.5450230000000  0.5351420000000 1.0
C      1  0.5161550000000  0.5043680000000  0.6005760000000 1.0
C      1  0.4377240000000  0.4396410000000  0.4829160000000 1.0
C      1  0.4080970000000  0.4619830000000  0.5034300000000 1.0
C      1  0.4606590000000  0.5892950000000  0.4383730000000 1.0
C      1  0.5078900000000  0.5893610000000  0.4546810000000 1.0
C      1  0.4541540000000  0.5100410000000  0.5058620000000 1.0
C      1  0.5700960000000  0.5234810000000  0.4364260000000 1.0
C      1  0.4180340000000  0.5446010000000  0.4966790000000 1.0
C      1  0.5231140000000  0.5285020000000  0.4116780000000 1.0
C      1  0.4461440000000  0.5878710000000  0.5280660000000 1.0
C      1  0.4984810000000  0.4468600000000  0.5193720000000 1.0
C      1  0.5338220000000  0.5349030000000  0.5587830000000 1.0
C      1  0.5902050000000  0.5025390000000  0.4428100000000 1.0
C      1  0.5335700000000  0.4944330000000  0.4654530000000 1.0
C      1  0.4715690000000  0.5855610000000  0.4870900000000 1.0
C      1  0.5135650000000  0.3968080000000  0.4462420000000 1.0
C      1  0.5213400000000  0.4012680000000  0.4997590000000 1.0
C      1  0.4225040000000  0.4458320000000  0.5226400000000 1.0
C      1  0.4158610000000  0.4555460000000  0.4761720000000 1.0
C      1  0.5437700000000  0.4112070000000  0.5141730000000 1.0
C      1  0.5608670000000  0.4245660000000  0.4662700000000 1.0
C      1  0.5212110000000  0.4898040000000  0.5389730000000 1.0
C      1  0.4423910000000  0.4458970000000  0.5642930000000 1.0
C      1  0.4935170000000  0.5203080000000  0.6111300000000 1.0
C      1  0.4149590000000  0.4839920000000  0.5584260000000 1.0
C      1  0.4869290000000  0.5645130000000  0.5840180000000 1.0
C      1  0.5197420000000  0.4562360000000  0.5788170000000 1.0
C      1  0.5327860000000  0.4169870000000  0.5419250000000 1.0
C      1  0.4000160000000  0.5052380000000  0.4823100000000 1.0
C      1  0.5396300000000  0.5726280000000  0.5247310000000 1.0
C      1  0.6117220000000  0.5008040000000  0.4633000000000 1.0
C      1  0.4465110000000  0.4268620000000  0.5195300000000 1.0
C      1  0.4627700000000  0.5266340000000  0.5980570000000 1.0
C      1  0.5246830000000  0.5188710000000  0.5310130000000 1.0
C      1  0.4535370000000  0.5170600000000  0.4262300000000 1.0
C      1  0.5821800000000  0.4796400000000  0.5221780000000 1.0
C      1  0.5247630000000  0.5921620000000  0.5093540000000 1.0
C      1  0.5776420000000  0.4667690000000  0.4740990000000 1.0
C      1  0.5130850000000  0.5170470000000  0.5747170000000 1.0
C      1  0.5651120000000  0.4205510000000  0.4962820000000 1.0
END
