TITL C-884142-5251-367 3.46813036224979 125000 -9152.58833773884 0 0 63 (C1) n - 1
REM
REM in /home/nfs/bkarasulu/CARBON/AIRSS/Generating-Clusters/ReaxFF-fromJPCA2015/Units_Real/with-SteepDescent/Only-C1/SD-CG/Try1-3A/FIRE-CG
REM
REM
REM
REM
REM
REM ./C.cell (11c1c37f851c82e70ff6c80c92926a4b)
REM
REM compiler GCC version 9.2.1 20190827 (Red Hat 9.2.1-1)
REM options -cpp -mtune=generic -march=x86-64 -g -O0 -fpre-include=/usr/include/finclude/math-vector-fortran.h
REM seed -1787541715 481944423 927961653 323054234 1360195872 1949568988 1458531109 247120400 1489980717 1710251634 -913891949 1233680988 39022524 2075979999 -1825316656 854267613 708049245 53504148 -1847376675 -1835414491 512943858 865281917 1842354926 -1815963118 -1390470437 679659585 -1374525478 1128138453 630113704 -200607872 -1109474266 229080174 1248264327
REM
CELL 1.54180   50.00000   50.00000   50.00000   90.00000   90.00000   90.00000
LATT -1
SFAC C  
C      1  0.4898370000000  0.4567240000000  0.4148630000000 1.0
C      1  0.4753520000000  0.5700550000000  0.5003760000000 1.0
C      1  0.5212110000000  0.5490700000000  0.5505670000000 1.0
C      1  0.4879170000000  0.4665770000000  0.5640010000000 1.0
C      1  0.5351960000000  0.4626270000000  0.5510910000000 1.0
C      1  0.5164850000000  0.4767020000000  0.4811380000000 1.0
C      1  0.5127230000000  0.5094370000000  0.5732260000000 1.0
C      1  0.5577880000000  0.4318060000000  0.5077120000000 1.0
C      1  0.4473850000000  0.4469710000000  0.5229000000000 1.0
C      1  0.5244880000000  0.4688310000000  0.5245790000000 1.0
C      1  0.4249040000000  0.4956320000000  0.4840830000000 1.0
C      1  0.4394120000000  0.5431540000000  0.4730100000000 1.0
C      1  0.4928550000000  0.5765870000000  0.4779010000000 1.0
C      1  0.5564420000000  0.5188290000000  0.5430810000000 1.0
C      1  0.4880960000000  0.5295320000000  0.4866130000000 1.0
C      1  0.5688170000000  0.5116580000000  0.5176030000000 1.0
C      1  0.5557900000000  0.4390080000000  0.4808740000000 1.0
C      1  0.4460610000000  0.5415270000000  0.4457250000000 1.0
C      1  0.5666950000000  0.5083460000000  0.4888880000000 1.0
C      1  0.5106920000000  0.4988870000000  0.4328740000000 1.0
C      1  0.5269080000000  0.4378990000000  0.5185030000000 1.0
C      1  0.4969990000000  0.5464620000000  0.4366010000000 1.0
C      1  0.5161550000000  0.4900110000000  0.5065960000000 1.0
C      1  0.5516860000000  0.5470960000000  0.5503450000000 1.0
C      1  0.5228160000000  0.4462780000000  0.4778350000000 1.0
C      1  0.4803340000000  0.4275260000000  0.5054310000000 1.0
C      1  0.5207400000000  0.4326220000000  0.5505220000000 1.0
C      1  0.5182160000000  0.5264440000000  0.4305910000000 1.0
C      1  0.4616380000000  0.5425240000000  0.4973140000000 1.0
C      1  0.5085690000000  0.5430110000000  0.5244710000000 1.0
C      1  0.4642490000000  0.5112770000000  0.5704650000000 1.0
C      1  0.4325720000000  0.4732070000000  0.4667960000000 1.0
C      1  0.5051510000000  0.5191730000000  0.5074850000000 1.0
C      1  0.5302800000000  0.4527940000000  0.4489110000000 1.0
C      1  0.5403930000000  0.5027100000000  0.5650680000000 1.0
C      1  0.4545210000000  0.5287850000000  0.5487260000000 1.0
C      1  0.5473570000000  0.4761390000000  0.5712820000000 1.0
C      1  0.5115420000000  0.4502970000000  0.4300510000000 1.0
C      1  0.4473900000000  0.4501630000000  0.4707350000000 1.0
C      1  0.5406430000000  0.5734060000000  0.4955870000000 1.0
C      1  0.4897080000000  0.4413940000000  0.5546710000000 1.0
C      1  0.4891110000000  0.4869070000000  0.4180870000000 1.0
C      1  0.5282220000000  0.4858020000000  0.4552840000000 1.0
C      1  0.4714650000000  0.4327550000000  0.5332300000000 1.0
C      1  0.4877940000000  0.4925470000000  0.5734030000000 1.0
C      1  0.5149070000000  0.5840230000000  0.4971580000000 1.0
C      1  0.5653500000000  0.5589540000000  0.4955820000000 1.0
C      1  0.4666420000000  0.4712680000000  0.4270600000000 1.0
C      1  0.4370070000000  0.5001420000000  0.5125040000000 1.0
C      1  0.5771820000000  0.5313940000000  0.4996430000000 1.0
C      1  0.4403370000000  0.4755520000000  0.5279640000000 1.0
C      1  0.4558100000000  0.4397580000000  0.4953390000000 1.0
C      1  0.4503770000000  0.5250110000000  0.5203740000000 1.0
C      1  0.5079820000000  0.4291850000000  0.4977860000000 1.0
C      1  0.5498730000000  0.5074020000000  0.4648880000000 1.0
C      1  0.4980870000000  0.5702700000000  0.5184060000000 1.0
C      1  0.4695420000000  0.5444110000000  0.4359350000000 1.0
C      1  0.4971630000000  0.5494340000000  0.4665420000000 1.0
C      1  0.5040770000000  0.5366640000000  0.5711670000000 1.0
C      1  0.5443700000000  0.5292500000000  0.4464290000000 1.0
C      1  0.4260910000000  0.5197820000000  0.4704040000000 1.0
C      1  0.4580390000000  0.4704460000000  0.4545570000000 1.0
C      1  0.4745600000000  0.5378640000000  0.5691610000000 1.0
END
