TITL C-883730-8503-254 2.0643386622262 125000 -15212.1494970197 0 0 103 (C1) n - 1
REM
REM in /home/nfs/bkarasulu/CARBON/AIRSS/Generating-Clusters/ReaxFF-fromJPCA2015/Units_Real/with-SteepDescent/Only-C1/SD-CG/Try1-3A/FIRE-CG
REM
REM
REM
REM
REM
REM ./C.cell (11c1c37f851c82e70ff6c80c92926a4b)
REM
REM compiler GCC version 9.2.1 20190827 (Red Hat 9.2.1-1)
REM options -cpp -mtune=generic -march=x86-64 -g -O0 -fpre-include=/usr/include/finclude/math-vector-fortran.h
REM seed 972889383 -633311745 -1239156389 1930216773 -778612835 1042321439 -864175828 1479626297 -248620434 1370747661 -532097819 846133268 753250905 1443501127 1805616726 2011402398 -1686382767 -104035550 -1249738842 1580653941 1596943202 -1649675003 1128705366 666133513 2083109583 -860019357 -905626345 -501744638 -1493646482 -1507583441 1229675220 585093887 1256298001
REM
CELL 1.54180   50.00000   50.00000   50.00000   90.00000   90.00000   90.00000
LATT -1
SFAC C  
C      1  0.4729790000000  0.4877650000000  0.5898850000000 1.0
C      1  0.5723830000000  0.5464760000000  0.5098100000000 1.0
C      1  0.4370440000000  0.5522340000000  0.5044780000000 1.0
C      1  0.5178240000000  0.4205230000000  0.5253550000000 1.0
C      1  0.5614780000000  0.5456880000000  0.5344850000000 1.0
C      1  0.4447050000000  0.4514660000000  0.5359000000000 1.0
C      1  0.5343240000000  0.4926100000000  0.4945010000000 1.0
C      1  0.5668640000000  0.4458380000000  0.5036980000000 1.0
C      1  0.4782950000000  0.4534030000000  0.4290790000000 1.0
C      1  0.4614170000000  0.5373680000000  0.5016370000000 1.0
C      1  0.5221930000000  0.5248300000000  0.4101810000000 1.0
C      1  0.5524620000000  0.4306080000000  0.4819250000000 1.0
C      1  0.5076170000000  0.4468220000000  0.5147210000000 1.0
C      1  0.5461200000000  0.5186320000000  0.4217420000000 1.0
C      1  0.5865530000000  0.4863760000000  0.4737890000000 1.0
C      1  0.5691290000000  0.4732330000000  0.5406890000000 1.0
C      1  0.4932500000000  0.5151150000000  0.4604100000000 1.0
C      1  0.4655820000000  0.5344100000000  0.5300870000000 1.0
C      1  0.5598500000000  0.4627060000000  0.4424170000000 1.0
C      1  0.5003740000000  0.5167490000000  0.5443110000000 1.0
C      1  0.4946450000000  0.5730240000000  0.5454460000000 1.0
C      1  0.4133270000000  0.4838030000000  0.5152090000000 1.0
C      1  0.5364940000000  0.4324620000000  0.5444150000000 1.0
C      1  0.4723170000000  0.4177950000000  0.5032790000000 1.0
C      1  0.5791040000000  0.4900680000000  0.5193040000000 1.0
C      1  0.4961610000000  0.5105460000000  0.5000380000000 1.0
C      1  0.5263440000000  0.4190900000000  0.4821910000000 1.0
C      1  0.4567470000000  0.4889900000000  0.4276510000000 1.0
C      1  0.5166400000000  0.5304950000000  0.4998830000000 1.0
C      1  0.5103900000000  0.5870900000000  0.4806460000000 1.0
C      1  0.5280670000000  0.5130560000000  0.5864150000000 1.0
C      1  0.4281110000000  0.4889910000000  0.4708000000000 1.0
C      1  0.4212530000000  0.5411350000000  0.4633140000000 1.0
C      1  0.5140810000000  0.4934480000000  0.4585740000000 1.0
C      1  0.5724200000000  0.5295270000000  0.4609530000000 1.0
C      1  0.4845100000000  0.5226330000000  0.5685970000000 1.0
C      1  0.4991390000000  0.4491930000000  0.4842140000000 1.0
C      1  0.5778380000000  0.4839940000000  0.4469690000000 1.0
C      1  0.5814440000000  0.5190040000000  0.5094980000000 1.0
C      1  0.4183940000000  0.5274710000000  0.5483170000000 1.0
C      1  0.4289500000000  0.4757950000000  0.5379680000000 1.0
C      1  0.4571090000000  0.5071060000000  0.5379680000000 1.0
C      1  0.4760090000000  0.5142310000000  0.4308650000000 1.0
C      1  0.4368840000000  0.5386110000000  0.4408150000000 1.0
C      1  0.5285490000000  0.5513900000000  0.4550480000000 1.0
C      1  0.5546730000000  0.5512630000000  0.4689340000000 1.0
C      1  0.5138560000000  0.5375390000000  0.5282460000000 1.0
C      1  0.5156380000000  0.5579850000000  0.5639190000000 1.0
C      1  0.4708750000000  0.4821620000000  0.5348650000000 1.0
C      1  0.4595820000000  0.5090260000000  0.5789640000000 1.0
C      1  0.4681020000000  0.4590190000000  0.5533910000000 1.0
C      1  0.4781860000000  0.4762460000000  0.4133810000000 1.0
C      1  0.4992060000000  0.5050130000000  0.4133290000000 1.0
C      1  0.5857130000000  0.5138870000000  0.4810480000000 1.0
C      1  0.4166070000000  0.4687700000000  0.4906460000000 1.0
C      1  0.5213760000000  0.5519160000000  0.4252330000000 1.0
C      1  0.5040920000000  0.5790260000000  0.5185250000000 1.0
C      1  0.5437430000000  0.4503860000000  0.4622010000000 1.0
C      1  0.4319710000000  0.4450870000000  0.4858370000000 1.0
C      1  0.4954530000000  0.5613930000000  0.4294830000000 1.0
C      1  0.4631790000000  0.5730580000000  0.4669750000000 1.0
C      1  0.5152420000000  0.4934340000000  0.5382340000000 1.0
C      1  0.5105620000000  0.5370890000000  0.4722370000000 1.0
C      1  0.5173060000000  0.4873190000000  0.4312180000000 1.0
C      1  0.4678920000000  0.5596240000000  0.5462000000000 1.0
C      1  0.4155300000000  0.5361120000000  0.5209320000000 1.0
C      1  0.4891910000000  0.4525660000000  0.5728290000000 1.0
C      1  0.5549290000000  0.5171470000000  0.5415900000000 1.0
C      1  0.4693700000000  0.5664240000000  0.4373230000000 1.0
C      1  0.5523220000000  0.5592280000000  0.4963210000000 1.0
C      1  0.5244480000000  0.4709970000000  0.4749520000000 1.0
C      1  0.5382160000000  0.5017470000000  0.5216240000000 1.0
C      1  0.4772400000000  0.4622660000000  0.4692250000000 1.0
C      1  0.4345250000000  0.5026670000000  0.5571030000000 1.0
C      1  0.5116370000000  0.4646470000000  0.5360450000000 1.0
C      1  0.4502720000000  0.4373590000000  0.5083080000000 1.0
C      1  0.4865400000000  0.5800760000000  0.4801790000000 1.0
C      1  0.4380980000000  0.4489680000000  0.4569220000000 1.0
C      1  0.4371030000000  0.4757470000000  0.4452990000000 1.0
C      1  0.4920210000000  0.4094390000000  0.5213100000000 1.0
C      1  0.5329770000000  0.5557760000000  0.5412220000000 1.0
C      1  0.5212850000000  0.4856260000000  0.5944050000000 1.0
C      1  0.4964990000000  0.4837940000000  0.5041770000000 1.0
C      1  0.5589660000000  0.4468050000000  0.5313350000000 1.0
C      1  0.4590970000000  0.5403440000000  0.4251540000000 1.0
C      1  0.4727070000000  0.5126770000000  0.4831310000000 1.0
C      1  0.5810290000000  0.4710240000000  0.4979050000000 1.0
C      1  0.4148250000000  0.5154770000000  0.4771390000000 1.0
C      1  0.5673720000000  0.5109990000000  0.4383650000000 1.0
C      1  0.4092040000000  0.5122280000000  0.5047530000000 1.0
C      1  0.4658520000000  0.4411870000000  0.4513300000000 1.0
C      1  0.5087910000000  0.5347070000000  0.5807800000000 1.0
C      1  0.5272990000000  0.5789600000000  0.5014100000000 1.0
C      1  0.4376250000000  0.5627310000000  0.4778970000000 1.0
C      1  0.5522470000000  0.5097620000000  0.5696520000000 1.0
C      1  0.5596380000000  0.4815090000000  0.5673110000000 1.0
C      1  0.5196780000000  0.4489630000000  0.5636270000000 1.0
C      1  0.4944240000000  0.4707000000000  0.5949840000000 1.0
C      1  0.5417630000000  0.4779030000000  0.4312640000000 1.0
C      1  0.4623830000000  0.4842020000000  0.4830390000000 1.0
C      1  0.4979320000000  0.4190480000000  0.4822330000000 1.0
C      1  0.4703920000000  0.4717190000000  0.5081580000000 1.0
C      1  0.5379460000000  0.4674260000000  0.5804230000000 1.0
END
