TITL C-884127-5181-351 23.407320741804 125000 -15880.0180785865 0 0 107 (C1) n - 1
REM
REM in /home/nfs/bkarasulu/CARBON/AIRSS/Generating-Clusters/ReaxFF-fromJPCA2015/Units_Real/with-SteepDescent/Only-C1/SD-CG/Try1-3A/FIRE-CG
REM
REM
REM
REM
REM
REM ./C.cell (11c1c37f851c82e70ff6c80c92926a4b)
REM
REM compiler GCC version 9.2.1 20190827 (Red Hat 9.2.1-1)
REM options -cpp -mtune=generic -march=x86-64 -g -O0 -fpre-include=/usr/include/finclude/math-vector-fortran.h
REM seed -1503298269 -1017471935 -1644757344 -731559087 -237037865 422191146 -2084037931 -2054774045 1489759437 1400183130 -2000556636 1294601484 2002371946 -587839339 -1574329258 32336921 -2075079708 591900408 -1845095525 -563690004 -878628239 -1760320878 661153196 1751900012 1915647067 -1238516159 1416199072 787851601 -973375753 -780175062 -760820637 1174303148 -1511831110
REM
CELL 1.54180   50.00000   50.00000   50.00000   90.00000   90.00000   90.00000
LATT -1
SFAC C  
C      1  0.5360220000000  0.4387790000000  0.4253000000000 1.0
C      1  0.4447130000000  0.5231050000000  0.4334090000000 1.0
C      1  0.4961250000000  0.5060120000000  0.5519900000000 1.0
C      1  0.4827730000000  0.5893660000000  0.5248280000000 1.0
C      1  0.4050420000000  0.5112990000000  0.5150230000000 1.0
C      1  0.4417020000000  0.5471480000000  0.5407850000000 1.0
C      1  0.5076130000000  0.5533130000000  0.5473190000000 1.0
C      1  0.4283990000000  0.5563440000000  0.5148200000000 1.0
C      1  0.5626810000000  0.5073170000000  0.5592760000000 1.0
C      1  0.5587040000000  0.5702410000000  0.5278080000000 1.0
C      1  0.5273720000000  0.4528960000000  0.5772900000000 1.0
C      1  0.5109440000000  0.4605630000000  0.5339650000000 1.0
C      1  0.5333790000000  0.5436850000000  0.5642330000000 1.0
C      1  0.4513810000000  0.4296510000000  0.4742000000000 1.0
C      1  0.4642270000000  0.5589390000000  0.5607640000000 1.0
C      1  0.4708100000000  0.5359860000000  0.5813220000000 1.0
C      1  0.5176710000000  0.4212690000000  0.4954180000000 1.0
C      1  0.4919290000000  0.4250330000000  0.5088650000000 1.0
C      1  0.5404860000000  0.4969300000000  0.5663310000000 1.0
C      1  0.4095270000000  0.5070740000000  0.5448140000000 1.0
C      1  0.5475530000000  0.5691570000000  0.4874670000000 1.0
C      1  0.4718880000000  0.5544370000000  0.4656550000000 1.0
C      1  0.4274900000000  0.4714330000000  0.4878680000000 1.0
C      1  0.5181680000000  0.5547470000000  0.5211790000000 1.0
C      1  0.4943960000000  0.5713900000000  0.4727060000000 1.0
C      1  0.4096390000000  0.5377150000000  0.5027930000000 1.0
C      1  0.4575470000000  0.4875420000000  0.5804860000000 1.0
C      1  0.4842510000000  0.4393510000000  0.5650550000000 1.0
C      1  0.4972190000000  0.5121270000000  0.5810530000000 1.0
C      1  0.5519650000000  0.5182610000000  0.4453400000000 1.0
C      1  0.4876290000000  0.4719090000000  0.4952140000000 1.0
C      1  0.4643090000000  0.4587210000000  0.4202740000000 1.0
C      1  0.5435490000000  0.4689830000000  0.4628020000000 1.0
C      1  0.4470410000000  0.5154450000000  0.5777520000000 1.0
C      1  0.5915250000000  0.4915670000000  0.5105780000000 1.0
C      1  0.5890730000000  0.5395820000000  0.4989960000000 1.0
C      1  0.5134180000000  0.5102350000000  0.4096150000000 1.0
C      1  0.5370590000000  0.4674900000000  0.4910250000000 1.0
C      1  0.5040370000000  0.5170710000000  0.4669150000000 1.0
C      1  0.5513390000000  0.4256280000000  0.4644760000000 1.0
C      1  0.5501540000000  0.4697500000000  0.5708920000000 1.0
C      1  0.4984910000000  0.4589920000000  0.5830080000000 1.0
C      1  0.4458940000000  0.4703690000000  0.5592720000000 1.0
C      1  0.5052110000000  0.4657530000000  0.4150310000000 1.0
C      1  0.5260850000000  0.5314630000000  0.5079130000000 1.0
C      1  0.4383730000000  0.4323200000000  0.4991490000000 1.0
C      1  0.5339290000000  0.5779130000000  0.5126120000000 1.0
C      1  0.5491710000000  0.4872680000000  0.5083750000000 1.0
C      1  0.4320100000000  0.5365070000000  0.4566790000000 1.0
C      1  0.4275220000000  0.5255890000000  0.5591200000000 1.0
C      1  0.5552700000000  0.4477160000000  0.4457020000000 1.0
C      1  0.5336910000000  0.4653060000000  0.4147620000000 1.0
C      1  0.4444700000000  0.5594420000000  0.4692490000000 1.0
C      1  0.4805490000000  0.4732400000000  0.4676290000000 1.0
C      1  0.5087960000000  0.5594570000000  0.4504670000000 1.0
C      1  0.5907640000000  0.5192370000000  0.5203930000000 1.0
C      1  0.4440050000000  0.5705440000000  0.4957560000000 1.0
C      1  0.5178890000000  0.4922090000000  0.5416260000000 1.0
C      1  0.4997330000000  0.4791440000000  0.4454750000000 1.0
C      1  0.4698530000000  0.5328160000000  0.4224110000000 1.0
C      1  0.5267430000000  0.4402530000000  0.5511590000000 1.0
C      1  0.4649240000000  0.5332530000000  0.5277850000000 1.0
C      1  0.4582890000000  0.4658000000000  0.5310240000000 1.0
C      1  0.4643080000000  0.4864340000000  0.4090250000000 1.0
C      1  0.4763200000000  0.4238640000000  0.4876350000000 1.0
C      1  0.5857210000000  0.4860490000000  0.4820340000000 1.0
C      1  0.5368220000000  0.5426460000000  0.4836490000000 1.0
C      1  0.4144790000000  0.5240500000000  0.4762450000000 1.0
C      1  0.4416770000000  0.4665750000000  0.4379760000000 1.0
C      1  0.5224870000000  0.4211970000000  0.4657200000000 1.0
C      1  0.5259020000000  0.4877110000000  0.4510410000000 1.0
C      1  0.4849490000000  0.5750550000000  0.5497130000000 1.0
C      1  0.4345200000000  0.4567590000000  0.5125620000000 1.0
C      1  0.5285010000000  0.5048780000000  0.5185190000000 1.0
C      1  0.4709530000000  0.4857150000000  0.5141920000000 1.0
C      1  0.5778830000000  0.4603650000000  0.4861030000000 1.0
C      1  0.5446020000000  0.4267920000000  0.5083020000000 1.0
C      1  0.5654710000000  0.4339650000000  0.4888310000000 1.0
C      1  0.5728780000000  0.5646900000000  0.5023450000000 1.0
C      1  0.4856680000000  0.4849460000000  0.5881050000000 1.0
C      1  0.5759760000000  0.5322180000000  0.4754850000000 1.0
C      1  0.5276020000000  0.5200630000000  0.5790280000000 1.0
C      1  0.5112420000000  0.4289150000000  0.4394480000000 1.0
C      1  0.5264550000000  0.5354690000000  0.4587690000000 1.0
C      1  0.4885130000000  0.5046030000000  0.4454150000000 1.0
C      1  0.5506210000000  0.4342200000000  0.5358850000000 1.0
C      1  0.5124200000000  0.4617770000000  0.5042860000000 1.0
C      1  0.4418170000000  0.4946300000000  0.4249040000000 1.0
C      1  0.5573500000000  0.5493790000000  0.5491930000000 1.0
C      1  0.5373500000000  0.4991480000000  0.4248770000000 1.0
C      1  0.4840220000000  0.5531390000000  0.4370860000000 1.0
C      1  0.5742240000000  0.5094760000000  0.4611420000000 1.0
C      1  0.4668170000000  0.4989510000000  0.4645250000000 1.0
C      1  0.5703370000000  0.4769440000000  0.5259010000000 1.0
C      1  0.4671180000000  0.5862140000000  0.5027550000000 1.0
C      1  0.4663840000000  0.5127760000000  0.5075350000000 1.0
C      1  0.4223320000000  0.4849320000000  0.5566340000000 1.0
C      1  0.5644930000000  0.4580330000000  0.5474780000000 1.0
C      1  0.5767410000000  0.5261960000000  0.5453680000000 1.0
C      1  0.4897920000000  0.5307290000000  0.5413420000000 1.0
C      1  0.4957550000000  0.5851200000000  0.4980210000000 1.0
C      1  0.4773090000000  0.5222600000000  0.4806600000000 1.0
C      1  0.4133760000000  0.4976780000000  0.4902420000000 1.0
C      1  0.4828230000000  0.4435640000000  0.5357980000000 1.0
C      1  0.4902550000000  0.4426470000000  0.4240150000000 1.0
C      1  0.4849940000000  0.5108710000000  0.4068620000000 1.0
C      1  0.4383360000000  0.4562750000000  0.4648480000000 1.0
END
