TITL C-884139-6216-332 10.8407417035937 125000 -25879.9848479168 0 0 174 (C1) n - 1
REM
REM in /home/nfs/bkarasulu/CARBON/AIRSS/Generating-Clusters/ReaxFF-fromJPCA2015/Units_Real/with-SteepDescent/Only-C1/SD-CG/Try1-3A/FIRE-CG
REM
REM
REM
REM
REM
REM ./C.cell (11c1c37f851c82e70ff6c80c92926a4b)
REM
REM compiler GCC version 9.2.1 20190827 (Red Hat 9.2.1-1)
REM options -cpp -mtune=generic -march=x86-64 -g -O0 -fpre-include=/usr/include/finclude/math-vector-fortran.h
REM seed 508867622 -126416172 -209373586 -27322129 -1357433953 -530488628 794934760 -747791570 688129037 -2064257990 774777903 -2116319181 2078935009 1451705625 1252246915 -1709467195 -757149699 1368430242 1918927278 -834401039 -1471054632 -1744761776 1568505103 -1477325917 705454823 -1809946235 1880503428 814649925 -245559755 -1020133630 -1914755516 -1957363712 907492319
REM
CELL 1.54180   50.00000   50.00000   50.00000   90.00000   90.00000   90.00000
LATT -1
SFAC C  
C      1  0.3951790000000  0.5194250000000  0.4559970000000 1.0
C      1  0.4930100000000  0.4780320000000  0.5056840000000 1.0
C      1  0.5561440000000  0.4336130000000  0.4409780000000 1.0
C      1  0.4473270000000  0.4627820000000  0.5142160000000 1.0
C      1  0.5947570000000  0.5351930000000  0.5351420000000 1.0
C      1  0.5365660000000  0.6066740000000  0.5174100000000 1.0
C      1  0.4861880000000  0.4250190000000  0.4797550000000 1.0
C      1  0.4741810000000  0.3932320000000  0.5558790000000 1.0
C      1  0.5195040000000  0.4618910000000  0.4575970000000 1.0
C      1  0.5796170000000  0.4989120000000  0.4452310000000 1.0
C      1  0.4503610000000  0.5453090000000  0.3994480000000 1.0
C      1  0.5357460000000  0.5640620000000  0.4349260000000 1.0
C      1  0.4484070000000  0.4624640000000  0.4337810000000 1.0
C      1  0.5639370000000  0.5257210000000  0.4509280000000 1.0
C      1  0.5085280000000  0.4251380000000  0.5713400000000 1.0
C      1  0.5343960000000  0.3989880000000  0.5375570000000 1.0
C      1  0.4893450000000  0.4542980000000  0.4654030000000 1.0
C      1  0.4841390000000  0.3960190000000  0.4421070000000 1.0
C      1  0.4376000000000  0.5800430000000  0.4674870000000 1.0
C      1  0.5578330000000  0.4846340000000  0.5840240000000 1.0
C      1  0.5430850000000  0.4565210000000  0.4775290000000 1.0
C      1  0.5083520000000  0.6146270000000  0.4784710000000 1.0
C      1  0.5937890000000  0.4651520000000  0.4672140000000 1.0
C      1  0.5808530000000  0.4264320000000  0.4891810000000 1.0
C      1  0.4184250000000  0.4501870000000  0.5491800000000 1.0
C      1  0.4953650000000  0.5122690000000  0.6077850000000 1.0
C      1  0.4325970000000  0.4374470000000  0.4759370000000 1.0
C      1  0.5473860000000  0.5892440000000  0.4717260000000 1.0
C      1  0.4446990000000  0.5833490000000  0.5444130000000 1.0
C      1  0.4959470000000  0.5922530000000  0.4470460000000 1.0
C      1  0.4600450000000  0.6035670000000  0.5606570000000 1.0
C      1  0.5211480000000  0.6013730000000  0.4581980000000 1.0
C      1  0.4388060000000  0.4311270000000  0.5401380000000 1.0
C      1  0.4071680000000  0.5007460000000  0.4365340000000 1.0
C      1  0.5331960000000  0.5481070000000  0.4104550000000 1.0
C      1  0.5574610000000  0.4104990000000  0.5489670000000 1.0
C      1  0.5540730000000  0.5915040000000  0.4999800000000 1.0
C      1  0.3981170000000  0.4553650000000  0.5314950000000 1.0
C      1  0.5615900000000  0.5016110000000  0.4028610000000 1.0
C      1  0.4787640000000  0.5457180000000  0.4760630000000 1.0
C      1  0.4805470000000  0.4760680000000  0.4810440000000 1.0
C      1  0.4109840000000  0.5225620000000  0.5382190000000 1.0
C      1  0.4090870000000  0.5534290000000  0.5329120000000 1.0
C      1  0.5333410000000  0.4154920000000  0.4450020000000 1.0
C      1  0.5412830000000  0.4079830000000  0.4972550000000 1.0
C      1  0.5082270000000  0.5485670000000  0.4778750000000 1.0
C      1  0.5509930000000  0.4538760000000  0.5795430000000 1.0
C      1  0.6111940000000  0.4521680000000  0.5168920000000 1.0
C      1  0.5055250000000  0.5407870000000  0.4004740000000 1.0
C      1  0.5229580000000  0.5237380000000  0.6025760000000 1.0
C      1  0.6134900000000  0.4809080000000  0.5232360000000 1.0
C      1  0.6065400000000  0.4343470000000  0.4964830000000 1.0
C      1  0.3784440000000  0.5121340000000  0.5378900000000 1.0
C      1  0.5224410000000  0.5010250000000  0.5566290000000 1.0
C      1  0.4856830000000  0.4837000000000  0.3979580000000 1.0
C      1  0.4708980000000  0.5070620000000  0.5387690000000 1.0
C      1  0.6030500000000  0.5096100000000  0.5154200000000 1.0
C      1  0.4677190000000  0.5222980000000  0.4872890000000 1.0
C      1  0.5812340000000  0.4905890000000  0.4732000000000 1.0
C      1  0.4361940000000  0.4758030000000  0.5587690000000 1.0
C      1  0.4597750000000  0.5670900000000  0.4820670000000 1.0
C      1  0.5098120000000  0.4778210000000  0.5676150000000 1.0
C      1  0.4440660000000  0.4883240000000  0.5314700000000 1.0
C      1  0.5185300000000  0.4226320000000  0.5454470000000 1.0
C      1  0.4670150000000  0.4747750000000  0.5973490000000 1.0
C      1  0.5520640000000  0.4837920000000  0.4759480000000 1.0
C      1  0.4854870000000  0.5292030000000  0.5503960000000 1.0
C      1  0.4171830000000  0.5111560000000  0.4119100000000 1.0
C      1  0.4395270000000  0.4992920000000  0.4713240000000 1.0
C      1  0.4945490000000  0.4602030000000  0.5263850000000 1.0
C      1  0.5311410000000  0.4991030000000  0.5296480000000 1.0
C      1  0.4984460000000  0.5108530000000  0.3967940000000 1.0
C      1  0.4231110000000  0.5575150000000  0.4345850000000 1.0
C      1  0.5702530000000  0.4884610000000  0.5371890000000 1.0
C      1  0.5183650000000  0.5467790000000  0.4501350000000 1.0
C      1  0.3928660000000  0.4730700000000  0.4843660000000 1.0
C      1  0.5688990000000  0.5028060000000  0.5642280000000 1.0
C      1  0.5479440000000  0.5250730000000  0.4221140000000 1.0
C      1  0.4745620000000  0.5116530000000  0.4376720000000 1.0
C      1  0.3744510000000  0.4883200000000  0.5269320000000 1.0
C      1  0.4283170000000  0.5089360000000  0.5194530000000 1.0
C      1  0.4749850000000  0.3799740000000  0.5350620000000 1.0
C      1  0.5279940000000  0.4922380000000  0.4603850000000 1.0
C      1  0.5580340000000  0.4982000000000  0.3774850000000 1.0
C      1  0.5249940000000  0.4431950000000  0.5872040000000 1.0
C      1  0.4784320000000  0.5920710000000  0.5809610000000 1.0
C      1  0.5058660000000  0.4135480000000  0.4321300000000 1.0
C      1  0.4576260000000  0.4321130000000  0.5622130000000 1.0
C      1  0.4267660000000  0.4813170000000  0.4522190000000 1.0
C      1  0.5355320000000  0.4570610000000  0.4047440000000 1.0
C      1  0.4416000000000  0.4983360000000  0.4015660000000 1.0
C      1  0.5435370000000  0.5269560000000  0.4776900000000 1.0
C      1  0.5994840000000  0.4759830000000  0.5478880000000 1.0
C      1  0.5423330000000  0.5044140000000  0.5964410000000 1.0
C      1  0.4397480000000  0.5196360000000  0.4951900000000 1.0
C      1  0.5215300000000  0.5098800000000  0.4821540000000 1.0
C      1  0.6137920000000  0.4595910000000  0.4878530000000 1.0
C      1  0.4876810000000  0.5597880000000  0.4128260000000 1.0
C      1  0.4858860000000  0.6103080000000  0.5133770000000 1.0
C      1  0.5685160000000  0.4368210000000  0.5628830000000 1.0
C      1  0.4923700000000  0.4831940000000  0.6081900000000 1.0
C      1  0.5946760000000  0.5463230000000  0.4841220000000 1.0
C      1  0.5075940000000  0.5021390000000  0.5073650000000 1.0
C      1  0.4633410000000  0.4624620000000  0.5693680000000 1.0
C      1  0.4142160000000  0.4584190000000  0.4696960000000 1.0
C      1  0.5722260000000  0.4816300000000  0.4232940000000 1.0
C      1  0.4230110000000  0.5406000000000  0.4098250000000 1.0
C      1  0.4896650000000  0.3972580000000  0.4710020000000 1.0
C      1  0.5137770000000  0.6208620000000  0.5050500000000 1.0
C      1  0.5081410000000  0.5625480000000  0.5047100000000 1.0
C      1  0.4454220000000  0.5760400000000  0.4405640000000 1.0
C      1  0.4754040000000  0.5789720000000  0.4322610000000 1.0
C      1  0.3805870000000  0.4650660000000  0.5123140000000 1.0
C      1  0.5560840000000  0.5505560000000  0.5657160000000 1.0
C      1  0.5193620000000  0.3914230000000  0.5093220000000 1.0
C      1  0.5392350000000  0.5282930000000  0.5263310000000 1.0
C      1  0.4606420000000  0.5184970000000  0.4130740000000 1.0
C      1  0.5763880000000  0.5307550000000  0.5583330000000 1.0
C      1  0.5416110000000  0.4513250000000  0.5118340000000 1.0
C      1  0.4459630000000  0.4351830000000  0.5073630000000 1.0
C      1  0.4507230000000  0.4980160000000  0.5974430000000 1.0
C      1  0.5693030000000  0.5744820000000  0.5198180000000 1.0
C      1  0.4632030000000  0.4162930000000  0.4356270000000 1.0
C      1  0.4854020000000  0.5796650000000  0.5135000000000 1.0
C      1  0.4604080000000  0.5678690000000  0.5240780000000 1.0
C      1  0.5159590000000  0.4421690000000  0.5253270000000 1.0
C      1  0.4877270000000  0.4674920000000  0.5528940000000 1.0
C      1  0.4308020000000  0.4968810000000  0.5770070000000 1.0
C      1  0.5580170000000  0.5741640000000  0.5474310000000 1.0
C      1  0.4745460000000  0.4207350000000  0.5047790000000 1.0
C      1  0.4580990000000  0.4751980000000  0.4068330000000 1.0
C      1  0.4591200000000  0.5455360000000  0.5897740000000 1.0
C      1  0.5561390000000  0.5289630000000  0.5036050000000 1.0
C      1  0.5202390000000  0.5505390000000  0.5281100000000 1.0
C      1  0.4114940000000  0.5666830000000  0.4778080000000 1.0
C      1  0.5153120000000  0.5721050000000  0.5491410000000 1.0
C      1  0.4878750000000  0.5211530000000  0.5219900000000 1.0
C      1  0.5356210000000  0.5926650000000  0.5435990000000 1.0
C      1  0.5598790000000  0.4544800000000  0.4211850000000 1.0
C      1  0.4437880000000  0.4341750000000  0.4495980000000 1.0
C      1  0.4875260000000  0.3975390000000  0.5167030000000 1.0
C      1  0.4804880000000  0.4161620000000  0.5717130000000 1.0
C      1  0.4345320000000  0.5452510000000  0.5742060000000 1.0
C      1  0.5189420000000  0.4562710000000  0.4279290000000 1.0
C      1  0.4768940000000  0.4572090000000  0.4383570000000 1.0
C      1  0.4065360000000  0.5478430000000  0.4565360000000 1.0
C      1  0.5241060000000  0.5176120000000  0.4397340000000 1.0
C      1  0.4078880000000  0.5622250000000  0.5059670000000 1.0
C      1  0.4735860000000  0.6127360000000  0.5378340000000 1.0
C      1  0.5588780000000  0.4277540000000  0.5074380000000 1.0
C      1  0.5731720000000  0.5076360000000  0.5143250000000 1.0
C      1  0.4683120000000  0.5011760000000  0.4684760000000 1.0
C      1  0.5718390000000  0.4432050000000  0.4658050000000 1.0
C      1  0.5133190000000  0.3826330000000  0.4809460000000 1.0
C      1  0.4469080000000  0.5524900000000  0.5034160000000 1.0
C      1  0.5308920000000  0.5419810000000  0.5795980000000 1.0
C      1  0.4785030000000  0.5663450000000  0.5903800000000 1.0
C      1  0.6077100000000  0.5203180000000  0.4851870000000 1.0
C      1  0.5154290000000  0.4695990000000  0.5957450000000 1.0
C      1  0.5124110000000  0.5271170000000  0.5622840000000 1.0
C      1  0.5345720000000  0.3995400000000  0.4700420000000 1.0
C      1  0.5476610000000  0.4751390000000  0.5272700000000 1.0
C      1  0.5895960000000  0.4501510000000  0.5508330000000 1.0
C      1  0.4999370000000  0.5753450000000  0.5739010000000 1.0
C      1  0.5780400000000  0.5502900000000  0.4595710000000 1.0
C      1  0.4848580000000  0.4329710000000  0.4240410000000 1.0
C      1  0.5886110000000  0.5542440000000  0.5142190000000 1.0
C      1  0.3907440000000  0.4982250000000  0.4740040000000 1.0
C      1  0.4997810000000  0.5096180000000  0.4261900000000 1.0
C      1  0.5592370000000  0.5717470000000  0.4529630000000 1.0
C      1  0.4221750000000  0.5208910000000  0.5661690000000 1.0
C      1  0.5058900000000  0.4628290000000  0.4030280000000 1.0
C      1  0.4249200000000  0.5650070000000  0.5549280000000 1.0
C      1  0.4685720000000  0.5211070000000  0.6015260000000 1.0
END
