TITL C-883731-9874-159 -0.512445970577598 125000 -5960.00162449292 0 0 42 (C1) n - 1
REM
REM in /home/nfs/bkarasulu/CARBON/AIRSS/Generating-Clusters/ReaxFF-fromJPCA2015/Units_Real/with-SteepDescent/Only-C1/SD-CG/Try1-3A/FIRE-CG
REM
REM
REM
REM
REM
REM ./C.cell (11c1c37f851c82e70ff6c80c92926a4b)
REM
REM compiler GCC version 9.2.1 20190827 (Red Hat 9.2.1-1)
REM options -cpp -mtune=generic -march=x86-64 -g -O0 -fpre-include=/usr/include/finclude/math-vector-fortran.h
REM seed 1270048638 381896898 50797290 -95046262 1570540717 -1623294898 276571700 -279831805 -1632520115 269097709 1046962286 1682001032 -1465238639 507517650 1850890932 279412304 1996353599 1063967677 -1893796601 1130644514 -701455710 1308624948 -794324967 -1000314782 748135157 777969492 1132974598 -315939922 1503427284 1473128081 -777653180 417389218 1553245051
REM
CELL 1.54180   50.00000   50.00000   50.00000   90.00000   90.00000   90.00000
LATT -1
SFAC C  
C      1  0.5495500000000  0.5260160000000  0.5326800000000 1.0
C      1  0.4707350000000  0.5362450000000  0.4525680000000 1.0
C      1  0.5463670000000  0.4368450000000  0.4998240000000 1.0
C      1  0.4890820000000  0.5465310000000  0.5316810000000 1.0
C      1  0.4956620000000  0.5584700000000  0.4859150000000 1.0
C      1  0.5263920000000  0.4383940000000  0.4549230000000 1.0
C      1  0.5006320000000  0.5098080000000  0.5660690000000 1.0
C      1  0.4635400000000  0.4828040000000  0.5391610000000 1.0
C      1  0.5069980000000  0.5381660000000  0.5584550000000 1.0
C      1  0.5504550000000  0.4760860000000  0.4873300000000 1.0
C      1  0.4383070000000  0.4698600000000  0.4953920000000 1.0
C      1  0.5222280000000  0.4993420000000  0.5525570000000 1.0
C      1  0.5046700000000  0.5041630000000  0.4050600000000 1.0
C      1  0.4996770000000  0.5675720000000  0.5130200000000 1.0
C      1  0.4725150000000  0.4971990000000  0.5620930000000 1.0
C      1  0.5138540000000  0.5111330000000  0.4283970000000 1.0
C      1  0.5488020000000  0.4492350000000  0.4753250000000 1.0
C      1  0.5147560000000  0.5435360000000  0.4694060000000 1.0
C      1  0.5439530000000  0.5289630000000  0.5064190000000 1.0
C      1  0.4585700000000  0.5526260000000  0.5287320000000 1.0
C      1  0.5014420000000  0.4376730000000  0.4678390000000 1.0
C      1  0.4686860000000  0.5491440000000  0.4795650000000 1.0
C      1  0.4778180000000  0.5722600000000  0.5290110000000 1.0
C      1  0.4428400000000  0.4914230000000  0.5197200000000 1.0
C      1  0.4845940000000  0.4420650000000  0.5123420000000 1.0
C      1  0.5476440000000  0.4744140000000  0.5166040000000 1.0
C      1  0.4950850000000  0.4894570000000  0.4974510000000 1.0
C      1  0.5069850000000  0.4465410000000  0.5287770000000 1.0
C      1  0.5000880000000  0.5327910000000  0.4473480000000 1.0
C      1  0.5347910000000  0.5438100000000  0.5538440000000 1.0
C      1  0.4887030000000  0.4715770000000  0.5222410000000 1.0
C      1  0.4496200000000  0.5427370000000  0.5028640000000 1.0
C      1  0.4455150000000  0.5169580000000  0.5121190000000 1.0
C      1  0.4784500000000  0.4387730000000  0.4835460000000 1.0
C      1  0.4789450000000  0.4843350000000  0.4737880000000 1.0
C      1  0.5378200000000  0.4962240000000  0.4425070000000 1.0
C      1  0.5386060000000  0.5287570000000  0.4802400000000 1.0
C      1  0.4197030000000  0.4639390000000  0.4790650000000 1.0
C      1  0.5447880000000  0.4958290000000  0.5371830000000 1.0
C      1  0.5362600000000  0.4475450000000  0.5239760000000 1.0
C      1  0.4596920000000  0.4604850000000  0.4754690000000 1.0
C      1  0.5451810000000  0.5002680000000  0.4694930000000 1.0
END
