TITL C-883740-3686-428 85.0233084178061 125000 -10147.9470569294 0 0 70 (C1) n - 1
REM
REM in /home/nfs/bkarasulu/CARBON/AIRSS/Generating-Clusters/ReaxFF-fromJPCA2015/Units_Real/with-SteepDescent/Only-C1/SD-CG/Try1-3A/FIRE-CG
REM
REM
REM
REM
REM
REM ./C.cell (11c1c37f851c82e70ff6c80c92926a4b)
REM
REM compiler GCC version 9.2.1 20190827 (Red Hat 9.2.1-1)
REM options -cpp -mtune=generic -march=x86-64 -g -O0 -fpre-include=/usr/include/finclude/math-vector-fortran.h
REM seed 670531590 -1260253675 434013766 594614166 475217811 -2090590704 1357299767 369510595 -1219830103 -1965219092 425582905 1353861636 826559316 -1145000715 1375208174 1804693438 488568106 -1975523530 777690426 674478454 513633711 -673893408 -673600981 1533212335 -927181650 -1303721709 2109145502 538407075 -1066402000 -1978462626 665633203 1318591151 -1548756252
REM
CELL 1.54180   50.00000   50.00000   50.00000   90.00000   90.00000   90.00000
LATT -1
SFAC C  
C      1  0.4696700000000  0.4822330000000  0.4764510000000 1.0
C      1  0.5000870000000  0.4916760000000  0.5215400000000 1.0
C      1  0.5639950000000  0.4974850000000  0.5139260000000 1.0
C      1  0.5144870000000  0.5622070000000  0.5221920000000 1.0
C      1  0.5603970000000  0.5035250000000  0.5432950000000 1.0
C      1  0.5169060000000  0.4868210000000  0.5758330000000 1.0
C      1  0.4910970000000  0.5007820000000  0.5728820000000 1.0
C      1  0.5541070000000  0.5403420000000  0.4694730000000 1.0
C      1  0.4834780000000  0.4316050000000  0.5151000000000 1.0
C      1  0.5107750000000  0.4603810000000  0.5594140000000 1.0
C      1  0.4284080000000  0.5002570000000  0.4706370000000 1.0
C      1  0.4914300000000  0.5295900000000  0.5689690000000 1.0
C      1  0.4327800000000  0.5437110000000  0.4926670000000 1.0
C      1  0.4559340000000  0.5585840000000  0.4922340000000 1.0
C      1  0.4921390000000  0.4410730000000  0.4653600000000 1.0
C      1  0.4326390000000  0.5287040000000  0.4678930000000 1.0
C      1  0.5558530000000  0.4513310000000  0.4686990000000 1.0
C      1  0.5576240000000  0.4963790000000  0.4499150000000 1.0
C      1  0.4463140000000  0.4857890000000  0.5427500000000 1.0
C      1  0.5177060000000  0.4774840000000  0.5380650000000 1.0
C      1  0.4641940000000  0.4884610000000  0.4320540000000 1.0
C      1  0.4393700000000  0.4846170000000  0.4483810000000 1.0
C      1  0.4683950000000  0.4439170000000  0.5364180000000 1.0
C      1  0.5308630000000  0.5593880000000  0.4993400000000 1.0
C      1  0.5431950000000  0.4765650000000  0.5082930000000 1.0
C      1  0.4781130000000  0.5413840000000  0.4902300000000 1.0
C      1  0.5145790000000  0.5441930000000  0.4483560000000 1.0
C      1  0.4693060000000  0.4841680000000  0.5611020000000 1.0
C      1  0.4488680000000  0.5362480000000  0.5389690000000 1.0
C      1  0.4813910000000  0.4586350000000  0.5574280000000 1.0
C      1  0.4527090000000  0.4638790000000  0.4614140000000 1.0
C      1  0.5237830000000  0.5628410000000  0.5484530000000 1.0
C      1  0.4744710000000  0.5644550000000  0.4723950000000 1.0
C      1  0.5744470000000  0.5454110000000  0.5193320000000 1.0
C      1  0.4943970000000  0.5179550000000  0.5230940000000 1.0
C      1  0.4449780000000  0.4603090000000  0.5299380000000 1.0
C      1  0.5733240000000  0.4764830000000  0.4657070000000 1.0
C      1  0.5298670000000  0.4304040000000  0.4936530000000 1.0
C      1  0.5755340000000  0.4919160000000  0.4891090000000 1.0
C      1  0.5254180000000  0.5389460000000  0.4777290000000 1.0
C      1  0.5145100000000  0.5050190000000  0.4772700000000 1.0
C      1  0.4920900000000  0.5391910000000  0.4347930000000 1.0
C      1  0.5496610000000  0.4509430000000  0.5229040000000 1.0
C      1  0.5048370000000  0.4495330000000  0.4420580000000 1.0
C      1  0.4749440000000  0.5162170000000  0.4433280000000 1.0
C      1  0.5280440000000  0.4400050000000  0.5386500000000 1.0
C      1  0.4733420000000  0.5426740000000  0.5493020000000 1.0
C      1  0.4749460000000  0.4372710000000  0.4877380000000 1.0
C      1  0.5299730000000  0.4600210000000  0.4578180000000 1.0
C      1  0.5575490000000  0.5258130000000  0.4440690000000 1.0
C      1  0.4823970000000  0.5076500000000  0.4750960000000 1.0
C      1  0.4472520000000  0.4490990000000  0.4836530000000 1.0
C      1  0.5178610000000  0.4873730000000  0.5002200000000 1.0
C      1  0.4704690000000  0.5571430000000  0.4443080000000 1.0
C      1  0.5650370000000  0.5320320000000  0.5444680000000 1.0
C      1  0.4264910000000  0.4889300000000  0.4975490000000 1.0
C      1  0.4292390000000  0.5317920000000  0.5199130000000 1.0
C      1  0.4842950000000  0.4686680000000  0.4346660000000 1.0
C      1  0.4339710000000  0.4624630000000  0.5038800000000 1.0
C      1  0.5560670000000  0.4378310000000  0.4949980000000 1.0
C      1  0.5600180000000  0.5546780000000  0.4954840000000 1.0
C      1  0.5300650000000  0.4889160000000  0.4562700000000 1.0
C      1  0.5423620000000  0.5451850000000  0.5581380000000 1.0
C      1  0.4898980000000  0.5456820000000  0.5196680000000 1.0
C      1  0.5368510000000  0.4916160000000  0.5555220000000 1.0
C      1  0.5128550000000  0.4277580000000  0.5163820000000 1.0
C      1  0.5162610000000  0.5447590000000  0.5691840000000 1.0
C      1  0.4316940000000  0.5023780000000  0.5228860000000 1.0
C      1  0.4517670000000  0.5351530000000  0.4468360000000 1.0
C      1  0.5322240000000  0.5340700000000  0.4342590000000 1.0
END
