TITL C-884134-5972-235 9.33739987201875 125000 -11098.7214211356 0 0 75 (C1) n - 1
REM
REM in /home/nfs/bkarasulu/CARBON/AIRSS/Generating-Clusters/ReaxFF-fromJPCA2015/Units_Real/with-SteepDescent/Only-C1/SD-CG/Try1-3A/FIRE-CG
REM
REM
REM
REM
REM
REM ./C.cell (11c1c37f851c82e70ff6c80c92926a4b)
REM
REM compiler GCC version 9.2.1 20190827 (Red Hat 9.2.1-1)
REM options -cpp -mtune=generic -march=x86-64 -g -O0 -fpre-include=/usr/include/finclude/math-vector-fortran.h
REM seed 244329654 615734570 -580045763 1706484091 -675769877 -194615262 1918110642 -198899910 1499991608 -1556609554 -156329277 -2072212973 1852945233 -374857447 -1020276154 -1563319775 1432923588 643293350 2001425187 817660288 54319192 -1989935612 -1829326876 1703539259 -1048650395 1960945273 847833529 -907064725 -588870270 1162110957 -690665561 433101225 958379511
REM
CELL 1.54180   50.00000   50.00000   50.00000   90.00000   90.00000   90.00000
LATT -1
SFAC C  
C      1  0.5603530000000  0.5341150000000  0.4881450000000 1.0
C      1  0.4658670000000  0.4792990000000  0.5574090000000 1.0
C      1  0.4973530000000  0.4580980000000  0.5705270000000 1.0
C      1  0.4780130000000  0.5296550000000  0.5571020000000 1.0
C      1  0.5455700000000  0.4375800000000  0.4648130000000 1.0
C      1  0.4587520000000  0.5638290000000  0.5374900000000 1.0
C      1  0.4933830000000  0.4847800000000  0.4971330000000 1.0
C      1  0.5010030000000  0.5465650000000  0.5678360000000 1.0
C      1  0.5242940000000  0.5024320000000  0.4245490000000 1.0
C      1  0.5341180000000  0.5518460000000  0.5309110000000 1.0
C      1  0.4509330000000  0.5037420000000  0.4329830000000 1.0
C      1  0.5056730000000  0.5764050000000  0.4934590000000 1.0
C      1  0.5198230000000  0.4711530000000  0.4781050000000 1.0
C      1  0.4658060000000  0.4604390000000  0.4436090000000 1.0
C      1  0.4459400000000  0.4585020000000  0.5396230000000 1.0
C      1  0.4669200000000  0.5230610000000  0.4728410000000 1.0
C      1  0.4846620000000  0.4751120000000  0.4257530000000 1.0
C      1  0.5772220000000  0.4688660000000  0.4861720000000 1.0
C      1  0.4970650000000  0.5315080000000  0.4704520000000 1.0
C      1  0.5391080000000  0.4440050000000  0.5371980000000 1.0
C      1  0.4217720000000  0.5317070000000  0.4882230000000 1.0
C      1  0.5421580000000  0.4867140000000  0.5180120000000 1.0
C      1  0.5150950000000  0.5216790000000  0.4903080000000 1.0
C      1  0.5203150000000  0.4836690000000  0.5369460000000 1.0
C      1  0.4956810000000  0.4718890000000  0.5242880000000 1.0
C      1  0.4781650000000  0.5031430000000  0.4219530000000 1.0
C      1  0.5826230000000  0.4739360000000  0.5131240000000 1.0
C      1  0.5885070000000  0.5251700000000  0.4977310000000 1.0
C      1  0.4802040000000  0.5271860000000  0.5278090000000 1.0
C      1  0.4498440000000  0.5378660000000  0.4921770000000 1.0
C      1  0.5010420000000  0.4268000000000  0.5032630000000 1.0
C      1  0.5296360000000  0.5696430000000  0.4821870000000 1.0
C      1  0.4260010000000  0.5045410000000  0.4982810000000 1.0
C      1  0.5156100000000  0.5230770000000  0.5719850000000 1.0
C      1  0.4513330000000  0.5417050000000  0.5554480000000 1.0
C      1  0.4648530000000  0.5505370000000  0.5125840000000 1.0
C      1  0.5155200000000  0.4602790000000  0.4521470000000 1.0
C      1  0.4454560000000  0.4798150000000  0.4491780000000 1.0
C      1  0.4765810000000  0.4696500000000  0.5759780000000 1.0
C      1  0.4703980000000  0.4427830000000  0.4674590000000 1.0
C      1  0.5476760000000  0.5288870000000  0.5463650000000 1.0
C      1  0.5131110000000  0.4748030000000  0.4288940000000 1.0
C      1  0.4193120000000  0.5362180000000  0.4575120000000 1.0
C      1  0.5422940000000  0.5182340000000  0.4396170000000 1.0
C      1  0.5366980000000  0.4466610000000  0.4907620000000 1.0
C      1  0.5059160000000  0.5426130000000  0.4453390000000 1.0
C      1  0.5286480000000  0.4301690000000  0.5131500000000 1.0
C      1  0.5531410000000  0.5375300000000  0.4564170000000 1.0
C      1  0.4853660000000  0.4442380000000  0.5208010000000 1.0
C      1  0.4432010000000  0.4803680000000  0.4804090000000 1.0
C      1  0.5582440000000  0.4662490000000  0.5284490000000 1.0
C      1  0.5015130000000  0.5210940000000  0.4249390000000 1.0
C      1  0.5419690000000  0.5060360000000  0.4920140000000 1.0
C      1  0.4996410000000  0.5123430000000  0.5128930000000 1.0
C      1  0.5438170000000  0.5552650000000  0.5039850000000 1.0
C      1  0.5624930000000  0.4639270000000  0.4628010000000 1.0
C      1  0.4857680000000  0.5759350000000  0.5365520000000 1.0
C      1  0.5894190000000  0.5046360000000  0.5193220000000 1.0
C      1  0.4516300000000  0.4514040000000  0.4877620000000 1.0
C      1  0.4456680000000  0.5279280000000  0.4483690000000 1.0
C      1  0.5703820000000  0.5180400000000  0.5345490000000 1.0
C      1  0.5438710000000  0.4862300000000  0.4699020000000 1.0
C      1  0.4435750000000  0.4908250000000  0.5661890000000 1.0
C      1  0.4563760000000  0.4443750000000  0.5152840000000 1.0
C      1  0.4363910000000  0.5160430000000  0.5503330000000 1.0
C      1  0.4955570000000  0.4289120000000  0.4744120000000 1.0
C      1  0.5106780000000  0.5629560000000  0.5452660000000 1.0
C      1  0.5179620000000  0.4331890000000  0.4560540000000 1.0
C      1  0.4830110000000  0.5793600000000  0.5077570000000 1.0
C      1  0.4310940000000  0.5101780000000  0.5238430000000 1.0
C      1  0.5308620000000  0.5558210000000  0.4545030000000 1.0
C      1  0.5192570000000  0.4485590000000  0.5574510000000 1.0
C      1  0.4692160000000  0.4942100000000  0.4825890000000 1.0
C      1  0.4234610000000  0.4685480000000  0.5539600000000 1.0
C      1  0.5301320000000  0.5054340000000  0.5563660000000 1.0
END
