TITL C-883727-9645-27 -826992.465344973 125000 -22544.3967824542 0 0 151 (C1) n - 1
REM
REM in /home/nfs/bkarasulu/CARBON/AIRSS/Generating-Clusters/ReaxFF-fromJPCA2015/Units_Real/with-SteepDescent/Only-C1/SD-CG/Try1-3A/FIRE-CG
REM
REM
REM
REM
REM
REM ./C.cell (11c1c37f851c82e70ff6c80c92926a4b)
REM
REM compiler GCC version 9.2.1 20190827 (Red Hat 9.2.1-1)
REM options -cpp -mtune=generic -march=x86-64 -g -O0 -fpre-include=/usr/include/finclude/math-vector-fortran.h
REM seed -157259322 297051939 -1125053970 1295430494 -262359493 335736025 1102489848 785095739 331735373 342197223 921974546 519932615 43789779 -625018635 -415310290 -348218539 -1984393387 -1635213810 1631450638 -457664359 -2009743957 905766893 -593295687 63769107 159591709 -1947650076 -1855928957 1030594744 1796785296 -1440675386 1900174840 237108944 -326725325
REM
CELL 1.54180   50.00000   50.00000   50.00000   90.00000   90.00000   90.00000
LATT -1
SFAC C  
C      1  0.4296930000000  0.4869270000000  0.4121080000000 1.0
C      1  0.4261260000000  0.5248210000000  0.5692060000000 1.0
C      1  0.5743430000000  0.4585120000000  0.5667820000000 1.0
C      1  0.4714250000000  0.5560720000000  0.4127540000000 1.0
C      1  0.5698080000000  0.5459460000000  0.5449910000000 1.0
C      1  0.4457780000000  0.4582930000000  0.5773420000000 1.0
C      1  0.5274590000000  0.5646240000000  0.4702350000000 1.0
C      1  0.4974870000000  0.5404510000000  0.5895170000000 1.0
C      1  0.4716200000000  0.5297570000000  0.5775760000000 1.0
C      1  0.4363480000000  0.4170780000000  0.5104300000000 1.0
C      1  0.5509200000000  0.4669790000000  0.5031410000000 1.0
C      1  0.4702080000000  0.5968410000000  0.4841400000000 1.0
C      1  0.5772410000000  0.4756170000000  0.5194700000000 1.0
C      1  0.5215810000000  0.4281020000000  0.5557420000000 1.0
C      1  0.5347810000000  0.5004220000000  0.4641470000000 1.0
C      1  0.4266170000000  0.5057640000000  0.5912620000000 1.0
C      1  0.5609250000000  0.4575480000000  0.4565710000000 1.0
C      1  0.5132900000000  0.5415280000000  0.3948810000000 1.0
C      1  0.5355010000000  0.5815090000000  0.5511510000000 1.0
C      1  0.4575790000000  0.4868560000000  0.3979260000000 1.0
C      1  0.5132420000000  0.5504920000000  0.4961090000000 1.0
C      1  0.4504800000000  0.5265770000000  0.4790440000000 1.0
C      1  0.4106970000000  0.4479610000000  0.4777220000000 1.0
C      1  0.5849320000000  0.5339750000000  0.4568760000000 1.0
C      1  0.5080480000000  0.5448930000000  0.5365700000000 1.0
C      1  0.5553300000000  0.4750830000000  0.4070920000000 1.0
C      1  0.5347330000000  0.5087580000000  0.4923280000000 1.0
C      1  0.5464150000000  0.5549210000000  0.4302350000000 1.0
C      1  0.6024780000000  0.4981730000000  0.4958190000000 1.0
C      1  0.5677620000000  0.5578560000000  0.4507870000000 1.0
C      1  0.4437700000000  0.5556880000000  0.4274490000000 1.0
C      1  0.5579270000000  0.5694460000000  0.4762420000000 1.0
C      1  0.5478340000000  0.5087210000000  0.5410940000000 1.0
C      1  0.4590200000000  0.4995040000000  0.4636780000000 1.0
C      1  0.4656770000000  0.4562540000000  0.5124500000000 1.0
C      1  0.4329660000000  0.5644850000000  0.5097390000000 1.0
C      1  0.4483270000000  0.5711490000000  0.4516110000000 1.0
C      1  0.4664800000000  0.4451800000000  0.4261520000000 1.0
C      1  0.4687150000000  0.5120110000000  0.3888090000000 1.0
C      1  0.5678290000000  0.4119110000000  0.4852240000000 1.0
C      1  0.5126680000000  0.5909550000000  0.4639310000000 1.0
C      1  0.4188450000000  0.5154620000000  0.5417220000000 1.0
C      1  0.4172410000000  0.4676700000000  0.5383130000000 1.0
C      1  0.4664020000000  0.5256160000000  0.5024480000000 1.0
C      1  0.5375880000000  0.4827930000000  0.5488840000000 1.0
C      1  0.4909680000000  0.5274060000000  0.4880780000000 1.0
C      1  0.5785830000000  0.4515980000000  0.5388930000000 1.0
C      1  0.5236140000000  0.5615760000000  0.4129650000000 1.0
C      1  0.4891280000000  0.4311830000000  0.4268840000000 1.0
C      1  0.5082420000000  0.5084600000000  0.4210010000000 1.0
C      1  0.5334070000000  0.4338260000000  0.4254960000000 1.0
C      1  0.4972710000000  0.4657720000000  0.4694960000000 1.0
C      1  0.5713880000000  0.4284120000000  0.5225510000000 1.0
C      1  0.5402370000000  0.5894750000000  0.5224200000000 1.0
C      1  0.5208460000000  0.3907290000000  0.4798690000000 1.0
C      1  0.5786990000000  0.5048950000000  0.4511240000000 1.0
C      1  0.5085220000000  0.5213040000000  0.6121220000000 1.0
C      1  0.5293750000000  0.5010240000000  0.6119530000000 1.0
C      1  0.5457740000000  0.4694100000000  0.5756160000000 1.0
C      1  0.5144440000000  0.4824970000000  0.4557950000000 1.0
C      1  0.5842590000000  0.5399300000000  0.4839080000000 1.0
C      1  0.4927440000000  0.5885100000000  0.4434890000000 1.0
C      1  0.5375600000000  0.5261520000000  0.5624070000000 1.0
C      1  0.4508270000000  0.4633160000000  0.4901410000000 1.0
C      1  0.4109430000000  0.4402820000000  0.5031840000000 1.0
C      1  0.5099410000000  0.4117340000000  0.4607880000000 1.0
C      1  0.4478090000000  0.4933700000000  0.6086350000000 1.0
C      1  0.4694450000000  0.4741600000000  0.4712890000000 1.0
C      1  0.5483670000000  0.5028020000000  0.4118320000000 1.0
C      1  0.4741700000000  0.4641510000000  0.5821190000000 1.0
C      1  0.5000520000000  0.6043660000000  0.4867230000000 1.0
C      1  0.5601720000000  0.5474600000000  0.5178700000000 1.0
C      1  0.5461370000000  0.3967480000000  0.4948540000000 1.0
C      1  0.3958490000000  0.4955140000000  0.5043180000000 1.0
C      1  0.5514760000000  0.5105990000000  0.4422860000000 1.0
C      1  0.4606810000000  0.5294860000000  0.5301250000000 1.0
C      1  0.5199220000000  0.5978620000000  0.5051000000000 1.0
C      1  0.4272360000000  0.5355310000000  0.4404930000000 1.0
C      1  0.4149260000000  0.4999880000000  0.4830370000000 1.0
C      1  0.5912190000000  0.5218820000000  0.5040750000000 1.0
C      1  0.5569390000000  0.5638710000000  0.5625930000000 1.0
C      1  0.4733150000000  0.5148970000000  0.5524980000000 1.0
C      1  0.5335180000000  0.4655050000000  0.5253760000000 1.0
C      1  0.4946440000000  0.4658060000000  0.5606430000000 1.0
C      1  0.4823030000000  0.5380150000000  0.3935740000000 1.0
C      1  0.4153400000000  0.5435660000000  0.4988970000000 1.0
C      1  0.4943280000000  0.3892890000000  0.4923560000000 1.0
C      1  0.5303230000000  0.5433380000000  0.4492100000000 1.0
C      1  0.6017150000000  0.4756310000000  0.5023690000000 1.0
C      1  0.4038940000000  0.5224610000000  0.5169380000000 1.0
C      1  0.4316330000000  0.4919620000000  0.5293920000000 1.0
C      1  0.4780250000000  0.5854290000000  0.5236080000000 1.0
C      1  0.5246640000000  0.5146640000000  0.3978040000000 1.0
C      1  0.4844890000000  0.5314850000000  0.4581340000000 1.0
C      1  0.5504360000000  0.4944420000000  0.5933680000000 1.0
C      1  0.4540510000000  0.5680160000000  0.5583540000000 1.0
C      1  0.4195510000000  0.4472220000000  0.4497780000000 1.0
C      1  0.5600310000000  0.5737430000000  0.5050230000000 1.0
C      1  0.5699200000000  0.5151240000000  0.5851490000000 1.0
C      1  0.5065030000000  0.5066820000000  0.4983210000000 1.0
C      1  0.5082930000000  0.5827640000000  0.5648590000000 1.0
C      1  0.4992610000000  0.4950040000000  0.6166610000000 1.0
C      1  0.5470420000000  0.4097020000000  0.5213700000000 1.0
C      1  0.5875830000000  0.4829570000000  0.5659090000000 1.0
C      1  0.4594060000000  0.4396860000000  0.5364760000000 1.0
C      1  0.5871700000000  0.5105540000000  0.5604810000000 1.0
C      1  0.5069310000000  0.4522080000000  0.5249980000000 1.0
C      1  0.4733690000000  0.4771320000000  0.4224870000000 1.0
C      1  0.4907880000000  0.4921280000000  0.5467970000000 1.0
C      1  0.5217650000000  0.4086720000000  0.5365430000000 1.0
C      1  0.5823590000000  0.4769790000000  0.4603890000000 1.0
C      1  0.4790730000000  0.5816390000000  0.5520280000000 1.0
C      1  0.5761530000000  0.5082340000000  0.5313980000000 1.0
C      1  0.4993330000000  0.5633740000000  0.5200000000000 1.0
C      1  0.4359970000000  0.4892390000000  0.5004540000000 1.0
C      1  0.4921300000000  0.4062620000000  0.5169670000000 1.0
C      1  0.4552690000000  0.5840350000000  0.5047210000000 1.0
C      1  0.5432200000000  0.4529940000000  0.4794130000000 1.0
C      1  0.4294730000000  0.4765460000000  0.5939850000000 1.0
C      1  0.5051030000000  0.5719000000000  0.5908650000000 1.0
C      1  0.5062150000000  0.4304590000000  0.5056540000000 1.0
C      1  0.4470240000000  0.5453190000000  0.5762900000000 1.0
C      1  0.4456940000000  0.4328840000000  0.4430040000000 1.0
C      1  0.4483540000000  0.4297130000000  0.4874520000000 1.0
C      1  0.4366290000000  0.5138900000000  0.4242290000000 1.0
C      1  0.5150610000000  0.4393670000000  0.4784510000000 1.0
C      1  0.4937160000000  0.4915210000000  0.5180040000000 1.0
C      1  0.4567660000000  0.4150330000000  0.4637240000000 1.0
C      1  0.5019730000000  0.4816870000000  0.4315700000000 1.0
C      1  0.4750970000000  0.4832440000000  0.6042390000000 1.0
C      1  0.4667630000000  0.5911830000000  0.4563850000000 1.0
C      1  0.4238550000000  0.4674120000000  0.4305730000000 1.0
C      1  0.5069760000000  0.5303730000000  0.4406480000000 1.0
C      1  0.4012850000000  0.4657660000000  0.5138530000000 1.0
C      1  0.5196040000000  0.4512710000000  0.5705130000000 1.0
C      1  0.5123900000000  0.4162430000000  0.4288410000000 1.0
C      1  0.5546170000000  0.5404020000000  0.5820020000000 1.0
C      1  0.4634410000000  0.5047820000000  0.4362830000000 1.0
C      1  0.4356350000000  0.4492300000000  0.5518360000000 1.0
C      1  0.5946460000000  0.4600520000000  0.4816430000000 1.0
C      1  0.4435630000000  0.5531910000000  0.5348550000000 1.0
C      1  0.4905180000000  0.4664990000000  0.5076320000000 1.0
C      1  0.4612590000000  0.4129730000000  0.5248730000000 1.0
C      1  0.5826300000000  0.4324470000000  0.4951670000000 1.0
C      1  0.5102870000000  0.5335830000000  0.5611470000000 1.0
C      1  0.4201220000000  0.5295040000000  0.4725670000000 1.0
C      1  0.4644810000000  0.5514050000000  0.4651530000000 1.0
C      1  0.4959940000000  0.5707930000000  0.4205440000000 1.0
C      1  0.4823050000000  0.4005490000000  0.4678080000000 1.0
C      1  0.5354340000000  0.5338100000000  0.5075550000000 1.0
C      1  0.5539530000000  0.4516630000000  0.4266810000000 1.0
END
