TITL C-884129-4740-26 -96278.0602838667 125000 -20696.4025797178 0 0 137 (C1) n - 1
REM
REM in /home/nfs/bkarasulu/CARBON/AIRSS/Generating-Clusters/ReaxFF-fromJPCA2015/Units_Real/with-SteepDescent/Only-C1/SD-CG/Try1-3A/FIRE-CG
REM
REM
REM
REM
REM
REM ./C.cell (11c1c37f851c82e70ff6c80c92926a4b)
REM
REM compiler GCC version 9.2.1 20190827 (Red Hat 9.2.1-1)
REM options -cpp -mtune=generic -march=x86-64 -g -O0 -fpre-include=/usr/include/finclude/math-vector-fortran.h
REM seed 941185312 1934943881 571083615 -1647257609 -1057887143 1449409607 -418924774 -365159734 -1869571338 37475782 1787281631 428142848 -2113606880 -440205884 984713109 -912828455 25786472 -564587570 -1478677120 1034260915 -283315224 -1509622487 -1971796624 -122753917 1852207688 -122975103 687968944 -1470413211 -1374804821 1424979157 -170118696 1014101677 1746242652
REM
CELL 1.54180   50.00000   50.00000   50.00000   90.00000   90.00000   90.00000
LATT -1
SFAC C  
C      1  0.5352680000000  0.4559330000000  0.4269820000000 1.0
C      1  0.4303790000000  0.5585800000000  0.5464950000000 1.0
C      1  0.5325940000000  0.5106050000000  0.4210860000000 1.0
C      1  0.5908160000000  0.4749030000000  0.5676320000000 1.0
C      1  0.5486380000000  0.5048720000000  0.5122960000000 1.0
C      1  0.5502210000000  0.4260450000000  0.4598960000000 1.0
C      1  0.5011870000000  0.4967870000000  0.5438520000000 1.0
C      1  0.4592650000000  0.5177030000000  0.4552580000000 1.0
C      1  0.5957910000000  0.5095750000000  0.4834880000000 1.0
C      1  0.4562740000000  0.5351100000000  0.4108430000000 1.0
C      1  0.4272630000000  0.4682660000000  0.4353650000000 1.0
C      1  0.5876950000000  0.5395650000000  0.5200230000000 1.0
C      1  0.5937830000000  0.4638610000000  0.5229750000000 1.0
C      1  0.5564200000000  0.5176000000000  0.4365660000000 1.0
C      1  0.5144520000000  0.4364860000000  0.4301040000000 1.0
C      1  0.4331250000000  0.5062200000000  0.5613750000000 1.0
C      1  0.4234890000000  0.4624430000000  0.5384810000000 1.0
C      1  0.5148270000000  0.4857120000000  0.4835150000000 1.0
C      1  0.4767560000000  0.4979210000000  0.4409080000000 1.0
C      1  0.5264220000000  0.4612030000000  0.4898490000000 1.0
C      1  0.5242010000000  0.4326920000000  0.5488270000000 1.0
C      1  0.5460080000000  0.4617050000000  0.5877450000000 1.0
C      1  0.4613150000000  0.4107540000000  0.4660460000000 1.0
C      1  0.4934340000000  0.5475710000000  0.5048470000000 1.0
C      1  0.4323420000000  0.4865070000000  0.5036320000000 1.0
C      1  0.5111370000000  0.5312610000000  0.4270590000000 1.0
C      1  0.5823380000000  0.5205510000000  0.5665560000000 1.0
C      1  0.4917730000000  0.5096670000000  0.5993480000000 1.0
C      1  0.5268810000000  0.4401960000000  0.5769300000000 1.0
C      1  0.5419530000000  0.4916980000000  0.5922030000000 1.0
C      1  0.4314490000000  0.5184520000000  0.4492370000000 1.0
C      1  0.5185280000000  0.5627490000000  0.4221610000000 1.0
C      1  0.4904100000000  0.5424710000000  0.4760880000000 1.0
C      1  0.5228500000000  0.5497880000000  0.5006210000000 1.0
C      1  0.4397900000000  0.4780010000000  0.5567920000000 1.0
C      1  0.4704360000000  0.4132060000000  0.4969270000000 1.0
C      1  0.4915090000000  0.5680820000000  0.4249610000000 1.0
C      1  0.4912860000000  0.5533650000000  0.5651680000000 1.0
C      1  0.4888250000000  0.4715660000000  0.5483420000000 1.0
C      1  0.4223710000000  0.5441450000000  0.4471710000000 1.0
C      1  0.5617170000000  0.5727420000000  0.4850180000000 1.0
C      1  0.4093990000000  0.4826270000000  0.5206830000000 1.0
C      1  0.4935520000000  0.3927570000000  0.4953400000000 1.0
C      1  0.4650090000000  0.5712230000000  0.5655370000000 1.0
C      1  0.5208310000000  0.4206710000000  0.4582110000000 1.0
C      1  0.4358180000000  0.5343970000000  0.5150670000000 1.0
C      1  0.5857050000000  0.5349760000000  0.4720020000000 1.0
C      1  0.5433690000000  0.4809710000000  0.5282450000000 1.0
C      1  0.4869700000000  0.4861130000000  0.4924700000000 1.0
C      1  0.5576180000000  0.4498680000000  0.4446820000000 1.0
C      1  0.4920060000000  0.4481200000000  0.4156280000000 1.0
C      1  0.5291100000000  0.5774860000000  0.4447960000000 1.0
C      1  0.5143560000000  0.5655560000000  0.5494060000000 1.0
C      1  0.4879410000000  0.5209960000000  0.5276130000000 1.0
C      1  0.5163170000000  0.5001350000000  0.5959500000000 1.0
C      1  0.5478210000000  0.4280070000000  0.5326740000000 1.0
C      1  0.5595450000000  0.4222510000000  0.4871590000000 1.0
C      1  0.5918150000000  0.4610340000000  0.4943690000000 1.0
C      1  0.4232840000000  0.4202630000000  0.4853840000000 1.0
C      1  0.5816480000000  0.5533230000000  0.4943300000000 1.0
C      1  0.4774120000000  0.5326470000000  0.5509590000000 1.0
C      1  0.4743810000000  0.5061520000000  0.5082600000000 1.0
C      1  0.4476420000000  0.5093080000000  0.5058180000000 1.0
C      1  0.5087680000000  0.4410860000000  0.4815650000000 1.0
C      1  0.4724290000000  0.4407480000000  0.5846720000000 1.0
C      1  0.5119330000000  0.6023820000000  0.4862800000000 1.0
C      1  0.4654940000000  0.4351770000000  0.4234140000000 1.0
C      1  0.4337900000000  0.4385910000000  0.5257070000000 1.0
C      1  0.5373880000000  0.5213500000000  0.5325460000000 1.0
C      1  0.4216830000000  0.5606960000000  0.4731460000000 1.0
C      1  0.4496120000000  0.5060570000000  0.4020280000000 1.0
C      1  0.5127350000000  0.3953970000000  0.4740930000000 1.0
C      1  0.5578610000000  0.4979800000000  0.4580970000000 1.0
C      1  0.4359900000000  0.4673760000000  0.4840240000000 1.0
C      1  0.5024850000000  0.5841760000000  0.5303900000000 1.0
C      1  0.4783030000000  0.5744930000000  0.5163040000000 1.0
C      1  0.4396850000000  0.4405550000000  0.4358030000000 1.0
C      1  0.4662810000000  0.4701020000000  0.5695550000000 1.0
C      1  0.4137210000000  0.5438410000000  0.4965620000000 1.0
C      1  0.4847100000000  0.5289490000000  0.4097170000000 1.0
C      1  0.4115640000000  0.4460100000000  0.4895260000000 1.0
C      1  0.5987490000000  0.5136110000000  0.5119640000000 1.0
C      1  0.5673640000000  0.5419850000000  0.4501720000000 1.0
C      1  0.4367850000000  0.4871590000000  0.4165750000000 1.0
C      1  0.5730660000000  0.4740360000000  0.4533920000000 1.0
C      1  0.5295390000000  0.5318050000000  0.4790880000000 1.0
C      1  0.5250000000000  0.5483080000000  0.6013620000000 1.0
C      1  0.5640230000000  0.4500630000000  0.4968880000000 1.0
C      1  0.4009830000000  0.5105840000000  0.5196550000000 1.0
C      1  0.5252880000000  0.4827850000000  0.4155900000000 1.0
C      1  0.5216170000000  0.5975770000000  0.5123080000000 1.0
C      1  0.5222600000000  0.3923420000000  0.5015140000000 1.0
C      1  0.5501710000000  0.5429190000000  0.5848690000000 1.0
C      1  0.5446990000000  0.4105550000000  0.5094050000000 1.0
C      1  0.5020620000000  0.4491850000000  0.5322200000000 1.0
C      1  0.4548320000000  0.5734450000000  0.5385620000000 1.0
C      1  0.5381180000000  0.5046650000000  0.4843810000000 1.0
C      1  0.5536190000000  0.5671480000000  0.4568720000000 1.0
C      1  0.4997940000000  0.4390190000000  0.5822070000000 1.0
C      1  0.5389690000000  0.5747140000000  0.5032250000000 1.0
C      1  0.4006450000000  0.5189300000000  0.4912180000000 1.0
C      1  0.5649840000000  0.4531510000000  0.5273030000000 1.0
C      1  0.5605320000000  0.5161920000000  0.5852800000000 1.0
C      1  0.6029450000000  0.4908220000000  0.5309650000000 1.0
C      1  0.5347320000000  0.5492530000000  0.5390750000000 1.0
C      1  0.5936770000000  0.4815890000000  0.4735790000000 1.0
C      1  0.4114610000000  0.5079650000000  0.4648900000000 1.0
C      1  0.4991610000000  0.4754380000000  0.4068220000000 1.0
C      1  0.4782400000000  0.4224990000000  0.4460380000000 1.0
C      1  0.4660490000000  0.5883880000000  0.4895760000000 1.0
C      1  0.4855330000000  0.4508490000000  0.4621890000000 1.0
C      1  0.4417710000000  0.4176760000000  0.5096070000000 1.0
C      1  0.4422880000000  0.5543110000000  0.5731140000000 1.0
C      1  0.4362530000000  0.4209080000000  0.4573730000000 1.0
C      1  0.5227850000000  0.4643060000000  0.5171640000000 1.0
C      1  0.4701560000000  0.4619060000000  0.4898640000000 1.0
C      1  0.4194760000000  0.5268700000000  0.5385400000000 1.0
C      1  0.4400420000000  0.5025980000000  0.5963160000000 1.0
C      1  0.4810610000000  0.4756420000000  0.4506340000000 1.0
C      1  0.5705440000000  0.4640840000000  0.5781260000000 1.0
C      1  0.5077210000000  0.5954320000000  0.4597340000000 1.0
C      1  0.4685120000000  0.5435970000000  0.4619070000000 1.0
C      1  0.4789510000000  0.5912000000000  0.4639170000000 1.0
C      1  0.6018650000000  0.4984160000000  0.5592500000000 1.0
C      1  0.4434440000000  0.5762160000000  0.4801060000000 1.0
C      1  0.5297530000000  0.4985070000000  0.5482260000000 1.0
C      1  0.4859660000000  0.4397870000000  0.5026710000000 1.0
C      1  0.4224340000000  0.4809350000000  0.4614270000000 1.0
C      1  0.4664540000000  0.4929330000000  0.5922070000000 1.0
C      1  0.4669040000000  0.5670330000000  0.4418570000000 1.0
C      1  0.4543160000000  0.5269260000000  0.5666960000000 1.0
C      1  0.5538110000000  0.5558890000000  0.5575990000000 1.0
C      1  0.5096160000000  0.5330760000000  0.4593120000000 1.0
C      1  0.5783280000000  0.5428360000000  0.5476520000000 1.0
C      1  0.4987860000000  0.5384990000000  0.5935630000000 1.0
C      1  0.4802120000000  0.4996700000000  0.4071440000000 1.0
C      1  0.4424580000000  0.5533630000000  0.4281320000000 1.0
END
