TITL C-884130-5973-263 -4.58143919305788 125000 -14648.3156231988 0 0 98 (C1) n - 1
REM
REM in /home/nfs/bkarasulu/CARBON/AIRSS/Generating-Clusters/ReaxFF-fromJPCA2015/Units_Real/with-SteepDescent/Only-C1/SD-CG/Try1-3A/FIRE-CG
REM
REM
REM
REM
REM
REM ./C.cell (11c1c37f851c82e70ff6c80c92926a4b)
REM
REM compiler GCC version 9.2.1 20190827 (Red Hat 9.2.1-1)
REM options -cpp -mtune=generic -march=x86-64 -g -O0 -fpre-include=/usr/include/finclude/math-vector-fortran.h
REM seed 636928979 -487269030 1811854059 -350688447 -1704532881 1773270756 -1376352153 -804652267 -217378 735615317 228970139 -1261508984 -1649533708 -179162282 190986950 583734513 5885397 1712178127 -59011677 1691160118 -1802497434 1334739713 -2005763760 1324585859 -719309289 2128873939 1896523410 2125654002 834979342 2059744282 -1750072008 369840550 1685615995
REM
CELL 1.54180   50.00000   50.00000   50.00000   90.00000   90.00000   90.00000
LATT -1
SFAC C  
C      1  0.4506770000000  0.4653400000000  0.4318870000000 1.0
C      1  0.5540760000000  0.5658290000000  0.4560110000000 1.0
C      1  0.4753680000000  0.5613570000000  0.4605640000000 1.0
C      1  0.4223680000000  0.5489330000000  0.4654870000000 1.0
C      1  0.4928110000000  0.4391850000000  0.4611960000000 1.0
C      1  0.4676700000000  0.4252470000000  0.4628570000000 1.0
C      1  0.5069870000000  0.5316950000000  0.4266480000000 1.0
C      1  0.5270540000000  0.5673990000000  0.5160210000000 1.0
C      1  0.5382680000000  0.4238840000000  0.5140450000000 1.0
C      1  0.5358310000000  0.4739210000000  0.4354430000000 1.0
C      1  0.5304940000000  0.4796680000000  0.5662620000000 1.0
C      1  0.4913980000000  0.5382320000000  0.4511980000000 1.0
C      1  0.4345160000000  0.5341270000000  0.5365750000000 1.0
C      1  0.4632770000000  0.5162710000000  0.5813540000000 1.0
C      1  0.4460960000000  0.4707800000000  0.5406480000000 1.0
C      1  0.4287920000000  0.4542820000000  0.4656790000000 1.0
C      1  0.5522890000000  0.4976410000000  0.5601910000000 1.0
C      1  0.4733640000000  0.4298380000000  0.5511230000000 1.0
C      1  0.5051920000000  0.4900840000000  0.5786450000000 1.0
C      1  0.5900860000000  0.5308730000000  0.4771470000000 1.0
C      1  0.4892760000000  0.5196480000000  0.5037140000000 1.0
C      1  0.5413970000000  0.5198770000000  0.4977250000000 1.0
C      1  0.4506690000000  0.4390440000000  0.5067880000000 1.0
C      1  0.5113990000000  0.5697110000000  0.5687520000000 1.0
C      1  0.4924860000000  0.5167350000000  0.5795220000000 1.0
C      1  0.4309880000000  0.4895670000000  0.5592830000000 1.0
C      1  0.5091780000000  0.5425530000000  0.5830410000000 1.0
C      1  0.5881090000000  0.4530300000000  0.5110400000000 1.0
C      1  0.4685300000000  0.5914890000000  0.5001980000000 1.0
C      1  0.4926960000000  0.4143800000000  0.5049360000000 1.0
C      1  0.4405600000000  0.5172730000000  0.5611790000000 1.0
C      1  0.4143940000000  0.4797200000000  0.4939250000000 1.0
C      1  0.5459100000000  0.4682250000000  0.5231220000000 1.0
C      1  0.5880730000000  0.4728030000000  0.5317630000000 1.0
C      1  0.5163340000000  0.5731220000000  0.4896960000000 1.0
C      1  0.5186160000000  0.5791620000000  0.5416600000000 1.0
C      1  0.4303910000000  0.5704200000000  0.4815710000000 1.0
C      1  0.5090300000000  0.5025270000000  0.5176420000000 1.0
C      1  0.4617390000000  0.5101630000000  0.4133520000000 1.0
C      1  0.4728350000000  0.4602110000000  0.5045700000000 1.0
C      1  0.5210240000000  0.4712140000000  0.4824580000000 1.0
C      1  0.4167910000000  0.5207910000000  0.4684300000000 1.0
C      1  0.5311590000000  0.4582030000000  0.5460920000000 1.0
C      1  0.4455040000000  0.4413250000000  0.4483050000000 1.0
C      1  0.4954880000000  0.4212760000000  0.5337130000000 1.0
C      1  0.4615930000000  0.4903020000000  0.5970760000000 1.0
C      1  0.5207140000000  0.4705550000000  0.4118950000000 1.0
C      1  0.5575570000000  0.5456070000000  0.4345640000000 1.0
C      1  0.5582750000000  0.4453430000000  0.5105850000000 1.0
C      1  0.4587760000000  0.4992990000000  0.4728680000000 1.0
C      1  0.4336360000000  0.5196110000000  0.5115840000000 1.0
C      1  0.5784470000000  0.4950030000000  0.5462660000000 1.0
C      1  0.5886890000000  0.5038830000000  0.4643480000000 1.0
C      1  0.4463080000000  0.5633860000000  0.4595210000000 1.0
C      1  0.4118390000000  0.5082170000000  0.4951210000000 1.0
C      1  0.5317800000000  0.4899290000000  0.5043940000000 1.0
C      1  0.4829010000000  0.4898410000000  0.4618700000000 1.0
C      1  0.5876090000000  0.5283510000000  0.5051170000000 1.0
C      1  0.5624800000000  0.5387620000000  0.5372750000000 1.0
C      1  0.5375990000000  0.5395320000000  0.5843810000000 1.0
C      1  0.5226810000000  0.4306710000000  0.5380510000000 1.0
C      1  0.4938940000000  0.4684110000000  0.4135110000000 1.0
C      1  0.4376440000000  0.5047490000000  0.4560600000000 1.0
C      1  0.4462640000000  0.5604440000000  0.5318390000000 1.0
C      1  0.5857100000000  0.5224120000000  0.5320850000000 1.0
C      1  0.5041530000000  0.4899500000000  0.3990690000000 1.0
C      1  0.5604210000000  0.5026990000000  0.4613770000000 1.0
C      1  0.4904760000000  0.5146760000000  0.4085390000000 1.0
C      1  0.5360910000000  0.5262490000000  0.4280490000000 1.0
C      1  0.4856820000000  0.4201050000000  0.5897860000000 1.0
C      1  0.5295820000000  0.5261320000000  0.4724790000000 1.0
C      1  0.5131690000000  0.5216020000000  0.5377260000000 1.0
C      1  0.5335890000000  0.4577130000000  0.4603620000000 1.0
C      1  0.4778960000000  0.4752380000000  0.4362630000000 1.0
C      1  0.4634280000000  0.4814830000000  0.5197610000000 1.0
C      1  0.5759650000000  0.4790170000000  0.4675800000000 1.0
C      1  0.4671750000000  0.4180870000000  0.4910350000000 1.0
C      1  0.4506460000000  0.4416640000000  0.5373730000000 1.0
C      1  0.4744590000000  0.5591810000000  0.5397350000000 1.0
C      1  0.4876140000000  0.5778920000000  0.4817000000000 1.0
C      1  0.4595260000000  0.5074020000000  0.5013920000000 1.0
C      1  0.5203100000000  0.4312080000000  0.4656160000000 1.0
C      1  0.4842940000000  0.4732410000000  0.5878890000000 1.0
C      1  0.4804640000000  0.4420510000000  0.5789910000000 1.0
C      1  0.4417100000000  0.4940760000000  0.4277670000000 1.0
C      1  0.5455690000000  0.5437450000000  0.5138710000000 1.0
C      1  0.5310220000000  0.5565370000000  0.4707080000000 1.0
C      1  0.4916390000000  0.4651460000000  0.4798600000000 1.0
C      1  0.5891290000000  0.4729480000000  0.4911030000000 1.0
C      1  0.4433760000000  0.5768750000000  0.5071810000000 1.0
C      1  0.4232370000000  0.4535250000000  0.4926590000000 1.0
C      1  0.5411610000000  0.5250120000000  0.5549150000000 1.0
C      1  0.5190180000000  0.4182630000000  0.4925230000000 1.0
C      1  0.5778090000000  0.5489970000000  0.4557250000000 1.0
C      1  0.4995750000000  0.5187390000000  0.4717320000000 1.0
C      1  0.5455070000000  0.5004220000000  0.4378560000000 1.0
C      1  0.4919670000000  0.5383910000000  0.5281580000000 1.0
C      1  0.4907530000000  0.5803740000000  0.5513500000000 1.0
END
