TITL C-884138-6203-400 30.2912569111027 125000 -18988.9080155081 0 0 126 (C1) n - 1
REM
REM in /home/nfs/bkarasulu/CARBON/AIRSS/Generating-Clusters/ReaxFF-fromJPCA2015/Units_Real/with-SteepDescent/Only-C1/SD-CG/Try1-3A/FIRE-CG
REM
REM
REM
REM
REM
REM ./C.cell (11c1c37f851c82e70ff6c80c92926a4b)
REM
REM compiler GCC version 9.2.1 20190827 (Red Hat 9.2.1-1)
REM options -cpp -mtune=generic -march=x86-64 -g -O0 -fpre-include=/usr/include/finclude/math-vector-fortran.h
REM seed 1481248041 1827235654 1955198847 1903580352 2059279532 1492825710 1544578499 663999576 -95752883 -202407904 -1079238758 -401144128 2091843089 -937338358 394115238 -1913045096 991936187 887621522 -377481371 1011395656 393459556 -1420073688 1384144175 -1058376323 309793963 1938218298 1769749701 69693091 -1845446241 -954808653 2088194630 211175554 -1476201832
REM
CELL 1.54180   50.00000   50.00000   50.00000   90.00000   90.00000   90.00000
LATT -1
SFAC C  
C      1  0.4683940000000  0.5745360000000  0.4377310000000 1.0
C      1  0.5020070000000  0.4024620000000  0.5021780000000 1.0
C      1  0.5414540000000  0.4219150000000  0.4434060000000 1.0
C      1  0.5081460000000  0.4453590000000  0.4168800000000 1.0
C      1  0.4234380000000  0.4756120000000  0.5054300000000 1.0
C      1  0.5259170000000  0.4897090000000  0.4095200000000 1.0
C      1  0.5183250000000  0.4442210000000  0.5640450000000 1.0
C      1  0.5347600000000  0.4857700000000  0.5866050000000 1.0
C      1  0.4573150000000  0.4578740000000  0.4386400000000 1.0
C      1  0.5061380000000  0.6070810000000  0.5045990000000 1.0
C      1  0.5019240000000  0.4737190000000  0.4116470000000 1.0
C      1  0.5418950000000  0.5140050000000  0.4155870000000 1.0
C      1  0.4731840000000  0.4657270000000  0.5230080000000 1.0
C      1  0.4721500000000  0.5904330000000  0.5347320000000 1.0
C      1  0.4375810000000  0.4370130000000  0.4787200000000 1.0
C      1  0.4625730000000  0.4199830000000  0.5281680000000 1.0
C      1  0.4610940000000  0.4231810000000  0.4770790000000 1.0
C      1  0.4706040000000  0.4345720000000  0.4496370000000 1.0
C      1  0.5803550000000  0.5018640000000  0.4523960000000 1.0
C      1  0.4378870000000  0.4918660000000  0.5685360000000 1.0
C      1  0.5518590000000  0.5869910000000  0.4903620000000 1.0
C      1  0.4154320000000  0.4952590000000  0.5520410000000 1.0
C      1  0.4807540000000  0.4867600000000  0.4784290000000 1.0
C      1  0.5598680000000  0.4666740000000  0.5453510000000 1.0
C      1  0.4111110000000  0.5351080000000  0.4603750000000 1.0
C      1  0.4622040000000  0.5496050000000  0.5540080000000 1.0
C      1  0.5439050000000  0.5364480000000  0.5855370000000 1.0
C      1  0.5401170000000  0.5779890000000  0.4631220000000 1.0
C      1  0.4858920000000  0.4933030000000  0.5347910000000 1.0
C      1  0.4235890000000  0.5384910000000  0.4358190000000 1.0
C      1  0.4603600000000  0.4897910000000  0.5850470000000 1.0
C      1  0.4168230000000  0.4584210000000  0.4771960000000 1.0
C      1  0.5469920000000  0.4704530000000  0.5177880000000 1.0
C      1  0.4673170000000  0.5416620000000  0.5828620000000 1.0
C      1  0.5308650000000  0.5178790000000  0.4613200000000 1.0
C      1  0.5512250000000  0.4343220000000  0.4699390000000 1.0
C      1  0.4032600000000  0.5240070000000  0.5122020000000 1.0
C      1  0.5272500000000  0.4963740000000  0.4804490000000 1.0
C      1  0.4744940000000  0.4122120000000  0.5027190000000 1.0
C      1  0.4850320000000  0.4643140000000  0.4957630000000 1.0
C      1  0.5179750000000  0.3997090000000  0.4769420000000 1.0
C      1  0.5723770000000  0.4176000000000  0.5261020000000 1.0
C      1  0.4497640000000  0.5756280000000  0.5460320000000 1.0
C      1  0.5635010000000  0.5438390000000  0.5637260000000 1.0
C      1  0.4297840000000  0.4630830000000  0.4457090000000 1.0
C      1  0.5723300000000  0.5147440000000  0.5625210000000 1.0
C      1  0.5140160000000  0.5794370000000  0.5159080000000 1.0
C      1  0.4223020000000  0.5825970000000  0.5068420000000 1.0
C      1  0.4448440000000  0.5699650000000  0.4910270000000 1.0
C      1  0.4671240000000  0.5888040000000  0.4847150000000 1.0
C      1  0.5456710000000  0.4064630000000  0.4832400000000 1.0
C      1  0.4778060000000  0.6025790000000  0.5082150000000 1.0
C      1  0.5877910000000  0.4718560000000  0.4543240000000 1.0
C      1  0.5537740000000  0.5099250000000  0.4425170000000 1.0
C      1  0.5072640000000  0.5380190000000  0.4251750000000 1.0
C      1  0.5273820000000  0.4505110000000  0.5158070000000 1.0
C      1  0.4894940000000  0.5599210000000  0.4272940000000 1.0
C      1  0.4421330000000  0.4617140000000  0.5226570000000 1.0
C      1  0.5603230000000  0.4361350000000  0.5448840000000 1.0
C      1  0.5669410000000  0.5453100000000  0.4671890000000 1.0
C      1  0.4701160000000  0.5134540000000  0.5302790000000 1.0
C      1  0.5049410000000  0.5176980000000  0.4477390000000 1.0
C      1  0.5260490000000  0.4515350000000  0.4753060000000 1.0
C      1  0.4659610000000  0.5270710000000  0.4486760000000 1.0
C      1  0.4156470000000  0.5233270000000  0.5525420000000 1.0
C      1  0.5173470000000  0.5543320000000  0.4915890000000 1.0
C      1  0.4848220000000  0.4720600000000  0.5842020000000 1.0
C      1  0.4051550000000  0.5305460000000  0.4847580000000 1.0
C      1  0.4101320000000  0.4305560000000  0.5168220000000 1.0
C      1  0.4354970000000  0.4340750000000  0.5297880000000 1.0
C      1  0.5221550000000  0.4751010000000  0.4604440000000 1.0
C      1  0.5492040000000  0.4019960000000  0.5116780000000 1.0
C      1  0.5041210000000  0.5290090000000  0.4913420000000 1.0
C      1  0.5511650000000  0.5566360000000  0.4454240000000 1.0
C      1  0.5401280000000  0.4701810000000  0.4304750000000 1.0
C      1  0.5846990000000  0.4385800000000  0.5121300000000 1.0
C      1  0.5298260000000  0.4307310000000  0.5385240000000 1.0
C      1  0.4232490000000  0.5710550000000  0.5342800000000 1.0
C      1  0.4951980000000  0.4273480000000  0.4365970000000 1.0
C      1  0.4754630000000  0.4417410000000  0.5426490000000 1.0
C      1  0.5157930000000  0.5296490000000  0.5400950000000 1.0
C      1  0.5117110000000  0.5722040000000  0.4677930000000 1.0
C      1  0.5776820000000  0.4530780000000  0.4746320000000 1.0
C      1  0.4107730000000  0.4965450000000  0.5205780000000 1.0
C      1  0.4323990000000  0.5120400000000  0.4228520000000 1.0
C      1  0.4502650000000  0.5505610000000  0.4396030000000 1.0
C      1  0.4710590000000  0.5162340000000  0.5956210000000 1.0
C      1  0.4958930000000  0.4890080000000  0.4531260000000 1.0
C      1  0.5562030000000  0.5598550000000  0.5394390000000 1.0
C      1  0.5229220000000  0.4043210000000  0.5225340000000 1.0
C      1  0.5153160000000  0.5377920000000  0.5937390000000 1.0
C      1  0.4606030000000  0.5223690000000  0.4783190000000 1.0
C      1  0.5342220000000  0.6013570000000  0.5085070000000 1.0
C      1  0.5613770000000  0.5686380000000  0.5110370000000 1.0
C      1  0.4612790000000  0.5074850000000  0.4268280000000 1.0
C      1  0.5681230000000  0.4646890000000  0.4358680000000 1.0
C      1  0.4847290000000  0.5832530000000  0.4619430000000 1.0
C      1  0.5831700000000  0.5160460000000  0.5016260000000 1.0
C      1  0.4760050000000  0.4808360000000  0.4275800000000 1.0
C      1  0.5154390000000  0.4099540000000  0.4495100000000 1.0
C      1  0.4257310000000  0.4870090000000  0.4329350000000 1.0
C      1  0.4970500000000  0.5772050000000  0.5384840000000 1.0
C      1  0.4899740000000  0.4482410000000  0.5679100000000 1.0
C      1  0.5413210000000  0.5365410000000  0.5307870000000 1.0
C      1  0.4008530000000  0.4419860000000  0.4952860000000 1.0
C      1  0.5541700000000  0.5220270000000  0.5094110000000 1.0
C      1  0.4967230000000  0.5527850000000  0.5513940000000 1.0
C      1  0.5846350000000  0.5221780000000  0.4727430000000 1.0
C      1  0.5089570000000  0.4498150000000  0.4959250000000 1.0
C      1  0.5346430000000  0.4961840000000  0.5097140000000 1.0
C      1  0.5068640000000  0.4873110000000  0.5955510000000 1.0
C      1  0.5125870000000  0.5039090000000  0.5310010000000 1.0
C      1  0.5536610000000  0.5089290000000  0.5848830000000 1.0
C      1  0.4824220000000  0.5112440000000  0.4909080000000 1.0
C      1  0.5788840000000  0.4928120000000  0.5440770000000 1.0
C      1  0.4095080000000  0.5436280000000  0.5350950000000 1.0
C      1  0.5368640000000  0.5425250000000  0.4227910000000 1.0
C      1  0.5365970000000  0.4406980000000  0.4217510000000 1.0
C      1  0.4516890000000  0.5419180000000  0.4976620000000 1.0
C      1  0.4547350000000  0.5331030000000  0.5258800000000 1.0
C      1  0.4940230000000  0.5527010000000  0.5807530000000 1.0
C      1  0.5506410000000  0.5465770000000  0.4928840000000 1.0
C      1  0.5788610000000  0.4651220000000  0.5023390000000 1.0
C      1  0.4992960000000  0.5147460000000  0.6024370000000 1.0
C      1  0.5887880000000  0.4932120000000  0.5175350000000 1.0
C      1  0.5385980000000  0.4638510000000  0.5689050000000 1.0
END
