TITL C-883735-9890-282 146.180855319233 125000 -24582.7616379994 0 0 167 (C1) n - 1
REM
REM in /home/nfs/bkarasulu/CARBON/AIRSS/Generating-Clusters/ReaxFF-fromJPCA2015/Units_Real/with-SteepDescent/Only-C1/SD-CG/Try1-3A/FIRE-CG
REM
REM
REM
REM
REM
REM ./C.cell (11c1c37f851c82e70ff6c80c92926a4b)
REM
REM compiler GCC version 9.2.1 20190827 (Red Hat 9.2.1-1)
REM options -cpp -mtune=generic -march=x86-64 -g -O0 -fpre-include=/usr/include/finclude/math-vector-fortran.h
REM seed -1534867902 -1140358932 437485912 1833594272 981345141 1801785560 -660806868 1606228847 -1850887209 1643787866 -1326043281 -989361050 -2071738135 -2019258738 -812221043 747197087 373570898 1592699455 1708674673 -239728870 -1844191882 -857253025 -1754781151 -666212759 -948670590 1407128612 224929568 180776050 -689745219 962597382 152869931 440196138 1489059036
REM
CELL 1.54180   50.00000   50.00000   50.00000   90.00000   90.00000   90.00000
LATT -1
SFAC C  
C      1  0.5532190000000  0.4226060000000  0.4321070000000 1.0
C      1  0.5260870000000  0.4630290000000  0.5876310000000 1.0
C      1  0.5874820000000  0.4547230000000  0.5414210000000 1.0
C      1  0.5567350000000  0.5534760000000  0.4303790000000 1.0
C      1  0.5359450000000  0.5863430000000  0.4635960000000 1.0
C      1  0.4322810000000  0.4352580000000  0.5438260000000 1.0
C      1  0.4210060000000  0.4969690000000  0.5597110000000 1.0
C      1  0.5467520000000  0.4644560000000  0.3998140000000 1.0
C      1  0.4106820000000  0.4515500000000  0.5073380000000 1.0
C      1  0.5597070000000  0.5765070000000  0.4481820000000 1.0
C      1  0.5181610000000  0.4715260000000  0.3985210000000 1.0
C      1  0.5632990000000  0.4942920000000  0.4694920000000 1.0
C      1  0.6110070000000  0.5324820000000  0.5016550000000 1.0
C      1  0.4176570000000  0.5702060000000  0.4351330000000 1.0
C      1  0.5937790000000  0.4491670000000  0.4885160000000 1.0
C      1  0.5244310000000  0.4181470000000  0.5734240000000 1.0
C      1  0.4216710000000  0.4266590000000  0.5180520000000 1.0
C      1  0.4722710000000  0.5954310000000  0.4613860000000 1.0
C      1  0.4801030000000  0.5197210000000  0.5045280000000 1.0
C      1  0.5494190000000  0.5515880000000  0.5225790000000 1.0
C      1  0.5088570000000  0.5326140000000  0.6015490000000 1.0
C      1  0.6100210000000  0.5095280000000  0.5141740000000 1.0
C      1  0.4888700000000  0.5654110000000  0.5004370000000 1.0
C      1  0.5127600000000  0.4579470000000  0.4925310000000 1.0
C      1  0.3912280000000  0.4913560000000  0.4923260000000 1.0
C      1  0.4605490000000  0.4580440000000  0.4449390000000 1.0
C      1  0.4494390000000  0.4065730000000  0.4757850000000 1.0
C      1  0.5062470000000  0.5211110000000  0.4365950000000 1.0
C      1  0.4148270000000  0.4783910000000  0.4417230000000 1.0
C      1  0.4578550000000  0.4513820000000  0.5360140000000 1.0
C      1  0.4160690000000  0.5682310000000  0.5067070000000 1.0
C      1  0.4850890000000  0.4261670000000  0.4142530000000 1.0
C      1  0.5377300000000  0.5428190000000  0.4487300000000 1.0
C      1  0.5292240000000  0.5186000000000  0.5353460000000 1.0
C      1  0.5047320000000  0.5787830000000  0.5654830000000 1.0
C      1  0.4430090000000  0.5005130000000  0.5387480000000 1.0
C      1  0.5666730000000  0.5015880000000  0.5700650000000 1.0
C      1  0.4305360000000  0.4782460000000  0.4170920000000 1.0
C      1  0.4493580000000  0.4153810000000  0.4487650000000 1.0
C      1  0.5054970000000  0.5542660000000  0.5533180000000 1.0
C      1  0.3930490000000  0.5202970000000  0.4935920000000 1.0
C      1  0.4975920000000  0.5961320000000  0.4735070000000 1.0
C      1  0.5955840000000  0.4970230000000  0.4609060000000 1.0
C      1  0.5747780000000  0.5697000000000  0.5192690000000 1.0
C      1  0.4803760000000  0.5107950000000  0.5525750000000 1.0
C      1  0.4822420000000  0.4947270000000  0.5267330000000 1.0
C      1  0.5719530000000  0.5834650000000  0.4929500000000 1.0
C      1  0.4872950000000  0.4586670000000  0.4369640000000 1.0
C      1  0.5433680000000  0.5273190000000  0.4905700000000 1.0
C      1  0.4775660000000  0.5776560000000  0.5789140000000 1.0
C      1  0.5226890000000  0.4948210000000  0.5508640000000 1.0
C      1  0.5508510000000  0.4830640000000  0.5526070000000 1.0
C      1  0.4481750000000  0.3902310000000  0.5513450000000 1.0
C      1  0.5448120000000  0.4381340000000  0.5302920000000 1.0
C      1  0.4403020000000  0.5351850000000  0.4699260000000 1.0
C      1  0.5291990000000  0.5455770000000  0.5427290000000 1.0
C      1  0.5295260000000  0.5984590000000  0.5112850000000 1.0
C      1  0.4455560000000  0.5021130000000  0.4079730000000 1.0
C      1  0.4673550000000  0.5050150000000  0.6070800000000 1.0
C      1  0.4888830000000  0.5004250000000  0.4295210000000 1.0
C      1  0.5499810000000  0.4826250000000  0.5195660000000 1.0
C      1  0.5407880000000  0.5988380000000  0.5375190000000 1.0
C      1  0.5227710000000  0.5089460000000  0.4793000000000 1.0
C      1  0.4978600000000  0.5227980000000  0.4846050000000 1.0
C      1  0.4567090000000  0.4791450000000  0.5231050000000 1.0
C      1  0.5512200000000  0.5228600000000  0.5177340000000 1.0
C      1  0.5317960000000  0.4091330000000  0.4924110000000 1.0
C      1  0.6012900000000  0.4860680000000  0.5081890000000 1.0
C      1  0.5228250000000  0.5606240000000  0.4640210000000 1.0
C      1  0.4792590000000  0.5318090000000  0.6032000000000 1.0
C      1  0.5480920000000  0.4392250000000  0.4102720000000 1.0
C      1  0.4598290000000  0.4672510000000  0.4908540000000 1.0
C      1  0.6052170000000  0.5230310000000  0.4723020000000 1.0
C      1  0.4922450000000  0.4810710000000  0.4516760000000 1.0
C      1  0.3945650000000  0.4749840000000  0.5169950000000 1.0
C      1  0.4746860000000  0.4536730000000  0.5983510000000 1.0
C      1  0.5998420000000  0.4804430000000  0.5406270000000 1.0
C      1  0.5773220000000  0.4333040000000  0.4728870000000 1.0
C      1  0.4267370000000  0.4594380000000  0.4837760000000 1.0
C      1  0.4056830000000  0.5642310000000  0.4798030000000 1.0
C      1  0.4899220000000  0.4095250000000  0.5299140000000 1.0
C      1  0.5466700000000  0.5947990000000  0.4895390000000 1.0
C      1  0.4413490000000  0.4519280000000  0.4241750000000 1.0
C      1  0.4451400000000  0.5804270000000  0.5360860000000 1.0
C      1  0.5080750000000  0.4847690000000  0.5925180000000 1.0
C      1  0.4174160000000  0.5431990000000  0.5266630000000 1.0
C      1  0.5340050000000  0.4583830000000  0.5128310000000 1.0
C      1  0.4136520000000  0.5422430000000  0.4256310000000 1.0
C      1  0.4358730000000  0.5194120000000  0.5190680000000 1.0
C      1  0.4784480000000  0.4083050000000  0.4793170000000 1.0
C      1  0.4561230000000  0.5360430000000  0.4446290000000 1.0
C      1  0.4834700000000  0.5390190000000  0.5455360000000 1.0
C      1  0.4116860000000  0.4533340000000  0.4551870000000 1.0
C      1  0.5282080000000  0.4101360000000  0.4278730000000 1.0
C      1  0.4322550000000  0.4795400000000  0.5809950000000 1.0
C      1  0.5007540000000  0.4724470000000  0.5377040000000 1.0
C      1  0.5325080000000  0.5887950000000  0.5634840000000 1.0
C      1  0.5862800000000  0.5434220000000  0.4648390000000 1.0
C      1  0.4661450000000  0.4779210000000  0.4645110000000 1.0
C      1  0.4829170000000  0.5838780000000  0.4374840000000 1.0
C      1  0.6039040000000  0.4753030000000  0.4806710000000 1.0
C      1  0.4582100000000  0.5174480000000  0.4847150000000 1.0
C      1  0.5704550000000  0.5476860000000  0.5676280000000 1.0
C      1  0.5018380000000  0.4085460000000  0.4632610000000 1.0
C      1  0.4649550000000  0.5837530000000  0.5549040000000 1.0
C      1  0.5420120000000  0.4428110000000  0.5796660000000 1.0
C      1  0.4969220000000  0.5180740000000  0.3939070000000 1.0
C      1  0.4311750000000  0.5585910000000  0.5494460000000 1.0
C      1  0.5008980000000  0.4079500000000  0.4328040000000 1.0
C      1  0.5313790000000  0.5137660000000  0.4511920000000 1.0
C      1  0.4393260000000  0.5268780000000  0.4220390000000 1.0
C      1  0.5804670000000  0.5726900000000  0.4677600000000 1.0
C      1  0.5113160000000  0.3984560000000  0.5087090000000 1.0
C      1  0.4108620000000  0.5360150000000  0.4752770000000 1.0
C      1  0.5647620000000  0.5254140000000  0.4729000000000 1.0
C      1  0.3979410000000  0.4960340000000  0.5365360000000 1.0
C      1  0.4385950000000  0.5852060000000  0.5041910000000 1.0
C      1  0.5902630000000  0.5343850000000  0.5493150000000 1.0
C      1  0.5025510000000  0.5017200000000  0.5693360000000 1.0
C      1  0.4550790000000  0.4624650000000  0.5791350000000 1.0
C      1  0.5499410000000  0.5092020000000  0.4015200000000 1.0
C      1  0.4981120000000  0.5500990000000  0.4753190000000 1.0
C      1  0.4750300000000  0.4577290000000  0.5584460000000 1.0
C      1  0.5201820000000  0.4724900000000  0.4682240000000 1.0
C      1  0.5978240000000  0.5466280000000  0.5245390000000 1.0
C      1  0.4885200000000  0.4388210000000  0.5762300000000 1.0
C      1  0.5884840000000  0.4401250000000  0.5164180000000 1.0
C      1  0.4982190000000  0.4160030000000  0.5609010000000 1.0
C      1  0.4408020000000  0.4083360000000  0.5052800000000 1.0
C      1  0.4972550000000  0.3891970000000  0.4844690000000 1.0
C      1  0.4847140000000  0.5363000000000  0.4477690000000 1.0
C      1  0.4454530000000  0.5901250000000  0.4768140000000 1.0
C      1  0.5648410000000  0.4223160000000  0.5160170000000 1.0
C      1  0.4803600000000  0.5454380000000  0.5184030000000 1.0
C      1  0.4783150000000  0.4344540000000  0.5191810000000 1.0
C      1  0.5571490000000  0.5267780000000  0.5823810000000 1.0
C      1  0.5802370000000  0.5031410000000  0.4296360000000 1.0
C      1  0.4395600000000  0.5457170000000  0.5744280000000 1.0
C      1  0.4942210000000  0.5451800000000  0.4033520000000 1.0
C      1  0.4216250000000  0.5819320000000  0.4620270000000 1.0
C      1  0.5666040000000  0.5879310000000  0.5406680000000 1.0
C      1  0.5696800000000  0.4887800000000  0.5000740000000 1.0
C      1  0.3940670000000  0.5208640000000  0.5228610000000 1.0
C      1  0.4551720000000  0.4252150000000  0.4225810000000 1.0
C      1  0.5581140000000  0.4518240000000  0.5537000000000 1.0
C      1  0.5307260000000  0.5309430000000  0.5954700000000 1.0
C      1  0.5021570000000  0.5918900000000  0.5014230000000 1.0
C      1  0.4844250000000  0.4506350000000  0.4964130000000 1.0
C      1  0.5596830000000  0.4153440000000  0.4873470000000 1.0
C      1  0.4965680000000  0.4529140000000  0.4100280000000 1.0
C      1  0.4892100000000  0.5670270000000  0.4176020000000 1.0
C      1  0.5472410000000  0.4691330000000  0.4585510000000 1.0
C      1  0.4645730000000  0.5525550000000  0.5887210000000 1.0
C      1  0.4261330000000  0.5205220000000  0.5800900000000 1.0
C      1  0.5677680000000  0.4874080000000  0.4084070000000 1.0
C      1  0.4342700000000  0.4142780000000  0.5643850000000 1.0
C      1  0.4745810000000  0.5012070000000  0.4039280000000 1.0
C      1  0.5591430000000  0.5749350000000  0.5654660000000 1.0
C      1  0.5912500000000  0.5044590000000  0.5556900000000 1.0
C      1  0.5215360000000  0.5004930000000  0.3970250000000 1.0
C      1  0.4364740000000  0.5034750000000  0.4951740000000 1.0
C      1  0.5674010000000  0.5274300000000  0.4196730000000 1.0
C      1  0.4595660000000  0.3974050000000  0.5251590000000 1.0
C      1  0.4830110000000  0.4804070000000  0.6075400000000 1.0
C      1  0.4172880000000  0.4880040000000  0.4775050000000 1.0
C      1  0.4397450000000  0.5020170000000  0.5973690000000 1.0
C      1  0.5588390000000  0.4427930000000  0.4557530000000 1.0
END
