TITL C-884140-4336-266 2.63007060605506 125000 -3817.09107031438 0 0 27 (C1) n - 1
REM
REM in /home/nfs/bkarasulu/CARBON/AIRSS/Generating-Clusters/ReaxFF-fromJPCA2015/Units_Real/with-SteepDescent/Only-C1/SD-CG/Try1-3A/FIRE-CG
REM
REM
REM
REM
REM
REM ./C.cell (11c1c37f851c82e70ff6c80c92926a4b)
REM
REM compiler GCC version 9.2.1 20190827 (Red Hat 9.2.1-1)
REM options -cpp -mtune=generic -march=x86-64 -g -O0 -fpre-include=/usr/include/finclude/math-vector-fortran.h
REM seed 1587827050 702762558 -1618619183 -1801237732 -1597788579 -226349167 -235618752 -1676162669 -1952615402 -1954032592 -865556890 397967136 129936284 1222298071 1987052721 334650085 1123083003 1664181245 2045157364 -1409135237 1744434062 1841215579 -1074444660 -1507501285 1463694397 -331385383 -402071780 -1606108980 1049723596 674965422 -1416676358 356987153 -1053911696
REM
CELL 1.54180   50.00000   50.00000   50.00000   90.00000   90.00000   90.00000
LATT -1
SFAC C  
C      1  0.4929300000000  0.5050420000000  0.5454760000000 1.0
C      1  0.5119690000000  0.4474120000000  0.4823470000000 1.0
C      1  0.5693690000000  0.5053740000000  0.4899260000000 1.0
C      1  0.5502810000000  0.5073190000000  0.4648760000000 1.0
C      1  0.4863020000000  0.5315150000000  0.4692130000000 1.0
C      1  0.4577810000000  0.5469040000000  0.5070240000000 1.0
C      1  0.4576010000000  0.5047240000000  0.4829290000000 1.0
C      1  0.5490560000000  0.4587280000000  0.5166270000000 1.0
C      1  0.5630340000000  0.4825340000000  0.5065870000000 1.0
C      1  0.4670750000000  0.5157720000000  0.5425090000000 1.0
C      1  0.4866140000000  0.4595910000000  0.4772620000000 1.0
C      1  0.4474630000000  0.5264690000000  0.5254110000000 1.0
C      1  0.4827420000000  0.4762900000000  0.5397990000000 1.0
C      1  0.4601010000000  0.5337720000000  0.4796970000000 1.0
C      1  0.5391150000000  0.4826820000000  0.4576880000000 1.0
C      1  0.5311400000000  0.4555810000000  0.4584270000000 1.0
C      1  0.5114520000000  0.5408610000000  0.4786120000000 1.0
C      1  0.4839520000000  0.5586390000000  0.5156100000000 1.0
C      1  0.5255210000000  0.5201630000000  0.4658530000000 1.0
C      1  0.5087480000000  0.5430560000000  0.5103310000000 1.0
C      1  0.5000200000000  0.5023360000000  0.5028620000000 1.0
C      1  0.4548740000000  0.4780360000000  0.5265200000000 1.0
C      1  0.5110190000000  0.5165110000000  0.5239140000000 1.0
C      1  0.5210830000000  0.4487200000000  0.5114250000000 1.0
C      1  0.5021220000000  0.4615360000000  0.5263010000000 1.0
C      1  0.4838700000000  0.4903700000000  0.4827720000000 1.0
C      1  0.4447660000000  0.5000620000000  0.5100030000000 1.0
END
