TITL C-883734-4173-366 85.6250870779787 125000 -28253.1425602784 0 0 190 (C1) n - 1
REM
REM in /home/nfs/bkarasulu/CARBON/AIRSS/Generating-Clusters/ReaxFF-fromJPCA2015/Units_Real/with-SteepDescent/Only-C1/SD-CG/Try1-3A/FIRE-CG
REM
REM
REM
REM
REM
REM ./C.cell (11c1c37f851c82e70ff6c80c92926a4b)
REM
REM compiler GCC version 9.2.1 20190827 (Red Hat 9.2.1-1)
REM options -cpp -mtune=generic -march=x86-64 -g -O0 -fpre-include=/usr/include/finclude/math-vector-fortran.h
REM seed -1036155606 -375789088 22800357 1287154621 -1062481714 479107543 -640193349 -645483470 -1813436838 -2111115970 846171372 -1853575568 915332473 139420567 -1786049910 -1078195038 1750899074 484213437 1404711492 47304890 -307550306 526573071 -548009927 -116199760 -407058080 -1607334503 -546139989 996013752 1784418521 1937641369 781076311 1566734114 2129177143
REM
CELL 1.54180   50.00000   50.00000   50.00000   90.00000   90.00000   90.00000
LATT -1
SFAC C  
C      1  0.5407560000000  0.5844980000000  0.5815700000000 1.0
C      1  0.4504230000000  0.5426640000000  0.4550380000000 1.0
C      1  0.5068730000000  0.5937500000000  0.4487860000000 1.0
C      1  0.5458150000000  0.4520340000000  0.4087710000000 1.0
C      1  0.4804970000000  0.5983810000000  0.5123020000000 1.0
C      1  0.5363420000000  0.4796480000000  0.6027700000000 1.0
C      1  0.3980970000000  0.5150370000000  0.4488480000000 1.0
C      1  0.5168160000000  0.5298810000000  0.5190580000000 1.0
C      1  0.5843910000000  0.5630050000000  0.5321400000000 1.0
C      1  0.4124970000000  0.5764860000000  0.5245340000000 1.0
C      1  0.5349160000000  0.5959630000000  0.4923080000000 1.0
C      1  0.4881390000000  0.4227850000000  0.4458650000000 1.0
C      1  0.4710470000000  0.4003310000000  0.4602960000000 1.0
C      1  0.5147530000000  0.4154060000000  0.4313150000000 1.0
C      1  0.4674570000000  0.4443000000000  0.4973160000000 1.0
C      1  0.5575630000000  0.4777860000000  0.5256390000000 1.0
C      1  0.5611730000000  0.5809920000000  0.5632930000000 1.0
C      1  0.4974800000000  0.5154820000000  0.5583420000000 1.0
C      1  0.4437600000000  0.5930500000000  0.4896270000000 1.0
C      1  0.5296560000000  0.4731100000000  0.5218120000000 1.0
C      1  0.4985700000000  0.5754010000000  0.5225340000000 1.0
C      1  0.4339750000000  0.4445800000000  0.4403130000000 1.0
C      1  0.4348830000000  0.4280560000000  0.4651830000000 1.0
C      1  0.5221000000000  0.4489300000000  0.5072010000000 1.0
C      1  0.4307150000000  0.5018100000000  0.4819960000000 1.0
C      1  0.4569230000000  0.4422760000000  0.5359560000000 1.0
C      1  0.5160400000000  0.3878280000000  0.4417150000000 1.0
C      1  0.5383950000000  0.5468110000000  0.5085430000000 1.0
C      1  0.5832980000000  0.4482760000000  0.4519190000000 1.0
C      1  0.4939520000000  0.5866860000000  0.5543690000000 1.0
C      1  0.4544790000000  0.5379210000000  0.4962000000000 1.0
C      1  0.4255510000000  0.5288930000000  0.5295010000000 1.0
C      1  0.4605920000000  0.4917790000000  0.4098310000000 1.0
C      1  0.4774480000000  0.5285650000000  0.5390940000000 1.0
C      1  0.4766260000000  0.5558920000000  0.4575370000000 1.0
C      1  0.5216010000000  0.5428150000000  0.4638300000000 1.0
C      1  0.4916700000000  0.5157250000000  0.3972940000000 1.0
C      1  0.4738830000000  0.4647390000000  0.4101770000000 1.0
C      1  0.4408560000000  0.5128430000000  0.4117720000000 1.0
C      1  0.5101830000000  0.4000340000000  0.4828260000000 1.0
C      1  0.5473650000000  0.4289060000000  0.5644200000000 1.0
C      1  0.4516400000000  0.5863860000000  0.4370070000000 1.0
C      1  0.5209990000000  0.4973350000000  0.5058770000000 1.0
C      1  0.6024860000000  0.5054770000000  0.5998110000000 1.0
C      1  0.5243590000000  0.5995010000000  0.5615950000000 1.0
C      1  0.5169210000000  0.5511520000000  0.5734200000000 1.0
C      1  0.4501800000000  0.5419570000000  0.4082990000000 1.0
C      1  0.4797240000000  0.5809310000000  0.4441250000000 1.0
C      1  0.4355140000000  0.5902700000000  0.4611880000000 1.0
C      1  0.4850850000000  0.4843390000000  0.4559730000000 1.0
C      1  0.4087280000000  0.5599580000000  0.4310700000000 1.0
C      1  0.4302580000000  0.5612220000000  0.4648230000000 1.0
C      1  0.5307480000000  0.5082820000000  0.6065340000000 1.0
C      1  0.5855030000000  0.4642530000000  0.5547710000000 1.0
C      1  0.4884540000000  0.5217800000000  0.4256780000000 1.0
C      1  0.4744090000000  0.4322350000000  0.5770420000000 1.0
C      1  0.6084750000000  0.4603640000000  0.4624010000000 1.0
C      1  0.4367140000000  0.4622760000000  0.5759620000000 1.0
C      1  0.5168270000000  0.4587380000000  0.6055640000000 1.0
C      1  0.5547840000000  0.5209720000000  0.3972710000000 1.0
C      1  0.5198270000000  0.4878270000000  0.3781970000000 1.0
C      1  0.4291710000000  0.5254410000000  0.4999510000000 1.0
C      1  0.4536370000000  0.5385620000000  0.5804090000000 1.0
C      1  0.5702270000000  0.5666850000000  0.4837010000000 1.0
C      1  0.3965930000000  0.5146810000000  0.5415940000000 1.0
C      1  0.5030180000000  0.4658570000000  0.4169490000000 1.0
C      1  0.4643980000000  0.4446150000000  0.4306570000000 1.0
C      1  0.5513320000000  0.5462230000000  0.4123550000000 1.0
C      1  0.5283550000000  0.5649640000000  0.4138370000000 1.0
C      1  0.6033060000000  0.4904500000000  0.5042060000000 1.0
C      1  0.5356610000000  0.3903430000000  0.5311960000000 1.0
C      1  0.5088950000000  0.5342940000000  0.3822640000000 1.0
C      1  0.5929260000000  0.5003960000000  0.4284500000000 1.0
C      1  0.5618860000000  0.4234550000000  0.4863130000000 1.0
C      1  0.4558720000000  0.4920790000000  0.5260120000000 1.0
C      1  0.4210640000000  0.4705720000000  0.4436320000000 1.0
C      1  0.5601540000000  0.5293650000000  0.5179020000000 1.0
C      1  0.5134940000000  0.5269550000000  0.4402440000000 1.0
C      1  0.6025130000000  0.5068330000000  0.5280720000000 1.0
C      1  0.4911100000000  0.4535010000000  0.5981400000000 1.0
C      1  0.5256990000000  0.5732500000000  0.5083190000000 1.0
C      1  0.4948480000000  0.3843930000000  0.4633900000000 1.0
C      1  0.4172970000000  0.4485550000000  0.5151330000000 1.0
C      1  0.4548330000000  0.4471480000000  0.4737030000000 1.0
C      1  0.5409920000000  0.4292330000000  0.4271500000000 1.0
C      1  0.5602430000000  0.5432230000000  0.4396980000000 1.0
C      1  0.4828730000000  0.4837800000000  0.5262980000000 1.0
C      1  0.5596460000000  0.4566420000000  0.5664450000000 1.0
C      1  0.4962760000000  0.4441320000000  0.4940120000000 1.0
C      1  0.4528980000000  0.4849070000000  0.5843780000000 1.0
C      1  0.5674440000000  0.5317030000000  0.5738100000000 1.0
C      1  0.5919180000000  0.5102860000000  0.5770230000000 1.0
C      1  0.5350590000000  0.5574220000000  0.5949400000000 1.0
C      1  0.3952420000000  0.5438180000000  0.4540000000000 1.0
C      1  0.5625240000000  0.4736020000000  0.4183900000000 1.0
C      1  0.4703580000000  0.5031560000000  0.4380200000000 1.0
C      1  0.4963390000000  0.4679640000000  0.5460850000000 1.0
C      1  0.5141480000000  0.4784190000000  0.4427990000000 1.0
C      1  0.5741250000000  0.4848810000000  0.5026280000000 1.0
C      1  0.3881930000000  0.4895910000000  0.5235410000000 1.0
C      1  0.5602960000000  0.5059520000000  0.4902090000000 1.0
C      1  0.4143560000000  0.4738660000000  0.5601390000000 1.0
C      1  0.4223340000000  0.4206220000000  0.5213170000000 1.0
C      1  0.3908460000000  0.5598280000000  0.5095630000000 1.0
C      1  0.4632500000000  0.5472490000000  0.6093420000000 1.0
C      1  0.4224990000000  0.5031730000000  0.4343980000000 1.0
C      1  0.4452330000000  0.4061210000000  0.5100010000000 1.0
C      1  0.4299510000000  0.5978370000000  0.5150940000000 1.0
C      1  0.4466400000000  0.4557720000000  0.5124670000000 1.0
C      1  0.5461950000000  0.5609240000000  0.4595730000000 1.0
C      1  0.3850560000000  0.5397190000000  0.5303200000000 1.0
C      1  0.4757960000000  0.5532660000000  0.4022380000000 1.0
C      1  0.5299450000000  0.5033480000000  0.4379200000000 1.0
C      1  0.4557630000000  0.6010160000000  0.5288320000000 1.0
C      1  0.6132520000000  0.4656120000000  0.4916580000000 1.0
C      1  0.5318960000000  0.5150490000000  0.3811710000000 1.0
C      1  0.5914970000000  0.5485360000000  0.4881280000000 1.0
C      1  0.4658880000000  0.3973660000000  0.5313780000000 1.0
C      1  0.4266150000000  0.5582040000000  0.5417010000000 1.0
C      1  0.4920220000000  0.4898620000000  0.3848690000000 1.0
C      1  0.4764750000000  0.5721550000000  0.6034880000000 1.0
C      1  0.5397770000000  0.6052890000000  0.5390580000000 1.0
C      1  0.5571800000000  0.5140190000000  0.4440780000000 1.0
C      1  0.5221570000000  0.4627780000000  0.3947280000000 1.0
C      1  0.5968580000000  0.4431360000000  0.5379410000000 1.0
C      1  0.4511680000000  0.4870730000000  0.4977890000000 1.0
C      1  0.4931350000000  0.5679470000000  0.5770500000000 1.0
C      1  0.5425920000000  0.3912090000000  0.4507390000000 1.0
C      1  0.4948570000000  0.4927430000000  0.5028240000000 1.0
C      1  0.5023360000000  0.4261510000000  0.4720760000000 1.0
C      1  0.3907770000000  0.5533190000000  0.4811120000000 1.0
C      1  0.4357180000000  0.5657840000000  0.4214580000000 1.0
C      1  0.5724740000000  0.4987050000000  0.4076460000000 1.0
C      1  0.5042400000000  0.4851380000000  0.5681170000000 1.0
C      1  0.4783700000000  0.5249640000000  0.4871000000000 1.0
C      1  0.4513280000000  0.5169950000000  0.5382060000000 1.0
C      1  0.4104440000000  0.4792500000000  0.4688460000000 1.0
C      1  0.5516940000000  0.4930760000000  0.5496780000000 1.0
C      1  0.6057280000000  0.4821820000000  0.4448230000000 1.0
C      1  0.5896500000000  0.5361460000000  0.5186070000000 1.0
C      1  0.5548190000000  0.4113500000000  0.5419140000000 1.0
C      1  0.4488620000000  0.4061540000000  0.4792180000000 1.0
C      1  0.4148060000000  0.5019180000000  0.5653530000000 1.0
C      1  0.4911460000000  0.5452880000000  0.5198170000000 1.0
C      1  0.4898040000000  0.6156090000000  0.4902530000000 1.0
C      1  0.5811700000000  0.4184310000000  0.5320120000000 1.0
C      1  0.5860050000000  0.4222540000000  0.5031600000000 1.0
C      1  0.5390400000000  0.4776540000000  0.5719460000000 1.0
C      1  0.5728570000000  0.4993850000000  0.4642840000000 1.0
C      1  0.5505980000000  0.5214530000000  0.5483650000000 1.0
C      1  0.5774880000000  0.5590130000000  0.5600060000000 1.0
C      1  0.5295900000000  0.5788780000000  0.4389930000000 1.0
C      1  0.4844250000000  0.4817780000000  0.5919200000000 1.0
C      1  0.4682730000000  0.4610440000000  0.4543930000000 1.0
C      1  0.5038600000000  0.5590260000000  0.3971190000000 1.0
C      1  0.5224020000000  0.4171910000000  0.5686520000000 1.0
C      1  0.3858570000000  0.4959860000000  0.4684170000000 1.0
C      1  0.5478050000000  0.5314910000000  0.5965140000000 1.0
C      1  0.5648980000000  0.4720370000000  0.4504110000000 1.0
C      1  0.4393750000000  0.5089710000000  0.5780540000000 1.0
C      1  0.4632380000000  0.5868370000000  0.5538380000000 1.0
C      1  0.5644280000000  0.4042950000000  0.4627280000000 1.0
C      1  0.5966690000000  0.4924610000000  0.5519540000000 1.0
C      1  0.5197040000000  0.3781080000000  0.5526000000000 1.0
C      1  0.4780520000000  0.4970990000000  0.4830760000000 1.0
C      1  0.5414180000000  0.4445450000000  0.4855680000000 1.0
C      1  0.4821250000000  0.5290750000000  0.5791390000000 1.0
C      1  0.4964640000000  0.5462550000000  0.4782830000000 1.0
C      1  0.4476210000000  0.5630720000000  0.5602680000000 1.0
C      1  0.4370560000000  0.4229590000000  0.5469520000000 1.0
C      1  0.5229130000000  0.5308170000000  0.5526240000000 1.0
C      1  0.5134910000000  0.3904100000000  0.5105490000000 1.0
C      1  0.5376740000000  0.4681180000000  0.4665050000000 1.0
C      1  0.4880020000000  0.5288070000000  0.6072190000000 1.0
C      1  0.4731860000000  0.4062700000000  0.5604760000000 1.0
C      1  0.5667710000000  0.4254460000000  0.4421090000000 1.0
C      1  0.4799700000000  0.4459100000000  0.5507960000000 1.0
C      1  0.5138870000000  0.6071210000000  0.4741910000000 1.0
C      1  0.4449620000000  0.5139340000000  0.4543140000000 1.0
C      1  0.6058470000000  0.4441030000000  0.5092420000000 1.0
C      1  0.3839980000000  0.4944160000000  0.4965800000000 1.0
C      1  0.5022140000000  0.5038750000000  0.6089210000000 1.0
C      1  0.5362460000000  0.4939780000000  0.4819340000000 1.0
C      1  0.5538960000000  0.6040200000000  0.5141090000000 1.0
C      1  0.4442020000000  0.4334400000000  0.5737010000000 1.0
C      1  0.4033060000000  0.4662900000000  0.5332920000000 1.0
C      1  0.5715610000000  0.5794230000000  0.5104740000000 1.0
C      1  0.4865530000000  0.3801180000000  0.5193920000000 1.0
C      1  0.5008140000000  0.3990860000000  0.5673380000000 1.0
C      1  0.4406050000000  0.5634270000000  0.4912500000000 1.0
END
