TITL C-883733-4178-136 3.45262665176711 125000 -16155.5270632004 0 0 109 (C1) n - 1
REM
REM in /home/nfs/bkarasulu/CARBON/AIRSS/Generating-Clusters/ReaxFF-fromJPCA2015/Units_Real/with-SteepDescent/Only-C1/SD-CG/Try1-3A/FIRE-CG
REM
REM
REM
REM
REM
REM ./C.cell (11c1c37f851c82e70ff6c80c92926a4b)
REM
REM compiler GCC version 9.2.1 20190827 (Red Hat 9.2.1-1)
REM options -cpp -mtune=generic -march=x86-64 -g -O0 -fpre-include=/usr/include/finclude/math-vector-fortran.h
REM seed 1888365545 -997755985 1071168445 1480079749 907226759 660154731 -2095423096 -406565427 1044776077 -1318410530 387720790 -832089479 60555846 -650135097 -1909510373 485400781 2025103644 -885465499 185432683 -266859190 1381278039 -1823592500 769489273 1705919221 1634042024 76978724 -1844654834 -1402423177 69282181 630052458 -1883652775 -407319788 582252313
REM
CELL 1.54180   50.00000   50.00000   50.00000   90.00000   90.00000   90.00000
LATT -1
SFAC C  
C      1  0.4942430000000  0.4031160000000  0.5141140000000 1.0
C      1  0.5619310000000  0.4667490000000  0.4764220000000 1.0
C      1  0.5437990000000  0.5405730000000  0.5688000000000 1.0
C      1  0.4733930000000  0.4976910000000  0.4881880000000 1.0
C      1  0.4696080000000  0.4741130000000  0.4243150000000 1.0
C      1  0.4352620000000  0.4230380000000  0.5088740000000 1.0
C      1  0.4797620000000  0.5839430000000  0.4819280000000 1.0
C      1  0.4409640000000  0.4320530000000  0.5356680000000 1.0
C      1  0.5024650000000  0.4112380000000  0.4869110000000 1.0
C      1  0.5840840000000  0.4644640000000  0.5006950000000 1.0
C      1  0.4520510000000  0.5339330000000  0.4442380000000 1.0
C      1  0.5060410000000  0.5868410000000  0.4858690000000 1.0
C      1  0.5133520000000  0.5403860000000  0.5631820000000 1.0
C      1  0.4705050000000  0.5417020000000  0.5666120000000 1.0
C      1  0.5426020000000  0.4283310000000  0.4729560000000 1.0
C      1  0.5121270000000  0.5424930000000  0.4170880000000 1.0
C      1  0.5540530000000  0.4590690000000  0.4470950000000 1.0
C      1  0.4889090000000  0.4146670000000  0.5411790000000 1.0
C      1  0.4823780000000  0.5611250000000  0.5462890000000 1.0
C      1  0.4660390000000  0.5524240000000  0.4462810000000 1.0
C      1  0.4364860000000  0.4554470000000  0.4440920000000 1.0
C      1  0.4255790000000  0.4564410000000  0.5422190000000 1.0
C      1  0.4443490000000  0.4419160000000  0.4729630000000 1.0
C      1  0.4905160000000  0.4963470000000  0.5490440000000 1.0
C      1  0.4596360000000  0.5727760000000  0.5017590000000 1.0
C      1  0.4793340000000  0.4614610000000  0.5140010000000 1.0
C      1  0.5962570000000  0.5088930000000  0.4737000000000 1.0
C      1  0.4032200000000  0.4634710000000  0.5246450000000 1.0
C      1  0.4665250000000  0.4320930000000  0.5499170000000 1.0
C      1  0.4212250000000  0.5386840000000  0.4891070000000 1.0
C      1  0.5163830000000  0.4861130000000  0.4196020000000 1.0
C      1  0.4448040000000  0.4834080000000  0.4342620000000 1.0
C      1  0.5068360000000  0.5624170000000  0.5283750000000 1.0
C      1  0.4607980000000  0.5272750000000  0.5114390000000 1.0
C      1  0.5641190000000  0.5466090000000  0.5490060000000 1.0
C      1  0.5638230000000  0.4949410000000  0.5402430000000 1.0
C      1  0.4433510000000  0.4443360000000  0.4201000000000 1.0
C      1  0.4492450000000  0.4843560000000  0.4849900000000 1.0
C      1  0.4651390000000  0.4982790000000  0.5887240000000 1.0
C      1  0.5140600000000  0.4671750000000  0.4652940000000 1.0
C      1  0.4357600000000  0.5115880000000  0.4460210000000 1.0
C      1  0.5503290000000  0.4463770000000  0.5278080000000 1.0
C      1  0.5322570000000  0.4140410000000  0.4886620000000 1.0
C      1  0.5115560000000  0.5151840000000  0.4512410000000 1.0
C      1  0.4493590000000  0.5465830000000  0.4931920000000 1.0
C      1  0.4698870000000  0.4841490000000  0.5299080000000 1.0
C      1  0.5304130000000  0.5792100000000  0.5251110000000 1.0
C      1  0.4427990000000  0.5012980000000  0.5704520000000 1.0
C      1  0.4817510000000  0.5232980000000  0.5863950000000 1.0
C      1  0.5999270000000  0.5341110000000  0.4584980000000 1.0
C      1  0.5407550000000  0.5500170000000  0.4160370000000 1.0
C      1  0.5056370000000  0.5483350000000  0.5032920000000 1.0
C      1  0.4905010000000  0.5259410000000  0.5157160000000 1.0
C      1  0.5706910000000  0.4662750000000  0.5259190000000 1.0
C      1  0.4835450000000  0.5732600000000  0.4530660000000 1.0
C      1  0.3972640000000  0.4919850000000  0.5228870000000 1.0
C      1  0.4965190000000  0.4654690000000  0.4247650000000 1.0
C      1  0.5594400000000  0.5312570000000  0.4284120000000 1.0
C      1  0.4320740000000  0.4212050000000  0.4858630000000 1.0
C      1  0.4208630000000  0.4889620000000  0.4797360000000 1.0
C      1  0.5059850000000  0.5143590000000  0.4226380000000 1.0
C      1  0.4994650000000  0.4898740000000  0.4593560000000 1.0
C      1  0.4973530000000  0.5012300000000  0.5020760000000 1.0
C      1  0.4777280000000  0.4711800000000  0.5863200000000 1.0
C      1  0.5613190000000  0.5177690000000  0.4983950000000 1.0
C      1  0.5583520000000  0.5689680000000  0.4562290000000 1.0
C      1  0.5008320000000  0.5215000000000  0.5446240000000 1.0
C      1  0.5843490000000  0.4837170000000  0.4633890000000 1.0
C      1  0.4723000000000  0.4791190000000  0.4665540000000 1.0
C      1  0.5566740000000  0.5761940000000  0.4839420000000 1.0
C      1  0.5805100000000  0.5363290000000  0.5103420000000 1.0
C      1  0.4906470000000  0.4305880000000  0.4700150000000 1.0
C      1  0.6022420000000  0.4815990000000  0.4859940000000 1.0
C      1  0.5366090000000  0.4360620000000  0.4478060000000 1.0
C      1  0.5209240000000  0.5370450000000  0.4827740000000 1.0
C      1  0.4721430000000  0.4493660000000  0.4831420000000 1.0
C      1  0.5065840000000  0.4438250000000  0.4469210000000 1.0
C      1  0.4487610000000  0.5041850000000  0.5218480000000 1.0
C      1  0.5316710000000  0.5881640000000  0.4964590000000 1.0
C      1  0.5452950000000  0.5042510000000  0.5181970000000 1.0
C      1  0.5074210000000  0.5643520000000  0.4375670000000 1.0
C      1  0.5391020000000  0.5151870000000  0.5828410000000 1.0
C      1  0.5451790000000  0.5104020000000  0.4443440000000 1.0
C      1  0.4196440000000  0.5102940000000  0.5279340000000 1.0
C      1  0.4361210000000  0.5476800000000  0.5382370000000 1.0
C      1  0.5163300000000  0.4109840000000  0.5306260000000 1.0
C      1  0.5419950000000  0.4827660000000  0.4333190000000 1.0
C      1  0.4613590000000  0.4541040000000  0.5692180000000 1.0
C      1  0.5014860000000  0.4816720000000  0.5731990000000 1.0
C      1  0.5769500000000  0.5479600000000  0.4451110000000 1.0
C      1  0.5257700000000  0.4550020000000  0.5422320000000 1.0
C      1  0.5105500000000  0.5255980000000  0.5888850000000 1.0
C      1  0.5779180000000  0.5240260000000  0.5364730000000 1.0
C      1  0.5283840000000  0.4712310000000  0.5671990000000 1.0
C      1  0.5362720000000  0.5711760000000  0.4365430000000 1.0
C      1  0.5236110000000  0.4901400000000  0.5038800000000 1.0
C      1  0.5338690000000  0.4725170000000  0.4845110000000 1.0
C      1  0.5395370000000  0.4218180000000  0.5140120000000 1.0
C      1  0.5475650000000  0.4924260000000  0.5665830000000 1.0
C      1  0.5021790000000  0.4576360000000  0.5268860000000 1.0
C      1  0.5574000000000  0.5690820000000  0.5307710000000 1.0
C      1  0.4010470000000  0.4768220000000  0.4983920000000 1.0
C      1  0.5437450000000  0.5248080000000  0.4750160000000 1.0
C      1  0.5718880000000  0.5645280000000  0.5060510000000 1.0
C      1  0.4185910000000  0.5167550000000  0.4694450000000 1.0
C      1  0.4165650000000  0.5377460000000  0.5183010000000 1.0
C      1  0.4584010000000  0.5665560000000  0.5302170000000 1.0
C      1  0.4452440000000  0.5297110000000  0.5600030000000 1.0
C      1  0.4395520000000  0.4727640000000  0.5620160000000 1.0
END
