TITL C-884131-4643-402 -0.120862806362953 125000 -4179.58400285874 0 0 30 (C1) n - 1
REM
REM in /home/nfs/bkarasulu/CARBON/AIRSS/Generating-Clusters/ReaxFF-fromJPCA2015/Units_Real/with-SteepDescent/Only-C1/SD-CG/Try1-3A/FIRE-CG
REM
REM
REM
REM
REM
REM ./C.cell (11c1c37f851c82e70ff6c80c92926a4b)
REM
REM compiler GCC version 9.2.1 20190827 (Red Hat 9.2.1-1)
REM options -cpp -mtune=generic -march=x86-64 -g -O0 -fpre-include=/usr/include/finclude/math-vector-fortran.h
REM seed -327281230 -1743003493 1375559555 -961567908 586811058 402459922 34817213 -1967069579 -1144564889 -863750882 918539809 -43342016 -1975736551 832518748 -1472642261 -2091005470 344698784 2131973824 -314154618 252339850 -702110781 -1016087777 1142564964 1247007821 1603904983 1965090231 1738203468 428985787 -2101834155 1194521042 -1490016994 2070739402 1874921275
REM
CELL 1.54180   50.00000   50.00000   50.00000   90.00000   90.00000   90.00000
LATT -1
SFAC C  
C      1  0.5199870000000  0.4341440000000  0.4988150000000 1.0
C      1  0.5297100000000  0.4845430000000  0.4991380000000 1.0
C      1  0.5159940000000  0.4892570000000  0.4432450000000 1.0
C      1  0.5372360000000  0.4839450000000  0.5295290000000 1.0
C      1  0.5037160000000  0.5647860000000  0.5108120000000 1.0
C      1  0.5153810000000  0.4301930000000  0.5265690000000 1.0
C      1  0.5614290000000  0.4875940000000  0.5386500000000 1.0
C      1  0.5111550000000  0.4628280000000  0.4877350000000 1.0
C      1  0.4771540000000  0.5658470000000  0.5199010000000 1.0
C      1  0.5119970000000  0.4780310000000  0.5478790000000 1.0
C      1  0.5376350000000  0.5203870000000  0.4305130000000 1.0
C      1  0.4511070000000  0.5226150000000  0.5088600000000 1.0
C      1  0.5072430000000  0.5507330000000  0.4829180000000 1.0
C      1  0.4446470000000  0.4995080000000  0.5230770000000 1.0
C      1  0.5042930000000  0.4688310000000  0.4565670000000 1.0
C      1  0.5384580000000  0.5048860000000  0.4527030000000 1.0
C      1  0.4803540000000  0.4617620000000  0.4967600000000 1.0
C      1  0.5287660000000  0.5338640000000  0.4964130000000 1.0
C      1  0.5068840000000  0.4498070000000  0.5490480000000 1.0
C      1  0.4940080000000  0.5257780000000  0.5351450000000 1.0
C      1  0.4621030000000  0.4688840000000  0.4764060000000 1.0
C      1  0.4847730000000  0.5357570000000  0.4784890000000 1.0
C      1  0.4647440000000  0.4947500000000  0.5367720000000 1.0
C      1  0.4686860000000  0.5399250000000  0.5269280000000 1.0
C      1  0.4912020000000  0.4986500000000  0.5459580000000 1.0
C      1  0.4592760000000  0.4957650000000  0.4636030000000 1.0
C      1  0.4774540000000  0.4777450000000  0.4499850000000 1.0
C      1  0.5360400000000  0.5081990000000  0.4853980000000 1.0
C      1  0.4621260000000  0.5207200000000  0.4796240000000 1.0
C      1  0.5164440000000  0.5402660000000  0.5225580000000 1.0
END
