TITL C-884134-5972-62 39.9765426353751 125000 -28797.0333894499 0 0 193 (C1) n - 1
REM
REM in /home/nfs/bkarasulu/CARBON/AIRSS/Generating-Clusters/ReaxFF-fromJPCA2015/Units_Real/with-SteepDescent/Only-C1/SD-CG/Try1-3A/FIRE-CG
REM
REM
REM
REM
REM
REM ./C.cell (11c1c37f851c82e70ff6c80c92926a4b)
REM
REM compiler GCC version 9.2.1 20190827 (Red Hat 9.2.1-1)
REM options -cpp -mtune=generic -march=x86-64 -g -O0 -fpre-include=/usr/include/finclude/math-vector-fortran.h
REM seed 1843814876 -283222474 1825940762 1920622879 -2012887168 -1980739241 -996284024 -1344178868 722391503 -210887266 -2136590143 1972043353 1629852325 1477039818 114501344 708961276 1094811399 466463121 -766050934 -1514423582 164864253 1167662839 -1177594415 704060191 -321603240 170754829 1188591090 679315326 233618045 1626891858 457954483 1834563334 329981911
REM
CELL 1.54180   50.00000   50.00000   50.00000   90.00000   90.00000   90.00000
LATT -1
SFAC C  
C      1  0.4517250000000  0.5332410000000  0.5404260000000 1.0
C      1  0.5409080000000  0.5456490000000  0.5287780000000 1.0
C      1  0.5195210000000  0.3875760000000  0.5275100000000 1.0
C      1  0.4914850000000  0.4558110000000  0.4027390000000 1.0
C      1  0.4745680000000  0.5144370000000  0.4876700000000 1.0
C      1  0.5321820000000  0.5912880000000  0.5343140000000 1.0
C      1  0.4143560000000  0.5723680000000  0.4702710000000 1.0
C      1  0.5656020000000  0.4026580000000  0.5196050000000 1.0
C      1  0.5188120000000  0.4875240000000  0.4951300000000 1.0
C      1  0.5074090000000  0.4987900000000  0.5182190000000 1.0
C      1  0.6126320000000  0.4825990000000  0.4892040000000 1.0
C      1  0.6176030000000  0.5338910000000  0.4869420000000 1.0
C      1  0.5585260000000  0.4697950000000  0.5599650000000 1.0
C      1  0.4769810000000  0.4993810000000  0.6069380000000 1.0
C      1  0.4351360000000  0.5940560000000  0.5216730000000 1.0
C      1  0.4993440000000  0.5472490000000  0.4689470000000 1.0
C      1  0.4544920000000  0.5854600000000  0.4989810000000 1.0
C      1  0.4630900000000  0.5035100000000  0.3912770000000 1.0
C      1  0.5703740000000  0.4943370000000  0.5955460000000 1.0
C      1  0.4689660000000  0.5174330000000  0.4597220000000 1.0
C      1  0.5494210000000  0.5527290000000  0.4638650000000 1.0
C      1  0.5474150000000  0.4751160000000  0.5112510000000 1.0
C      1  0.5619720000000  0.5295340000000  0.5618050000000 1.0
C      1  0.4934090000000  0.5350710000000  0.5445350000000 1.0
C      1  0.5897320000000  0.4327240000000  0.5023590000000 1.0
C      1  0.4814500000000  0.5542190000000  0.6041630000000 1.0
C      1  0.4124530000000  0.4484520000000  0.5290690000000 1.0
C      1  0.4907860000000  0.4638050000000  0.5803820000000 1.0
C      1  0.5935480000000  0.4615290000000  0.4403690000000 1.0
C      1  0.5494570000000  0.4597880000000  0.5841950000000 1.0
C      1  0.4754690000000  0.5640700000000  0.5114470000000 1.0
C      1  0.5036530000000  0.5262660000000  0.5187580000000 1.0
C      1  0.5308640000000  0.4210790000000  0.4347180000000 1.0
C      1  0.5074640000000  0.4459410000000  0.5981480000000 1.0
C      1  0.4985250000000  0.3881410000000  0.5453710000000 1.0
C      1  0.4246920000000  0.4934610000000  0.4370770000000 1.0
C      1  0.5022820000000  0.6013740000000  0.4421670000000 1.0
C      1  0.4608420000000  0.5673900000000  0.4293850000000 1.0
C      1  0.4516110000000  0.4467380000000  0.5678550000000 1.0
C      1  0.5928810000000  0.4836580000000  0.4231930000000 1.0
C      1  0.5085190000000  0.4984140000000  0.3742170000000 1.0
C      1  0.4452930000000  0.4604730000000  0.5918930000000 1.0
C      1  0.4280720000000  0.4455350000000  0.4331180000000 1.0
C      1  0.4320430000000  0.4901760000000  0.5404640000000 1.0
C      1  0.5208330000000  0.5654460000000  0.4680190000000 1.0
C      1  0.4097930000000  0.4591950000000  0.5564170000000 1.0
C      1  0.6242530000000  0.5066450000000  0.4785400000000 1.0
C      1  0.4668260000000  0.4628970000000  0.4637670000000 1.0
C      1  0.4721880000000  0.4709610000000  0.6060080000000 1.0
C      1  0.4454750000000  0.4194340000000  0.4342210000000 1.0
C      1  0.4134730000000  0.4987960000000  0.4658510000000 1.0
C      1  0.4288260000000  0.5042000000000  0.5855860000000 1.0
C      1  0.4853170000000  0.5395950000000  0.4952280000000 1.0
C      1  0.5044470000000  0.4114660000000  0.4284960000000 1.0
C      1  0.5313240000000  0.3950990000000  0.4812280000000 1.0
C      1  0.4275490000000  0.5051220000000  0.4928190000000 1.0
C      1  0.4908430000000  0.6098970000000  0.5104990000000 1.0
C      1  0.5721690000000  0.5663940000000  0.4793270000000 1.0
C      1  0.4578520000000  0.5816810000000  0.5843890000000 1.0
C      1  0.4820740000000  0.6050090000000  0.5367930000000 1.0
C      1  0.5899100000000  0.5019930000000  0.5771630000000 1.0
C      1  0.5872110000000  0.4755600000000  0.5624750000000 1.0
C      1  0.4797290000000  0.4869220000000  0.4275830000000 1.0
C      1  0.4357720000000  0.5335220000000  0.4919890000000 1.0
C      1  0.5696860000000  0.4921290000000  0.4993270000000 1.0
C      1  0.5194930000000  0.5071020000000  0.4440190000000 1.0
C      1  0.4871790000000  0.5628420000000  0.5371840000000 1.0
C      1  0.4624910000000  0.4295510000000  0.4156430000000 1.0
C      1  0.4575740000000  0.5108060000000  0.5868770000000 1.0
C      1  0.4212050000000  0.5154180000000  0.4179460000000 1.0
C      1  0.4721660000000  0.6082570000000  0.4874310000000 1.0
C      1  0.4617370000000  0.4045610000000  0.4547060000000 1.0
C      1  0.5013840000000  0.4616490000000  0.6211970000000 1.0
C      1  0.5232270000000  0.4583590000000  0.4554520000000 1.0
C      1  0.4435760000000  0.4549250000000  0.4853420000000 1.0
C      1  0.4638340000000  0.4758240000000  0.4049550000000 1.0
C      1  0.3971860000000  0.4588920000000  0.5056380000000 1.0
C      1  0.4543960000000  0.5059610000000  0.5317000000000 1.0
C      1  0.5995510000000  0.4676150000000  0.5371710000000 1.0
C      1  0.5017230000000  0.5391320000000  0.3851650000000 1.0
C      1  0.4178110000000  0.5435010000000  0.4269720000000 1.0
C      1  0.5385000000000  0.6094630000000  0.4814550000000 1.0
C      1  0.5084290000000  0.5567060000000  0.4296360000000 1.0
C      1  0.4489640000000  0.3928110000000  0.5287240000000 1.0
C      1  0.4663480000000  0.4590250000000  0.5274080000000 1.0
C      1  0.5677210000000  0.4905880000000  0.4689470000000 1.0
C      1  0.5923560000000  0.4378320000000  0.4745450000000 1.0
C      1  0.4189370000000  0.5698550000000  0.5192350000000 1.0
C      1  0.4927680000000  0.5654950000000  0.3916960000000 1.0
C      1  0.3962100000000  0.5269380000000  0.5224900000000 1.0
C      1  0.3922190000000  0.5380720000000  0.4949920000000 1.0
C      1  0.4978210000000  0.5323450000000  0.4442570000000 1.0
C      1  0.4889340000000  0.4273310000000  0.4072930000000 1.0
C      1  0.4546470000000  0.5526040000000  0.5902240000000 1.0
C      1  0.5571440000000  0.5535450000000  0.4325940000000 1.0
C      1  0.5511310000000  0.5195460000000  0.5364730000000 1.0
C      1  0.6006490000000  0.5173420000000  0.5323270000000 1.0
C      1  0.5678740000000  0.4434130000000  0.4343350000000 1.0
C      1  0.4219620000000  0.4735200000000  0.5804150000000 1.0
C      1  0.5134280000000  0.5809590000000  0.5778300000000 1.0
C      1  0.5210580000000  0.5986250000000  0.5074270000000 1.0
C      1  0.5980290000000  0.4390320000000  0.5299020000000 1.0
C      1  0.4953820000000  0.4688230000000  0.4944840000000 1.0
C      1  0.4799890000000  0.4345230000000  0.5635790000000 1.0
C      1  0.4377730000000  0.4713480000000  0.4237500000000 1.0
C      1  0.5035430000000  0.3898220000000  0.4752970000000 1.0
C      1  0.5247750000000  0.5070770000000  0.4737570000000 1.0
C      1  0.4024550000000  0.5425020000000  0.5456660000000 1.0
C      1  0.5254210000000  0.4222330000000  0.5620400000000 1.0
C      1  0.4486080000000  0.5395530000000  0.4666150000000 1.0
C      1  0.6044380000000  0.5386170000000  0.5131530000000 1.0
C      1  0.5404360000000  0.5279830000000  0.4847510000000 1.0
C      1  0.5434930000000  0.4859040000000  0.5404120000000 1.0
C      1  0.4191880000000  0.5551400000000  0.5642230000000 1.0
C      1  0.5509290000000  0.5699690000000  0.5394000000000 1.0
C      1  0.5227980000000  0.4811130000000  0.6215100000000 1.0
C      1  0.4817260000000  0.4388920000000  0.5354390000000 1.0
C      1  0.5296760000000  0.4833220000000  0.3832220000000 1.0
C      1  0.5821240000000  0.4151270000000  0.5404620000000 1.0
C      1  0.5414930000000  0.5401760000000  0.5941780000000 1.0
C      1  0.4881540000000  0.5773750000000  0.4211810000000 1.0
C      1  0.5796830000000  0.5457310000000  0.4996950000000 1.0
C      1  0.4447400000000  0.5230980000000  0.4013210000000 1.0
C      1  0.5391840000000  0.5180310000000  0.4247950000000 1.0
C      1  0.5640240000000  0.4270390000000  0.5054030000000 1.0
C      1  0.4671510000000  0.4714080000000  0.5026500000000 1.0
C      1  0.5593620000000  0.5029910000000  0.4124160000000 1.0
C      1  0.5211000000000  0.5284240000000  0.6103950000000 1.0
C      1  0.4542130000000  0.5650590000000  0.4562670000000 1.0
C      1  0.5346010000000  0.5571430000000  0.4141990000000 1.0
C      1  0.4810470000000  0.3867990000000  0.4941080000000 1.0
C      1  0.4643040000000  0.4886660000000  0.4517070000000 1.0
C      1  0.4071100000000  0.4482020000000  0.4546280000000 1.0
C      1  0.5472740000000  0.5064700000000  0.3865680000000 1.0
C      1  0.5008930000000  0.4893090000000  0.5663450000000 1.0
C      1  0.4399960000000  0.5809160000000  0.5618530000000 1.0
C      1  0.4431260000000  0.5510110000000  0.4137370000000 1.0
C      1  0.4207510000000  0.5314650000000  0.5810070000000 1.0
C      1  0.5284510000000  0.4328350000000  0.5347660000000 1.0
C      1  0.5618860000000  0.5213620000000  0.5035790000000 1.0
C      1  0.5035750000000  0.4303170000000  0.5206010000000 1.0
C      1  0.4366970000000  0.5459940000000  0.5186530000000 1.0
C      1  0.5392140000000  0.5649640000000  0.5817360000000 1.0
C      1  0.5189210000000  0.5710900000000  0.4959440000000 1.0
C      1  0.4860320000000  0.6051190000000  0.4631920000000 1.0
C      1  0.5065370000000  0.5884220000000  0.5492890000000 1.0
C      1  0.4769280000000  0.3840020000000  0.5234130000000 1.0
C      1  0.5456370000000  0.4743320000000  0.4606450000000 1.0
C      1  0.5199290000000  0.4651710000000  0.4081480000000 1.0
C      1  0.4067140000000  0.5488910000000  0.4537310000000 1.0
C      1  0.5026360000000  0.4416110000000  0.4945920000000 1.0
C      1  0.4568980000000  0.3978880000000  0.4823980000000 1.0
C      1  0.5501140000000  0.4786330000000  0.6062000000000 1.0
C      1  0.4929940000000  0.4532300000000  0.4564010000000 1.0
C      1  0.4333460000000  0.4372820000000  0.5072180000000 1.0
C      1  0.5891800000000  0.5257910000000  0.5581630000000 1.0
C      1  0.5254640000000  0.5446860000000  0.5064230000000 1.0
C      1  0.5122110000000  0.4349600000000  0.4688230000000 1.0
C      1  0.4597640000000  0.5341990000000  0.5684350000000 1.0
C      1  0.5840390000000  0.5101440000000  0.4239500000000 1.0
C      1  0.5699800000000  0.4268770000000  0.4573980000000 1.0
C      1  0.5483510000000  0.4459020000000  0.5174400000000 1.0
C      1  0.5632910000000  0.5577000000000  0.5640030000000 1.0
C      1  0.5423600000000  0.4434750000000  0.4212620000000 1.0
C      1  0.4855460000000  0.5143320000000  0.3759780000000 1.0
C      1  0.4884930000000  0.5797070000000  0.5916130000000 1.0
C      1  0.4978290000000  0.5185280000000  0.5676570000000 1.0
C      1  0.4414790000000  0.5844170000000  0.4720240000000 1.0
C      1  0.5992400000000  0.4897040000000  0.5166240000000 1.0
C      1  0.4096960000000  0.4998640000000  0.5200360000000 1.0
C      1  0.5405780000000  0.3889450000000  0.5098080000000 1.0
C      1  0.5306280000000  0.5306180000000  0.3974840000000 1.0
C      1  0.5445840000000  0.4120250000000  0.4610150000000 1.0
C      1  0.4901690000000  0.3987860000000  0.4501540000000 1.0
C      1  0.5003880000000  0.5359620000000  0.5910640000000 1.0
C      1  0.5052330000000  0.5033980000000  0.6169980000000 1.0
C      1  0.4137380000000  0.4656920000000  0.4776980000000 1.0
C      1  0.4483600000000  0.4661970000000  0.5455710000000 1.0
C      1  0.5838320000000  0.5104370000000  0.4534460000000 1.0
C      1  0.6074560000000  0.5224820000000  0.4629730000000 1.0
C      1  0.4990000000000  0.4106560000000  0.5643910000000 1.0
C      1  0.4016310000000  0.5658130000000  0.4951610000000 1.0
C      1  0.5265650000000  0.6054480000000  0.4563960000000 1.0
C      1  0.5592820000000  0.5914460000000  0.4779140000000 1.0
C      1  0.4583100000000  0.4988800000000  0.5036090000000 1.0
C      1  0.5077520000000  0.4850720000000  0.4272430000000 1.0
C      1  0.6052610000000  0.4628540000000  0.4690610000000 1.0
C      1  0.5327400000000  0.4379710000000  0.5856260000000 1.0
C      1  0.4399850000000  0.4089140000000  0.5046710000000 1.0
C      1  0.4526600000000  0.5991550000000  0.5435390000000 1.0
C      1  0.3833270000000  0.4819980000000  0.5153330000000 1.0
C      1  0.5148010000000  0.4849550000000  0.5418990000000 1.0
C      1  0.3985520000000  0.5254520000000  0.4694010000000 1.0
END
