TITL C-884139-6216-64 -17.0759485598728 125000 -15925.420501278 0 0 107 (C1) n - 1
REM
REM in /home/nfs/bkarasulu/CARBON/AIRSS/Generating-Clusters/ReaxFF-fromJPCA2015/Units_Real/with-SteepDescent/Only-C1/SD-CG/Try1-3A/FIRE-CG
REM
REM
REM
REM
REM
REM ./C.cell (11c1c37f851c82e70ff6c80c92926a4b)
REM
REM compiler GCC version 9.2.1 20190827 (Red Hat 9.2.1-1)
REM options -cpp -mtune=generic -march=x86-64 -g -O0 -fpre-include=/usr/include/finclude/math-vector-fortran.h
REM seed 1553981433 -1190967637 -1049960102 1554748272 -687972042 -947124142 -1821295570 -1771542789 -1084133171 163689599 1681620242 325393391 1699008235 -887355993 -86278077 888479988 -896754242 1125832687 -514186585 1238215223 -812946104 1071091620 204148955 -1910760454 935518485 1622408617 -1441134786 -1174534789 -1583779114 -863130835 1534309570 1479440841 -1674260751
REM
CELL 1.54180   50.00000   50.00000   50.00000   90.00000   90.00000   90.00000
LATT -1
SFAC C  
C      1  0.4873700000000  0.4057790000000  0.5209930000000 1.0
C      1  0.4110450000000  0.5057770000000  0.4768680000000 1.0
C      1  0.5182730000000  0.5321770000000  0.5786800000000 1.0
C      1  0.4766210000000  0.4934100000000  0.5895950000000 1.0
C      1  0.5146150000000  0.4368220000000  0.5362080000000 1.0
C      1  0.5383120000000  0.4018430000000  0.5370770000000 1.0
C      1  0.5282300000000  0.5772780000000  0.5509690000000 1.0
C      1  0.5047680000000  0.5574890000000  0.5233810000000 1.0
C      1  0.5598110000000  0.4479420000000  0.5146160000000 1.0
C      1  0.4935490000000  0.4560070000000  0.5345570000000 1.0
C      1  0.4980520000000  0.4866090000000  0.5314910000000 1.0
C      1  0.4312940000000  0.5410600000000  0.5125550000000 1.0
C      1  0.5043540000000  0.4963640000000  0.4023190000000 1.0
C      1  0.4591850000000  0.4638790000000  0.4762010000000 1.0
C      1  0.5228680000000  0.5740150000000  0.5064380000000 1.0
C      1  0.5056930000000  0.4858230000000  0.5875530000000 1.0
C      1  0.5376970000000  0.4608690000000  0.4390760000000 1.0
C      1  0.5504970000000  0.4461360000000  0.4623670000000 1.0
C      1  0.5304470000000  0.4916480000000  0.4105360000000 1.0
C      1  0.4409120000000  0.4859870000000  0.4374130000000 1.0
C      1  0.5443200000000  0.4631550000000  0.5667660000000 1.0
C      1  0.5344200000000  0.4835270000000  0.5037460000000 1.0
C      1  0.4373570000000  0.4796600000000  0.5372800000000 1.0
C      1  0.4625110000000  0.5562250000000  0.5430490000000 1.0
C      1  0.4571310000000  0.4827880000000  0.5722580000000 1.0
C      1  0.5172300000000  0.5331160000000  0.4313750000000 1.0
C      1  0.5150000000000  0.5334060000000  0.4856710000000 1.0
C      1  0.4319910000000  0.5120740000000  0.4549350000000 1.0
C      1  0.4295720000000  0.5438800000000  0.4477090000000 1.0
C      1  0.5232140000000  0.5575040000000  0.4184580000000 1.0
C      1  0.5631060000000  0.5563920000000  0.4478930000000 1.0
C      1  0.5374610000000  0.4192030000000  0.4659590000000 1.0
C      1  0.5821260000000  0.5297080000000  0.4826280000000 1.0
C      1  0.5372060000000  0.4283700000000  0.5169290000000 1.0
C      1  0.4301740000000  0.4902950000000  0.5116450000000 1.0
C      1  0.5614270000000  0.4859830000000  0.4902340000000 1.0
C      1  0.4846920000000  0.5115340000000  0.5446120000000 1.0
C      1  0.4678700000000  0.4256370000000  0.4516820000000 1.0
C      1  0.4649140000000  0.4880230000000  0.4219100000000 1.0
C      1  0.4759560000000  0.5555730000000  0.4503830000000 1.0
C      1  0.5100930000000  0.4076390000000  0.5414780000000 1.0
C      1  0.5274110000000  0.4941530000000  0.5291190000000 1.0
C      1  0.4605400000000  0.5822090000000  0.5074410000000 1.0
C      1  0.5274300000000  0.5041220000000  0.5824410000000 1.0
C      1  0.4533980000000  0.4972210000000  0.5515800000000 1.0
C      1  0.4381340000000  0.5416620000000  0.5423610000000 1.0
C      1  0.4846710000000  0.5361980000000  0.5257890000000 1.0
C      1  0.5639580000000  0.5487330000000  0.4962400000000 1.0
C      1  0.4403420000000  0.4312520000000  0.4587050000000 1.0
C      1  0.4924090000000  0.4743270000000  0.4169390000000 1.0
C      1  0.4441480000000  0.5606990000000  0.4949770000000 1.0
C      1  0.5387340000000  0.5333990000000  0.5020300000000 1.0
C      1  0.4317350000000  0.4253200000000  0.4859180000000 1.0
C      1  0.4895890000000  0.4958210000000  0.5015290000000 1.0
C      1  0.5169780000000  0.4601210000000  0.5791040000000 1.0
C      1  0.5605570000000  0.4634540000000  0.5403650000000 1.0
C      1  0.5673500000000  0.5034900000000  0.4433970000000 1.0
C      1  0.4800080000000  0.4389700000000  0.4743690000000 1.0
C      1  0.4671540000000  0.5146650000000  0.4270720000000 1.0
C      1  0.4860230000000  0.5210360000000  0.4082590000000 1.0
C      1  0.4765830000000  0.5238650000000  0.4540120000000 1.0
C      1  0.4995430000000  0.4364830000000  0.5800490000000 1.0
C      1  0.5739310000000  0.5298800000000  0.4538810000000 1.0
C      1  0.4909340000000  0.5280370000000  0.5682970000000 1.0
C      1  0.4426050000000  0.4526960000000  0.5311010000000 1.0
C      1  0.5521850000000  0.4834620000000  0.4254490000000 1.0
C      1  0.5222320000000  0.4953160000000  0.4629900000000 1.0
C      1  0.5105610000000  0.5218860000000  0.4576860000000 1.0
C      1  0.5445640000000  0.5755810000000  0.4598240000000 1.0
C      1  0.4920870000000  0.5253240000000  0.5011110000000 1.0
C      1  0.5085570000000  0.4569850000000  0.4339160000000 1.0
C      1  0.4252060000000  0.4430150000000  0.5094580000000 1.0
C      1  0.5352390000000  0.5533840000000  0.5669540000000 1.0
C      1  0.4683490000000  0.4434460000000  0.5353710000000 1.0
C      1  0.4711410000000  0.5824870000000  0.5362390000000 1.0
C      1  0.5516590000000  0.5338710000000  0.5525240000000 1.0
C      1  0.4353750000000  0.4645710000000  0.4576360000000 1.0
C      1  0.4989970000000  0.5771160000000  0.5446680000000 1.0
C      1  0.4124400000000  0.4679610000000  0.5009030000000 1.0
C      1  0.5502560000000  0.4950420000000  0.4647460000000 1.0
C      1  0.5441250000000  0.5703020000000  0.4320700000000 1.0
C      1  0.5820520000000  0.5116240000000  0.5293790000000 1.0
C      1  0.5120130000000  0.4839340000000  0.4868050000000 1.0
C      1  0.4183130000000  0.5165680000000  0.5030460000000 1.0
C      1  0.4951900000000  0.5472100000000  0.4210460000000 1.0
C      1  0.4667670000000  0.5209000000000  0.5830680000000 1.0
C      1  0.4931350000000  0.4372390000000  0.4485910000000 1.0
C      1  0.5698070000000  0.4900390000000  0.5467980000000 1.0
C      1  0.4436130000000  0.5215740000000  0.5636180000000 1.0
C      1  0.5366610000000  0.5216790000000  0.5290310000000 1.0
C      1  0.5639000000000  0.4554110000000  0.4872470000000 1.0
C      1  0.5770070000000  0.5394760000000  0.5388700000000 1.0
C      1  0.4600390000000  0.4891730000000  0.4907290000000 1.0
C      1  0.4482020000000  0.5581480000000  0.4635840000000 1.0
C      1  0.4795340000000  0.4176280000000  0.5700860000000 1.0
C      1  0.5691660000000  0.5621580000000  0.5216030000000 1.0
C      1  0.4801720000000  0.5817870000000  0.4883890000000 1.0
C      1  0.4694040000000  0.4159990000000  0.5414660000000 1.0
C      1  0.4566650000000  0.5116390000000  0.4717210000000 1.0
C      1  0.5443420000000  0.5779070000000  0.5261230000000 1.0
C      1  0.5212180000000  0.5771380000000  0.4773910000000 1.0
C      1  0.5520090000000  0.4903390000000  0.5718010000000 1.0
C      1  0.4930840000000  0.5756740000000  0.4655570000000 1.0
C      1  0.4108670000000  0.4772260000000  0.4741730000000 1.0
C      1  0.5825570000000  0.5075090000000  0.5011020000000 1.0
C      1  0.4937470000000  0.4169120000000  0.4954560000000 1.0
C      1  0.5220360000000  0.4169420000000  0.4913110000000 1.0
END
