TITL C-884129-4740-278 -5.41218894244004 125000 -13853.7832768711 0 0 92 (C1) n - 1
REM
REM in /home/nfs/bkarasulu/CARBON/AIRSS/Generating-Clusters/ReaxFF-fromJPCA2015/Units_Real/with-SteepDescent/Only-C1/SD-CG/Try1-3A/FIRE-CG
REM
REM
REM
REM
REM
REM ./C.cell (11c1c37f851c82e70ff6c80c92926a4b)
REM
REM compiler GCC version 9.2.1 20190827 (Red Hat 9.2.1-1)
REM options -cpp -mtune=generic -march=x86-64 -g -O0 -fpre-include=/usr/include/finclude/math-vector-fortran.h
REM seed 1019655743 -1302837245 1722886201 -862282544 775472277 1848094017 -429392609 -1986468937 1303166191 825225927 1560570965 -1766637094 -1985310073 1858969962 -1428777081 -857946797 717687814 472121596 990581657 -1768183111 -1264899199 300964478 959883908 1234624884 -1655352657 676914036 554547259 -1206628752 -1435346837 -774688979 1130653508 -1949808743 582559328
REM
CELL 1.54180   50.00000   50.00000   50.00000   90.00000   90.00000   90.00000
LATT -1
SFAC C  
C      1  0.4975130000000  0.5675630000000  0.4545770000000 1.0
C      1  0.4657510000000  0.4370750000000  0.5434300000000 1.0
C      1  0.5250130000000  0.4331020000000  0.4875160000000 1.0
C      1  0.4729370000000  0.5331050000000  0.4192840000000 1.0
C      1  0.4902180000000  0.4290110000000  0.5532600000000 1.0
C      1  0.5380790000000  0.4698420000000  0.4451810000000 1.0
C      1  0.4377240000000  0.4948870000000  0.4444560000000 1.0
C      1  0.4179350000000  0.5308150000000  0.5027090000000 1.0
C      1  0.4788130000000  0.5043330000000  0.4174260000000 1.0
C      1  0.5822460000000  0.4716620000000  0.4890640000000 1.0
C      1  0.5461440000000  0.5183560000000  0.4372770000000 1.0
C      1  0.4403300000000  0.5559300000000  0.4778830000000 1.0
C      1  0.5859010000000  0.4460210000000  0.4826650000000 1.0
C      1  0.5716740000000  0.5478140000000  0.5126580000000 1.0
C      1  0.5068510000000  0.4964280000000  0.4162490000000 1.0
C      1  0.4785120000000  0.4081060000000  0.4993260000000 1.0
C      1  0.5807180000000  0.5361960000000  0.4598670000000 1.0
C      1  0.4355350000000  0.4687110000000  0.4578970000000 1.0
C      1  0.4330720000000  0.5061470000000  0.5445490000000 1.0
C      1  0.5116820000000  0.5075230000000  0.5834690000000 1.0
C      1  0.5465870000000  0.4630180000000  0.5537370000000 1.0
C      1  0.5036800000000  0.4129690000000  0.4853600000000 1.0
C      1  0.5327100000000  0.5474340000000  0.5671710000000 1.0
C      1  0.5782450000000  0.4943210000000  0.4673940000000 1.0
C      1  0.4781260000000  0.4087240000000  0.4704050000000 1.0
C      1  0.4662700000000  0.4912350000000  0.4401370000000 1.0
C      1  0.4444830000000  0.4424210000000  0.5007660000000 1.0
C      1  0.5232770000000  0.5231830000000  0.4842110000000 1.0
C      1  0.4995080000000  0.5801700000000  0.5141990000000 1.0
C      1  0.4882470000000  0.5414920000000  0.4649370000000 1.0
C      1  0.4913820000000  0.5090250000000  0.5611390000000 1.0
C      1  0.4539730000000  0.5288870000000  0.5842230000000 1.0
C      1  0.5248020000000  0.4729200000000  0.5128090000000 1.0
C      1  0.4497250000000  0.4766210000000  0.5742710000000 1.0
C      1  0.5005710000000  0.5430590000000  0.4177010000000 1.0
C      1  0.5181620000000  0.5189750000000  0.4302740000000 1.0
C      1  0.5487010000000  0.4837070000000  0.5287090000000 1.0
C      1  0.4218280000000  0.4783460000000  0.5077340000000 1.0
C      1  0.5556360000000  0.5381490000000  0.5352630000000 1.0
C      1  0.5932550000000  0.5183130000000  0.4773600000000 1.0
C      1  0.4450920000000  0.4696250000000  0.4874310000000 1.0
C      1  0.4953010000000  0.4710530000000  0.5969940000000 1.0
C      1  0.5563270000000  0.4936120000000  0.4485380000000 1.0
C      1  0.4745970000000  0.5843750000000  0.4636500000000 1.0
C      1  0.5168550000000  0.5143480000000  0.5113970000000 1.0
C      1  0.5174510000000  0.4704490000000  0.4239630000000 1.0
C      1  0.4615250000000  0.4211780000000  0.4492070000000 1.0
C      1  0.4850790000000  0.4899560000000  0.4652930000000 1.0
C      1  0.5547410000000  0.5427300000000  0.4511050000000 1.0
C      1  0.5368090000000  0.4381510000000  0.5432630000000 1.0
C      1  0.4598490000000  0.4678560000000  0.5470360000000 1.0
C      1  0.4453390000000  0.4452770000000  0.4433960000000 1.0
C      1  0.5259110000000  0.4561890000000  0.4684290000000 1.0
C      1  0.4152750000000  0.5041810000000  0.4998860000000 1.0
C      1  0.4705440000000  0.4397040000000  0.4284790000000 1.0
C      1  0.5205600000000  0.4815390000000  0.5940070000000 1.0
C      1  0.5771020000000  0.5046790000000  0.5527160000000 1.0
C      1  0.4965470000000  0.4516810000000  0.4339290000000 1.0
C      1  0.5132290000000  0.4277220000000  0.5550980000000 1.0
C      1  0.5292560000000  0.5722510000000  0.5186680000000 1.0
C      1  0.5593440000000  0.5024660000000  0.5744350000000 1.0
C      1  0.5301960000000  0.4448070000000  0.5137650000000 1.0
C      1  0.4324890000000  0.4791230000000  0.5351150000000 1.0
C      1  0.5075020000000  0.5704270000000  0.4251830000000 1.0
C      1  0.4618720000000  0.5167900000000  0.5008430000000 1.0
C      1  0.5389720000000  0.5463760000000  0.4770770000000 1.0
C      1  0.4668370000000  0.4659460000000  0.5975610000000 1.0
C      1  0.4844850000000  0.5855000000000  0.4902120000000 1.0
C      1  0.5913100000000  0.5052350000000  0.5275650000000 1.0
C      1  0.4510980000000  0.5427260000000  0.4370500000000 1.0
C      1  0.4981980000000  0.4619350000000  0.4613820000000 1.0
C      1  0.5392010000000  0.5142540000000  0.5290520000000 1.0
C      1  0.5045180000000  0.5168090000000  0.4616820000000 1.0
C      1  0.4436300000000  0.5265710000000  0.5234680000000 1.0
C      1  0.4327630000000  0.5236380000000  0.4495070000000 1.0
C      1  0.4193900000000  0.5354070000000  0.4735770000000 1.0
C      1  0.4598990000000  0.4242450000000  0.5174050000000 1.0
C      1  0.4396290000000  0.5040470000000  0.5728960000000 1.0
C      1  0.4794910000000  0.5638280000000  0.5254060000000 1.0
C      1  0.4511030000000  0.5674270000000  0.4536760000000 1.0
C      1  0.4738660000000  0.5340350000000  0.5630700000000 1.0
C      1  0.5484090000000  0.5624750000000  0.4994670000000 1.0
C      1  0.5897400000000  0.5267560000000  0.5062340000000 1.0
C      1  0.5391480000000  0.5625530000000  0.5446640000000 1.0
C      1  0.4978700000000  0.4882280000000  0.5158170000000 1.0
C      1  0.5776870000000  0.4815340000000  0.5181330000000 1.0
C      1  0.4627590000000  0.5472350000000  0.5381620000000 1.0
C      1  0.5362670000000  0.5233380000000  0.5805200000000 1.0
C      1  0.5462590000000  0.4761710000000  0.5788020000000 1.0
C      1  0.4656850000000  0.5397610000000  0.4835360000000 1.0
C      1  0.4722080000000  0.4905400000000  0.4930990000000 1.0
C      1  0.4849780000000  0.4876680000000  0.5426090000000 1.0
END
