TITL C-884127-5181-42 596517.296382525 125000 -14383.1250916451 0 0 97 (C1) n - 1
REM
REM in /home/nfs/bkarasulu/CARBON/AIRSS/Generating-Clusters/ReaxFF-fromJPCA2015/Units_Real/with-SteepDescent/Only-C1/SD-CG/Try1-3A/FIRE-CG
REM
REM
REM
REM
REM
REM ./C.cell (11c1c37f851c82e70ff6c80c92926a4b)
REM
REM compiler GCC version 9.2.1 20190827 (Red Hat 9.2.1-1)
REM options -cpp -mtune=generic -march=x86-64 -g -O0 -fpre-include=/usr/include/finclude/math-vector-fortran.h
REM seed -2139323997 -1306775745 1227730297 -1608172405 227748779 1658775725 -1711714129 -1907501772 1572218162 -1154511580 1118206049 162426465 1983405278 -703821879 1373217563 1377112870 -256751790 -1178366106 1238078815 1019385538 1053170872 381801610 940220454 -1075277831 -672318481 -1828842173 87330920 -1821373293 -582484867 -2115287244 1679981456 66594408 724299442
REM
CELL 1.54180   50.00000   50.00000   50.00000   90.00000   90.00000   90.00000
LATT -1
SFAC C  
C      1  0.4550790000000  0.5430230000000  0.5485660000000 1.0
C      1  0.4595680000000  0.4505260000000  0.4896530000000 1.0
C      1  0.5157480000000  0.5068310000000  0.4121150000000 1.0
C      1  0.5109430000000  0.5070260000000  0.5267040000000 1.0
C      1  0.4677310000000  0.5328070000000  0.5735050000000 1.0
C      1  0.5807140000000  0.5305990000000  0.5013070000000 1.0
C      1  0.5274870000000  0.4872330000000  0.5105810000000 1.0
C      1  0.4277150000000  0.5181550000000  0.5123910000000 1.0
C      1  0.4694840000000  0.4962100000000  0.5055340000000 1.0
C      1  0.4900360000000  0.5168190000000  0.5087490000000 1.0
C      1  0.5773020000000  0.4888040000000  0.4657350000000 1.0
C      1  0.5705090000000  0.4608820000000  0.4710120000000 1.0
C      1  0.5440980000000  0.4612450000000  0.4577300000000 1.0
C      1  0.5814750000000  0.5296160000000  0.5330110000000 1.0
C      1  0.4371340000000  0.4613230000000  0.5320330000000 1.0
C      1  0.4826060000000  0.5002040000000  0.4187360000000 1.0
C      1  0.4989210000000  0.5954230000000  0.4933880000000 1.0
C      1  0.5374410000000  0.4894210000000  0.4627540000000 1.0
C      1  0.4445370000000  0.4778800000000  0.4429690000000 1.0
C      1  0.5608660000000  0.4526280000000  0.5242900000000 1.0
C      1  0.4959610000000  0.5394380000000  0.5801000000000 1.0
C      1  0.5404960000000  0.4478850000000  0.5467570000000 1.0
C      1  0.5715900000000  0.4897400000000  0.5313460000000 1.0
C      1  0.4701790000000  0.4011650000000  0.5080460000000 1.0
C      1  0.4796870000000  0.4413850000000  0.5565650000000 1.0
C      1  0.4872060000000  0.4428590000000  0.4471310000000 1.0
C      1  0.5331710000000  0.5393900000000  0.5640880000000 1.0
C      1  0.4955500000000  0.4933460000000  0.4453250000000 1.0
C      1  0.4621810000000  0.4765800000000  0.4204150000000 1.0
C      1  0.5480950000000  0.5301680000000  0.4374860000000 1.0
C      1  0.4595390000000  0.4876460000000  0.5377130000000 1.0
C      1  0.4433620000000  0.5017800000000  0.5580200000000 1.0
C      1  0.4614970000000  0.4533240000000  0.4376430000000 1.0
C      1  0.5357380000000  0.5743600000000  0.4556870000000 1.0
C      1  0.5327510000000  0.4629360000000  0.4304790000000 1.0
C      1  0.4870280000000  0.5256560000000  0.4818110000000 1.0
C      1  0.5274850000000  0.5257140000000  0.4764700000000 1.0
C      1  0.5117450000000  0.5843110000000  0.5180330000000 1.0
C      1  0.4919930000000  0.4228870000000  0.4681740000000 1.0
C      1  0.4690040000000  0.4217430000000  0.4855440000000 1.0
C      1  0.4632630000000  0.5238880000000  0.4213010000000 1.0
C      1  0.4888850000000  0.4894890000000  0.5419420000000 1.0
C      1  0.5161550000000  0.4332420000000  0.5096620000000 1.0
C      1  0.3887130000000  0.4700980000000  0.5201680000000 1.0
C      1  0.4409060000000  0.5371150000000  0.4960750000000 1.0
C      1  0.4516580000000  0.4367400000000  0.5424080000000 1.0
C      1  0.5241820000000  0.4250520000000  0.5372070000000 1.0
C      1  0.5555580000000  0.5017620000000  0.4411510000000 1.0
C      1  0.5078910000000  0.5755070000000  0.4472520000000 1.0
C      1  0.4958710000000  0.5686220000000  0.5374780000000 1.0
C      1  0.4403670000000  0.5014380000000  0.4608660000000 1.0
C      1  0.4521830000000  0.4167530000000  0.5233760000000 1.0
C      1  0.4070520000000  0.4623100000000  0.5412510000000 1.0
C      1  0.5624660000000  0.5110090000000  0.5460960000000 1.0
C      1  0.5030440000000  0.5546920000000  0.4283320000000 1.0
C      1  0.5474350000000  0.4224890000000  0.4829420000000 1.0
C      1  0.5640900000000  0.5786030000000  0.4979140000000 1.0
C      1  0.5646010000000  0.4433930000000  0.4948670000000 1.0
C      1  0.4345270000000  0.5238580000000  0.5400790000000 1.0
C      1  0.4740020000000  0.5504450000000  0.4269960000000 1.0
C      1  0.4958830000000  0.4623310000000  0.5401250000000 1.0
C      1  0.5698800000000  0.5520980000000  0.4860820000000 1.0
C      1  0.5402800000000  0.5024070000000  0.4872070000000 1.0
C      1  0.5145750000000  0.4901440000000  0.5775550000000 1.0
C      1  0.4641390000000  0.5667990000000  0.4750990000000 1.0
C      1  0.3959070000000  0.4839800000000  0.4940440000000 1.0
C      1  0.4373390000000  0.4653690000000  0.5019610000000 1.0
C      1  0.5179470000000  0.5196110000000  0.5798680000000 1.0
C      1  0.5055090000000  0.4653240000000  0.4415320000000 1.0
C      1  0.4797470000000  0.4697390000000  0.4954360000000 1.0
C      1  0.5411310000000  0.5802480000000  0.5177940000000 1.0
C      1  0.5534430000000  0.4773310000000  0.5206250000000 1.0
C      1  0.4898030000000  0.4022180000000  0.5292140000000 1.0
C      1  0.4592200000000  0.5144350000000  0.4828870000000 1.0
C      1  0.5730260000000  0.5058280000000  0.4881000000000 1.0
C      1  0.5298530000000  0.4694790000000  0.5635640000000 1.0
C      1  0.4247980000000  0.4917930000000  0.4939180000000 1.0
C      1  0.5092170000000  0.5572360000000  0.5614350000000 1.0
C      1  0.4442220000000  0.5256890000000  0.4438000000000 1.0
C      1  0.4687570000000  0.5605810000000  0.5299570000000 1.0
C      1  0.4881270000000  0.5834910000000  0.4688860000000 1.0
C      1  0.5678770000000  0.5508920000000  0.5474670000000 1.0
C      1  0.5054150000000  0.4616880000000  0.5099640000000 1.0
C      1  0.4845780000000  0.4844970000000  0.5852780000000 1.0
C      1  0.4554260000000  0.5525410000000  0.4506790000000 1.0
C      1  0.4994370000000  0.4167160000000  0.5507250000000 1.0
C      1  0.4561820000000  0.5607600000000  0.5028420000000 1.0
C      1  0.5048290000000  0.5158920000000  0.4618560000000 1.0
C      1  0.5364060000000  0.5268450000000  0.5387240000000 1.0
C      1  0.5470780000000  0.5536040000000  0.5283970000000 1.0
C      1  0.5470340000000  0.5863590000000  0.4776680000000 1.0
C      1  0.5474850000000  0.5452430000000  0.4633560000000 1.0
C      1  0.5235500000000  0.5331460000000  0.4219980000000 1.0
C      1  0.5375540000000  0.4890870000000  0.4187770000000 1.0
C      1  0.5171800000000  0.4191300000000  0.4844480000000 1.0
C      1  0.4625860000000  0.5051300000000  0.5795870000000 1.0
C      1  0.4780770000000  0.4568650000000  0.5841880000000 1.0
END
