TITL C-883739-1268-373 -7.63509731864127 125000 -29270.7432821945 0 0 193 (C1) n - 1
REM
REM in /home/nfs/bkarasulu/CARBON/AIRSS/Generating-Clusters/ReaxFF-fromJPCA2015/Units_Real/with-SteepDescent/Only-C1/SD-CG/Try1-3A/FIRE-CG
REM
REM
REM
REM
REM
REM ./C.cell (11c1c37f851c82e70ff6c80c92926a4b)
REM
REM compiler GCC version 9.2.1 20190827 (Red Hat 9.2.1-1)
REM options -cpp -mtune=generic -march=x86-64 -g -O0 -fpre-include=/usr/include/finclude/math-vector-fortran.h
REM seed 1710570664 1446856895 -1572348318 -785111059 -375119264 1748131652 -723534939 1052543887 -348859825 1624423135 -413555212 -1386632461 -1749792662 912671925 -327873269 733327725 -373623149 -1001617911 -1817704808 -1380563409 -502286990 2005661545 1562645335 -1182055512 -1359980478 -1627801885 1284418320 1184511212 2142204053 -1702760168 -1345730605 287127484 1097084756
REM
CELL 1.54180   50.00000   50.00000   50.00000   90.00000   90.00000   90.00000
LATT -1
SFAC C  
C      1  0.5511540000000  0.4826460000000  0.3982920000000 1.0
C      1  0.4491810000000  0.5627170000000  0.5714950000000 1.0
C      1  0.5434550000000  0.4717220000000  0.4543750000000 1.0
C      1  0.6095210000000  0.4951290000000  0.5322120000000 1.0
C      1  0.6067680000000  0.5167470000000  0.4935970000000 1.0
C      1  0.4359340000000  0.5903580000000  0.5101200000000 1.0
C      1  0.4086180000000  0.4492150000000  0.5280070000000 1.0
C      1  0.5398410000000  0.5690140000000  0.4369090000000 1.0
C      1  0.5461750000000  0.3990100000000  0.4892270000000 1.0
C      1  0.4759690000000  0.4323510000000  0.4336360000000 1.0
C      1  0.4653850000000  0.5552600000000  0.4085660000000 1.0
C      1  0.4442900000000  0.4856030000000  0.5336600000000 1.0
C      1  0.3902100000000  0.4985800000000  0.4977080000000 1.0
C      1  0.4147560000000  0.5293810000000  0.5579290000000 1.0
C      1  0.4879830000000  0.5074350000000  0.4238750000000 1.0
C      1  0.4569080000000  0.6015380000000  0.4692290000000 1.0
C      1  0.5427510000000  0.4052040000000  0.4610470000000 1.0
C      1  0.4308920000000  0.4720570000000  0.5803770000000 1.0
C      1  0.5122890000000  0.4336340000000  0.4770330000000 1.0
C      1  0.4813250000000  0.4819180000000  0.5773740000000 1.0
C      1  0.4266360000000  0.4310570000000  0.4860010000000 1.0
C      1  0.5205680000000  0.5889130000000  0.5677780000000 1.0
C      1  0.5159920000000  0.5029450000000  0.4198150000000 1.0
C      1  0.5538670000000  0.5455540000000  0.5744030000000 1.0
C      1  0.5934890000000  0.4614540000000  0.4665750000000 1.0
C      1  0.5115290000000  0.3943480000000  0.5318850000000 1.0
C      1  0.4911480000000  0.4952600000000  0.5224890000000 1.0
C      1  0.5343860000000  0.5526310000000  0.4646040000000 1.0
C      1  0.5764480000000  0.4651700000000  0.5757380000000 1.0
C      1  0.5180390000000  0.6284500000000  0.5075270000000 1.0
C      1  0.4996340000000  0.4873140000000  0.4730510000000 1.0
C      1  0.5201270000000  0.5697640000000  0.5111870000000 1.0
C      1  0.4545850000000  0.5292160000000  0.4002900000000 1.0
C      1  0.4024130000000  0.4482840000000  0.4994490000000 1.0
C      1  0.5641120000000  0.4605670000000  0.4709010000000 1.0
C      1  0.4332080000000  0.4399130000000  0.4349320000000 1.0
C      1  0.5713670000000  0.4357270000000  0.5174600000000 1.0
C      1  0.4715790000000  0.5768660000000  0.5834230000000 1.0
C      1  0.4366400000000  0.4842780000000  0.4204870000000 1.0
C      1  0.5015670000000  0.5974130000000  0.4413410000000 1.0
C      1  0.4722620000000  0.3888640000000  0.4813540000000 1.0
C      1  0.5795510000000  0.4965520000000  0.5331180000000 1.0
C      1  0.4376490000000  0.4610030000000  0.5207180000000 1.0
C      1  0.4659080000000  0.4381910000000  0.6040300000000 1.0
C      1  0.4794600000000  0.4641080000000  0.5552860000000 1.0
C      1  0.4174930000000  0.4643620000000  0.4350890000000 1.0
C      1  0.4738980000000  0.4578740000000  0.4470600000000 1.0
C      1  0.4837560000000  0.3854250000000  0.5299930000000 1.0
C      1  0.4902850000000  0.5911510000000  0.5648640000000 1.0
C      1  0.5523770000000  0.4469600000000  0.5385740000000 1.0
C      1  0.5124310000000  0.4460930000000  0.5984270000000 1.0
C      1  0.5121600000000  0.4034370000000  0.4602810000000 1.0
C      1  0.4476030000000  0.5146490000000  0.4830650000000 1.0
C      1  0.4191730000000  0.5070220000000  0.4548020000000 1.0
C      1  0.5162680000000  0.4980060000000  0.5444360000000 1.0
C      1  0.4520290000000  0.5701200000000  0.4283060000000 1.0
C      1  0.5421950000000  0.5295930000000  0.5239040000000 1.0
C      1  0.5209870000000  0.3908780000000  0.5041560000000 1.0
C      1  0.4709390000000  0.4852000000000  0.5384030000000 1.0
C      1  0.5441960000000  0.4291520000000  0.5594160000000 1.0
C      1  0.5243280000000  0.4413500000000  0.4204350000000 1.0
C      1  0.5983390000000  0.4876100000000  0.4514000000000 1.0
C      1  0.5094950000000  0.5274580000000  0.5479350000000 1.0
C      1  0.5032220000000  0.4268620000000  0.5732370000000 1.0
C      1  0.5102530000000  0.6156480000000  0.5342660000000 1.0
C      1  0.5866250000000  0.4291200000000  0.4588590000000 1.0
C      1  0.5999980000000  0.5138280000000  0.4648140000000 1.0
C      1  0.5123270000000  0.5297710000000  0.4581920000000 1.0
C      1  0.5119200000000  0.5592790000000  0.5963990000000 1.0
C      1  0.5045710000000  0.5262590000000  0.4903410000000 1.0
C      1  0.4161200000000  0.5768760000000  0.5260430000000 1.0
C      1  0.4419290000000  0.4620800000000  0.4911130000000 1.0
C      1  0.4668390000000  0.5946990000000  0.5140070000000 1.0
C      1  0.5329530000000  0.5248040000000  0.4014960000000 1.0
C      1  0.5288960000000  0.5186920000000  0.5027640000000 1.0
C      1  0.4703240000000  0.4595350000000  0.4910180000000 1.0
C      1  0.4602380000000  0.3957950000000  0.5080390000000 1.0
C      1  0.4298630000000  0.5576690000000  0.4428370000000 1.0
C      1  0.4384760000000  0.4894050000000  0.4715590000000 1.0
C      1  0.5755650000000  0.5554800000000  0.4853690000000 1.0
C      1  0.4866020000000  0.5337650000000  0.5641550000000 1.0
C      1  0.3888060000000  0.5206120000000  0.4795260000000 1.0
C      1  0.4707640000000  0.5907880000000  0.4443190000000 1.0
C      1  0.4557330000000  0.4380080000000  0.4133610000000 1.0
C      1  0.5672470000000  0.4647560000000  0.4139610000000 1.0
C      1  0.5203600000000  0.5722480000000  0.4823940000000 1.0
C      1  0.5435920000000  0.6207790000000  0.4982820000000 1.0
C      1  0.4747380000000  0.4552820000000  0.3993520000000 1.0
C      1  0.3985160000000  0.5573250000000  0.5124530000000 1.0
C      1  0.4663040000000  0.5492960000000  0.5513910000000 1.0
C      1  0.5810910000000  0.5158160000000  0.5862270000000 1.0
C      1  0.4702080000000  0.5656370000000  0.5045520000000 1.0
C      1  0.5176080000000  0.5447810000000  0.3891780000000 1.0
C      1  0.5275040000000  0.4431490000000  0.4999930000000 1.0
C      1  0.4719680000000  0.5052110000000  0.3998210000000 1.0
C      1  0.5347700000000  0.5672820000000  0.5834140000000 1.0
C      1  0.4193520000000  0.5645930000000  0.4690860000000 1.0
C      1  0.4582800000000  0.4785220000000  0.3995420000000 1.0
C      1  0.4187850000000  0.4201910000000  0.5314690000000 1.0
C      1  0.6046550000000  0.5243140000000  0.5692960000000 1.0
C      1  0.5183670000000  0.5987890000000  0.4669550000000 1.0
C      1  0.4652240000000  0.5270580000000  0.4674010000000 1.0
C      1  0.4369570000000  0.4228850000000  0.4581680000000 1.0
C      1  0.4603520000000  0.5485050000000  0.5228030000000 1.0
C      1  0.5519920000000  0.4483680000000  0.5834950000000 1.0
C      1  0.4338990000000  0.5877020000000  0.4814220000000 1.0
C      1  0.5705190000000  0.5773800000000  0.5085100000000 1.0
C      1  0.5077760000000  0.4931620000000  0.5720020000000 1.0
C      1  0.4825050000000  0.5643480000000  0.4556740000000 1.0
C      1  0.5594830000000  0.5114170000000  0.4016120000000 1.0
C      1  0.4847220000000  0.6034800000000  0.5395370000000 1.0
C      1  0.4598760000000  0.4034880000000  0.4588700000000 1.0
C      1  0.4852800000000  0.5589240000000  0.6027160000000 1.0
C      1  0.4898900000000  0.4538470000000  0.6151250000000 1.0
C      1  0.5316860000000  0.4928480000000  0.4679920000000 1.0
C      1  0.5160360000000  0.5801010000000  0.4243710000000 1.0
C      1  0.5222640000000  0.4785990000000  0.3998700000000 1.0
C      1  0.4986700000000  0.4660930000000  0.4533590000000 1.0
C      1  0.5616330000000  0.4220710000000  0.4457190000000 1.0
C      1  0.3965760000000  0.4728280000000  0.4542880000000 1.0
C      1  0.5003890000000  0.4463740000000  0.5464700000000 1.0
C      1  0.4974550000000  0.5571490000000  0.4114680000000 1.0
C      1  0.4412950000000  0.4228820000000  0.5508140000000 1.0
C      1  0.3941240000000  0.4710220000000  0.4843540000000 1.0
C      1  0.4778850000000  0.5044520000000  0.4515960000000 1.0
C      1  0.4039950000000  0.5080930000000  0.5223400000000 1.0
C      1  0.6081070000000  0.4635600000000  0.4932900000000 1.0
C      1  0.4843560000000  0.5177060000000  0.5071040000000 1.0
C      1  0.5524680000000  0.6005210000000  0.4633760000000 1.0
C      1  0.4015190000000  0.5472190000000  0.4849430000000 1.0
C      1  0.4569750000000  0.4381430000000  0.5318590000000 1.0
C      1  0.5659480000000  0.5226140000000  0.5369980000000 1.0
C      1  0.5704050000000  0.4091440000000  0.5020030000000 1.0
C      1  0.4754450000000  0.3915950000000  0.5546350000000 1.0
C      1  0.4958760000000  0.5458280000000  0.4394110000000 1.0
C      1  0.5441850000000  0.5814450000000  0.5236230000000 1.0
C      1  0.4330660000000  0.5145030000000  0.4133710000000 1.0
C      1  0.4545260000000  0.4918170000000  0.5850100000000 1.0
C      1  0.5534720000000  0.4403380000000  0.4226820000000 1.0
C      1  0.4847860000000  0.4070130000000  0.4448330000000 1.0
C      1  0.4097610000000  0.4726500000000  0.5565380000000 1.0
C      1  0.5329230000000  0.4656430000000  0.5965050000000 1.0
C      1  0.4075180000000  0.5512280000000  0.5397540000000 1.0
C      1  0.5518100000000  0.5198050000000  0.5877020000000 1.0
C      1  0.5335170000000  0.5998370000000  0.5442760000000 1.0
C      1  0.4349770000000  0.5375730000000  0.5781980000000 1.0
C      1  0.5015110000000  0.3868560000000  0.4828750000000 1.0
C      1  0.5442360000000  0.4772500000000  0.5367990000000 1.0
C      1  0.6142020000000  0.5220300000000  0.5410180000000 1.0
C      1  0.5849310000000  0.4868830000000  0.4261350000000 1.0
C      1  0.5797360000000  0.5156270000000  0.4221840000000 1.0
C      1  0.5827030000000  0.5593130000000  0.4566720000000 1.0
C      1  0.4719810000000  0.4238240000000  0.5119020000000 1.0
C      1  0.5881320000000  0.5324480000000  0.4455800000000 1.0
C      1  0.5866220000000  0.5575670000000  0.5260660000000 1.0
C      1  0.4331470000000  0.5093170000000  0.5253440000000 1.0
C      1  0.5280750000000  0.5081490000000  0.4453480000000 1.0
C      1  0.4937360000000  0.4816360000000  0.6171710000000 1.0
C      1  0.4569190000000  0.4820760000000  0.4475060000000 1.0
C      1  0.5024820000000  0.6187870000000  0.4849710000000 1.0
C      1  0.3905580000000  0.5024330000000  0.4553350000000 1.0
C      1  0.5999680000000  0.4390080000000  0.5054650000000 1.0
C      1  0.5031230000000  0.5067020000000  0.6109650000000 1.0
C      1  0.5487660000000  0.5066010000000  0.4889040000000 1.0
C      1  0.4446430000000  0.4523020000000  0.5921760000000 1.0
C      1  0.5062240000000  0.4550080000000  0.4018330000000 1.0
C      1  0.4543120000000  0.5227810000000  0.5097240000000 1.0
C      1  0.5644980000000  0.5809180000000  0.4456100000000 1.0
C      1  0.4766890000000  0.4174850000000  0.5864900000000 1.0
C      1  0.5214570000000  0.5478530000000  0.5317140000000 1.0
C      1  0.5214490000000  0.4107510000000  0.5560260000000 1.0
C      1  0.5926060000000  0.4183940000000  0.4852640000000 1.0
C      1  0.4534650000000  0.5198270000000  0.5918900000000 1.0
C      1  0.5550790000000  0.4574660000000  0.4974140000000 1.0
C      1  0.5560280000000  0.5356760000000  0.4787940000000 1.0
C      1  0.4746700000000  0.6116540000000  0.4891370000000 1.0
C      1  0.5663710000000  0.4832290000000  0.5549680000000 1.0
C      1  0.6142730000000  0.4902890000000  0.5041650000000 1.0
C      1  0.4828270000000  0.5285510000000  0.5956060000000 1.0
C      1  0.4933670000000  0.4745740000000  0.5009870000000 1.0
C      1  0.5571930000000  0.4848360000000  0.5100780000000 1.0
C      1  0.4319540000000  0.4109500000000  0.5073180000000 1.0
C      1  0.5641790000000  0.6041630000000  0.4894600000000 1.0
C      1  0.5743310000000  0.5463720000000  0.5512280000000 1.0
C      1  0.4237160000000  0.5292740000000  0.4361820000000 1.0
C      1  0.5223380000000  0.4520480000000  0.4494600000000 1.0
C      1  0.6046710000000  0.5363140000000  0.5164110000000 1.0
C      1  0.4022450000000  0.5022490000000  0.5511600000000 1.0
C      1  0.4724960000000  0.5525140000000  0.4791700000000 1.0
C      1  0.5276560000000  0.4981300000000  0.5946870000000 1.0
C      1  0.4845810000000  0.4353580000000  0.4888730000000 1.0
C      1  0.4561330000000  0.4046700000000  0.5698760000000 1.0
C      1  0.5087110000000  0.4519500000000  0.5198410000000 1.0
END
