TITL C-884135-4325-291 -8.49508166088203 125000 -17099.7377595506 0 0 113 (C1) n - 1
REM
REM in /home/nfs/bkarasulu/CARBON/AIRSS/Generating-Clusters/ReaxFF-fromJPCA2015/Units_Real/with-SteepDescent/Only-C1/SD-CG/Try1-3A/FIRE-CG
REM
REM
REM
REM
REM
REM ./C.cell (11c1c37f851c82e70ff6c80c92926a4b)
REM
REM compiler GCC version 9.2.1 20190827 (Red Hat 9.2.1-1)
REM options -cpp -mtune=generic -march=x86-64 -g -O0 -fpre-include=/usr/include/finclude/math-vector-fortran.h
REM seed -1541282455 -1850107679 -1298908576 1189698957 -1941135389 -2051975753 1899405340 -663336885 -672749414 -1218680699 -463031540 -503423366 -1434403620 -32898759 1180437835 -1333811116 -318792216 -1029512532 111742495 -1384963819 -1254117709 742224905 810490626 141316460 1272839395 1231865199 -1988395015 -1190648138 -1686372586 478039897 1167856272 -2019600849 594204051
REM
CELL 1.54180   50.00000   50.00000   50.00000   90.00000   90.00000   90.00000
LATT -1
SFAC C  
C      1  0.4844550000000  0.5855420000000  0.5523520000000 1.0
C      1  0.5103820000000  0.5813410000000  0.5600830000000 1.0
C      1  0.4982050000000  0.4644500000000  0.5375830000000 1.0
C      1  0.4572590000000  0.5226090000000  0.4701460000000 1.0
C      1  0.5333800000000  0.5007780000000  0.4640450000000 1.0
C      1  0.4789560000000  0.4668810000000  0.5163040000000 1.0
C      1  0.4946060000000  0.5747060000000  0.4557770000000 1.0
C      1  0.5912440000000  0.4838480000000  0.4739770000000 1.0
C      1  0.5009500000000  0.4751220000000  0.4191320000000 1.0
C      1  0.5029030000000  0.4418110000000  0.5605740000000 1.0
C      1  0.4453770000000  0.5084520000000  0.5682970000000 1.0
C      1  0.4889720000000  0.5411720000000  0.5797970000000 1.0
C      1  0.5021780000000  0.5055550000000  0.4119860000000 1.0
C      1  0.4828940000000  0.4268000000000  0.4530180000000 1.0
C      1  0.5606360000000  0.4999090000000  0.4321840000000 1.0
C      1  0.4368400000000  0.5413410000000  0.4636420000000 1.0
C      1  0.5133300000000  0.5582590000000  0.5776780000000 1.0
C      1  0.5162670000000  0.4381180000000  0.5022540000000 1.0
C      1  0.4759110000000  0.5152150000000  0.4094120000000 1.0
C      1  0.4465540000000  0.5805400000000  0.5190500000000 1.0
C      1  0.4776360000000  0.4706040000000  0.4357450000000 1.0
C      1  0.4568900000000  0.4915360000000  0.4788630000000 1.0
C      1  0.4112370000000  0.5115420000000  0.4364180000000 1.0
C      1  0.4741190000000  0.4296650000000  0.4810360000000 1.0
C      1  0.5586060000000  0.5684360000000  0.4962390000000 1.0
C      1  0.4978970000000  0.4026890000000  0.5327210000000 1.0
C      1  0.5184080000000  0.4531390000000  0.4237870000000 1.0
C      1  0.5013250000000  0.5229860000000  0.5382610000000 1.0
C      1  0.4682520000000  0.5805350000000  0.4667600000000 1.0
C      1  0.4860910000000  0.5701470000000  0.5084950000000 1.0
C      1  0.5789650000000  0.5432190000000  0.4622050000000 1.0
C      1  0.4499900000000  0.5646710000000  0.4497110000000 1.0
C      1  0.5405920000000  0.4812860000000  0.5103180000000 1.0
C      1  0.5715320000000  0.4790060000000  0.5202710000000 1.0
C      1  0.4809810000000  0.4827630000000  0.4619790000000 1.0
C      1  0.5372660000000  0.4552140000000  0.4972630000000 1.0
C      1  0.6050030000000  0.5096120000000  0.4792280000000 1.0
C      1  0.4335090000000  0.4894760000000  0.5204040000000 1.0
C      1  0.4706980000000  0.4062870000000  0.5364500000000 1.0
C      1  0.5429530000000  0.4192290000000  0.5380210000000 1.0
C      1  0.5769890000000  0.5216690000000  0.5496730000000 1.0
C      1  0.5384630000000  0.5224620000000  0.4418610000000 1.0
C      1  0.4652160000000  0.5863540000000  0.4964120000000 1.0
C      1  0.4259830000000  0.4614400000000  0.5217990000000 1.0
C      1  0.4900850000000  0.4475610000000  0.4972850000000 1.0
C      1  0.4687300000000  0.5455840000000  0.5113250000000 1.0
C      1  0.5195870000000  0.4152490000000  0.5187250000000 1.0
C      1  0.5596610000000  0.4750130000000  0.5612450000000 1.0
C      1  0.5400300000000  0.5057770000000  0.4917070000000 1.0
C      1  0.5576240000000  0.5311140000000  0.5701180000000 1.0
C      1  0.5649010000000  0.4427040000000  0.4915070000000 1.0
C      1  0.4529490000000  0.5309270000000  0.4110680000000 1.0
C      1  0.5173070000000  0.5135260000000  0.5950510000000 1.0
C      1  0.5652150000000  0.4539070000000  0.4411800000000 1.0
C      1  0.5403670000000  0.4594570000000  0.5750260000000 1.0
C      1  0.5540770000000  0.4852750000000  0.4070630000000 1.0
C      1  0.5175490000000  0.5039110000000  0.5537760000000 1.0
C      1  0.4535170000000  0.5281290000000  0.5517660000000 1.0
C      1  0.5350280000000  0.4187170000000  0.4543000000000 1.0
C      1  0.4643390000000  0.5530350000000  0.4273830000000 1.0
C      1  0.5409680000000  0.5543940000000  0.5677810000000 1.0
C      1  0.5314470000000  0.5639280000000  0.5397520000000 1.0
C      1  0.4198050000000  0.4862130000000  0.4271280000000 1.0
C      1  0.4897810000000  0.4831650000000  0.5877790000000 1.0
C      1  0.5595440000000  0.4333000000000  0.4605870000000 1.0
C      1  0.4488360000000  0.4280270000000  0.4961340000000 1.0
C      1  0.5594610000000  0.4262220000000  0.5162140000000 1.0
C      1  0.4828180000000  0.5345970000000  0.4678190000000 1.0
C      1  0.5840670000000  0.4675460000000  0.4973260000000 1.0
C      1  0.4024980000000  0.5223580000000  0.4884100000000 1.0
C      1  0.4895670000000  0.5140470000000  0.5932100000000 1.0
C      1  0.4600670000000  0.5763300000000  0.5470940000000 1.0
C      1  0.4919730000000  0.5478170000000  0.4397090000000 1.0
C      1  0.5099990000000  0.4636320000000  0.5825090000000 1.0
C      1  0.4650880000000  0.5516110000000  0.5646500000000 1.0
C      1  0.5327430000000  0.4350340000000  0.5615850000000 1.0
C      1  0.5468430000000  0.4580220000000  0.4184290000000 1.0
C      1  0.5251020000000  0.5286760000000  0.4996250000000 1.0
C      1  0.5382620000000  0.5764640000000  0.5144670000000 1.0
C      1  0.4507420000000  0.4221380000000  0.5242030000000 1.0
C      1  0.5199960000000  0.5403130000000  0.5253840000000 1.0
C      1  0.4504610000000  0.4532990000000  0.5653580000000 1.0
C      1  0.4730510000000  0.5202710000000  0.5275180000000 1.0
C      1  0.4621730000000  0.4918740000000  0.5119450000000 1.0
C      1  0.5794320000000  0.5364780000000  0.5272200000000 1.0
C      1  0.4125930000000  0.5088680000000  0.5130890000000 1.0
C      1  0.4611590000000  0.4688940000000  0.5859460000000 1.0
C      1  0.4387350000000  0.4429890000000  0.5416820000000 1.0
C      1  0.5099800000000  0.4309490000000  0.4424970000000 1.0
C      1  0.5466070000000  0.5693020000000  0.4694190000000 1.0
C      1  0.4333620000000  0.4727600000000  0.4754680000000 1.0
C      1  0.5054950000000  0.4947720000000  0.4704460000000 1.0
C      1  0.5376450000000  0.5104920000000  0.5761610000000 1.0
C      1  0.5775730000000  0.4901560000000  0.5467330000000 1.0
C      1  0.4218750000000  0.4665430000000  0.4490710000000 1.0
C      1  0.5129310000000  0.5277390000000  0.4273820000000 1.0
C      1  0.5207300000000  0.4819770000000  0.5347980000000 1.0
C      1  0.4402870000000  0.5530830000000  0.5113580000000 1.0
C      1  0.4110050000000  0.5274070000000  0.4609620000000 1.0
C      1  0.5019300000000  0.5202730000000  0.4843780000000 1.0
C      1  0.5184990000000  0.5792300000000  0.4716070000000 1.0
C      1  0.4418550000000  0.4891860000000  0.5810040000000 1.0
C      1  0.4370620000000  0.5087680000000  0.4237180000000 1.0
C      1  0.4404360000000  0.4515800000000  0.4341210000000 1.0
C      1  0.5135330000000  0.5785530000000  0.5000130000000 1.0
C      1  0.4887510000000  0.4152920000000  0.5558250000000 1.0
C      1  0.4148720000000  0.5377140000000  0.5103260000000 1.0
C      1  0.5986850000000  0.5383780000000  0.4809110000000 1.0
C      1  0.5549810000000  0.5487860000000  0.4503200000000 1.0
C      1  0.5819040000000  0.5514630000000  0.5045030000000 1.0
C      1  0.5751270000000  0.4801290000000  0.4487050000000 1.0
C      1  0.4663770000000  0.4414860000000  0.4331490000000 1.0
C      1  0.4304210000000  0.4511660000000  0.4948420000000 1.0
END
