TITL C-884136-4169-323 80.2065671089774 125000 -25872.2986642103 0 0 175 (C1) n - 1
REM
REM in /home/nfs/bkarasulu/CARBON/AIRSS/Generating-Clusters/ReaxFF-fromJPCA2015/Units_Real/with-SteepDescent/Only-C1/SD-CG/Try1-3A/FIRE-CG
REM
REM
REM
REM
REM
REM ./C.cell (11c1c37f851c82e70ff6c80c92926a4b)
REM
REM compiler GCC version 9.2.1 20190827 (Red Hat 9.2.1-1)
REM options -cpp -mtune=generic -march=x86-64 -g -O0 -fpre-include=/usr/include/finclude/math-vector-fortran.h
REM seed -1142118101 -1448770888 528882033 1778627725 -871403315 -2070291025 -976124393 -507026541 -856833871 1801746497 413538161 9951922 -1540634235 186586254 1858982375 -1983245350 -1002139940 103872424 -463972922 1239056705 295012082 344920117 -132792322 803249638 85876015 -134156364 -1961706528 1246965054 -1755488593 1157037489 304898965 -1676305787 757707615
REM
CELL 1.54180   50.00000   50.00000   50.00000   90.00000   90.00000   90.00000
LATT -1
SFAC C  
C      1  0.3997600000000  0.5485780000000  0.4834410000000 1.0
C      1  0.4286620000000  0.4431240000000  0.4336930000000 1.0
C      1  0.5845960000000  0.4392620000000  0.4393640000000 1.0
C      1  0.5592290000000  0.4539600000000  0.5778930000000 1.0
C      1  0.5560230000000  0.4293630000000  0.4393220000000 1.0
C      1  0.5330240000000  0.5814550000000  0.5525210000000 1.0
C      1  0.5045750000000  0.4751470000000  0.4672810000000 1.0
C      1  0.5105280000000  0.5971220000000  0.5409020000000 1.0
C      1  0.5090700000000  0.5602290000000  0.4672170000000 1.0
C      1  0.5706490000000  0.4801470000000  0.5848060000000 1.0
C      1  0.5438870000000  0.4713720000000  0.4537860000000 1.0
C      1  0.4771360000000  0.4596120000000  0.5686270000000 1.0
C      1  0.5260880000000  0.5585580000000  0.5982680000000 1.0
C      1  0.5435620000000  0.5750670000000  0.4311160000000 1.0
C      1  0.4460610000000  0.4538800000000  0.4130050000000 1.0
C      1  0.4980840000000  0.4830450000000  0.4387340000000 1.0
C      1  0.4628670000000  0.4694400000000  0.4835530000000 1.0
C      1  0.5552870000000  0.5789430000000  0.4826300000000 1.0
C      1  0.5871520000000  0.4904800000000  0.4381400000000 1.0
C      1  0.5458790000000  0.5893270000000  0.5081400000000 1.0
C      1  0.5439830000000  0.5667530000000  0.5750780000000 1.0
C      1  0.5771880000000  0.4171930000000  0.4571080000000 1.0
C      1  0.4692180000000  0.5529080000000  0.6027200000000 1.0
C      1  0.4625910000000  0.4096970000000  0.5390220000000 1.0
C      1  0.5151130000000  0.5456760000000  0.4151910000000 1.0
C      1  0.5169070000000  0.3891390000000  0.4891660000000 1.0
C      1  0.4258370000000  0.5043920000000  0.4062770000000 1.0
C      1  0.4724160000000  0.5322920000000  0.4033870000000 1.0
C      1  0.5715760000000  0.5591050000000  0.5674050000000 1.0
C      1  0.4625220000000  0.4838940000000  0.3877640000000 1.0
C      1  0.5768420000000  0.4807820000000  0.5225250000000 1.0
C      1  0.4049160000000  0.5259990000000  0.5585640000000 1.0
C      1  0.5237020000000  0.4531350000000  0.4112770000000 1.0
C      1  0.4581690000000  0.5960700000000  0.4633720000000 1.0
C      1  0.4532270000000  0.4207540000000  0.5144770000000 1.0
C      1  0.5936010000000  0.5385330000000  0.5660410000000 1.0
C      1  0.4066210000000  0.5231840000000  0.4735360000000 1.0
C      1  0.5162420000000  0.5358730000000  0.4460980000000 1.0
C      1  0.5568260000000  0.5273320000000  0.4806110000000 1.0
C      1  0.5271780000000  0.4382120000000  0.4975130000000 1.0
C      1  0.4278200000000  0.4962920000000  0.5073980000000 1.0
C      1  0.4668190000000  0.4585690000000  0.5964840000000 1.0
C      1  0.4959590000000  0.5636890000000  0.5945420000000 1.0
C      1  0.5952750000000  0.5172940000000  0.4480190000000 1.0
C      1  0.5032490000000  0.4877400000000  0.6158480000000 1.0
C      1  0.4200120000000  0.5472200000000  0.5198240000000 1.0
C      1  0.4756200000000  0.4892250000000  0.6065680000000 1.0
C      1  0.5610770000000  0.4342980000000  0.5550190000000 1.0
C      1  0.4770210000000  0.4232350000000  0.4679420000000 1.0
C      1  0.4675300000000  0.5610980000000  0.4994100000000 1.0
C      1  0.4848370000000  0.5141220000000  0.5650290000000 1.0
C      1  0.4603450000000  0.4467870000000  0.4662510000000 1.0
C      1  0.4000170000000  0.4998250000000  0.4208140000000 1.0
C      1  0.4678500000000  0.5119390000000  0.5904070000000 1.0
C      1  0.4888080000000  0.5808370000000  0.4245830000000 1.0
C      1  0.5479380000000  0.4732610000000  0.5176600000000 1.0
C      1  0.4375720000000  0.4315920000000  0.4597050000000 1.0
C      1  0.6042530000000  0.5247630000000  0.4733690000000 1.0
C      1  0.5307940000000  0.4603210000000  0.5755910000000 1.0
C      1  0.5805790000000  0.4135490000000  0.4871860000000 1.0
C      1  0.5409840000000  0.5861010000000  0.4581150000000 1.0
C      1  0.4770730000000  0.5892600000000  0.5001420000000 1.0
C      1  0.5286360000000  0.4891100000000  0.4726260000000 1.0
C      1  0.5901830000000  0.5570370000000  0.5442870000000 1.0
C      1  0.5580560000000  0.4873230000000  0.4337390000000 1.0
C      1  0.3924520000000  0.5432060000000  0.5116700000000 1.0
C      1  0.5210480000000  0.4766150000000  0.5286240000000 1.0
C      1  0.4091990000000  0.4467500000000  0.5018130000000 1.0
C      1  0.6049030000000  0.5360170000000  0.4966350000000 1.0
C      1  0.5021970000000  0.4605140000000  0.6183380000000 1.0
C      1  0.4718360000000  0.5268990000000  0.5432900000000 1.0
C      1  0.5371590000000  0.5091400000000  0.4914000000000 1.0
C      1  0.5935690000000  0.4658750000000  0.5440250000000 1.0
C      1  0.5849750000000  0.4386130000000  0.5374840000000 1.0
C      1  0.5089410000000  0.5451510000000  0.5139990000000 1.0
C      1  0.4908720000000  0.5216060000000  0.4533460000000 1.0
C      1  0.5140430000000  0.3917890000000  0.4587190000000 1.0
C      1  0.4944730000000  0.5124970000000  0.3996070000000 1.0
C      1  0.5072330000000  0.4268710000000  0.5386180000000 1.0
C      1  0.5363250000000  0.4761220000000  0.4014130000000 1.0
C      1  0.5250940000000  0.4809580000000  0.5566650000000 1.0
C      1  0.4340390000000  0.4434350000000  0.5184510000000 1.0
C      1  0.4317840000000  0.5209250000000  0.5210880000000 1.0
C      1  0.4408020000000  0.4951320000000  0.5627380000000 1.0
C      1  0.5297910000000  0.4422130000000  0.4390090000000 1.0
C      1  0.5680500000000  0.5532720000000  0.4930990000000 1.0
C      1  0.4391050000000  0.5552740000000  0.4559690000000 1.0
C      1  0.5321810000000  0.4097280000000  0.4992480000000 1.0
C      1  0.5471790000000  0.5703750000000  0.5297360000000 1.0
C      1  0.5253510000000  0.4306010000000  0.5781030000000 1.0
C      1  0.4441900000000  0.5271650000000  0.4107450000000 1.0
C      1  0.4866980000000  0.5137360000000  0.5040500000000 1.0
C      1  0.4476670000000  0.5167030000000  0.5444630000000 1.0
C      1  0.4298180000000  0.5724620000000  0.5315610000000 1.0
C      1  0.3947020000000  0.4691340000000  0.5123400000000 1.0
C      1  0.5124910000000  0.5017580000000  0.4207150000000 1.0
C      1  0.3893420000000  0.4933030000000  0.5218620000000 1.0
C      1  0.4561150000000  0.4710470000000  0.5526780000000 1.0
C      1  0.5249220000000  0.3761320000000  0.4416390000000 1.0
C      1  0.5560700000000  0.4013000000000  0.4887190000000 1.0
C      1  0.5482230000000  0.4554640000000  0.4969210000000 1.0
C      1  0.5286450000000  0.5254270000000  0.5147480000000 1.0
C      1  0.5707740000000  0.5270600000000  0.3824860000000 1.0
C      1  0.4448230000000  0.4208190000000  0.5615160000000 1.0
C      1  0.5090080000000  0.5530360000000  0.4895370000000 1.0
C      1  0.4375950000000  0.4777880000000  0.3969090000000 1.0
C      1  0.4378270000000  0.5933830000000  0.5129420000000 1.0
C      1  0.5561010000000  0.5213530000000  0.5431370000000 1.0
C      1  0.4742200000000  0.4438030000000  0.4087170000000 1.0
C      1  0.4160340000000  0.5031360000000  0.5687190000000 1.0
C      1  0.5201370000000  0.6027890000000  0.5140040000000 1.0
C      1  0.4317630000000  0.4465480000000  0.5530600000000 1.0
C      1  0.4977130000000  0.4241520000000  0.5856800000000 1.0
C      1  0.4881790000000  0.4348230000000  0.5606750000000 1.0
C      1  0.5417960000000  0.4992620000000  0.4133030000000 1.0
C      1  0.4980020000000  0.5548350000000  0.5666160000000 1.0
C      1  0.5352220000000  0.4217920000000  0.5523850000000 1.0
C      1  0.5059600000000  0.4515510000000  0.5125240000000 1.0
C      1  0.4708600000000  0.5594960000000  0.4164540000000 1.0
C      1  0.4471830000000  0.4724020000000  0.5094350000000 1.0
C      1  0.5030030000000  0.4213230000000  0.4486450000000 1.0
C      1  0.4179510000000  0.5686330000000  0.4714370000000 1.0
C      1  0.4727560000000  0.5187980000000  0.4789110000000 1.0
C      1  0.4417010000000  0.4422500000000  0.5803910000000 1.0
C      1  0.5562050000000  0.5285910000000  0.4024630000000 1.0
C      1  0.5473920000000  0.5302740000000  0.4537330000000 1.0
C      1  0.5104950000000  0.5932050000000  0.4651290000000 1.0
C      1  0.5612050000000  0.5531910000000  0.4204300000000 1.0
C      1  0.5906440000000  0.5516290000000  0.5137280000000 1.0
C      1  0.5796780000000  0.5074400000000  0.5341540000000 1.0
C      1  0.4814980000000  0.5938660000000  0.5444500000000 1.0
C      1  0.5939410000000  0.4835750000000  0.5671950000000 1.0
C      1  0.4904130000000  0.4027120000000  0.5322260000000 1.0
C      1  0.5352020000000  0.5087670000000  0.5623380000000 1.0
C      1  0.4440980000000  0.5526480000000  0.4265510000000 1.0
C      1  0.4718310000000  0.4107500000000  0.4932660000000 1.0
C      1  0.4435720000000  0.5632220000000  0.5558420000000 1.0
C      1  0.4908420000000  0.4625340000000  0.4884750000000 1.0
C      1  0.4566430000000  0.4961560000000  0.4658620000000 1.0
C      1  0.5170410000000  0.5749690000000  0.4163750000000 1.0
C      1  0.4923640000000  0.4905260000000  0.5198870000000 1.0
C      1  0.5026560000000  0.6002120000000  0.4917760000000 1.0
C      1  0.4583960000000  0.5472310000000  0.4772070000000 1.0
C      1  0.5611700000000  0.4631180000000  0.4743070000000 1.0
C      1  0.3903190000000  0.5208040000000  0.5309460000000 1.0
C      1  0.5282340000000  0.5319000000000  0.6063450000000 1.0
C      1  0.5972630000000  0.5108350000000  0.5564860000000 1.0
C      1  0.4360130000000  0.5897860000000  0.4819560000000 1.0
C      1  0.4120630000000  0.4983720000000  0.4836250000000 1.0
C      1  0.5304500000000  0.5049950000000  0.6104900000000 1.0
C      1  0.4925630000000  0.3932650000000  0.5047050000000 1.0
C      1  0.5899360000000  0.4341420000000  0.5084760000000 1.0
C      1  0.4726690000000  0.5698000000000  0.5576300000000 1.0
C      1  0.4868420000000  0.4391310000000  0.6086350000000 1.0
C      1  0.5891660000000  0.4700160000000  0.4754030000000 1.0
C      1  0.5486980000000  0.5411890000000  0.5251280000000 1.0
C      1  0.5970710000000  0.4646240000000  0.4472680000000 1.0
C      1  0.4749070000000  0.4999500000000  0.4428620000000 1.0
C      1  0.4898600000000  0.4859870000000  0.3857610000000 1.0
C      1  0.5958370000000  0.4611480000000  0.5026460000000 1.0
C      1  0.4033620000000  0.4852470000000  0.4466420000000 1.0
C      1  0.4127940000000  0.4412260000000  0.4729690000000 1.0
C      1  0.4060130000000  0.4555420000000  0.4482390000000 1.0
C      1  0.4682760000000  0.4769030000000  0.5272010000000 1.0
C      1  0.5502280000000  0.5008780000000  0.5894250000000 1.0
C      1  0.5096380000000  0.5279360000000  0.5631410000000 1.0
C      1  0.4860000000000  0.4214040000000  0.4242110000000 1.0
C      1  0.5729430000000  0.5379940000000  0.4421780000000 1.0
C      1  0.4635600000000  0.6029040000000  0.5222460000000 1.0
C      1  0.4835030000000  0.5952640000000  0.4493730000000 1.0
C      1  0.4976870000000  0.4595360000000  0.3988840000000 1.0
C      1  0.4290630000000  0.5418130000000  0.5700630000000 1.0
C      1  0.4252100000000  0.5042220000000  0.4597030000000 1.0
C      1  0.4481000000000  0.5347360000000  0.5926800000000 1.0
C      1  0.4812510000000  0.5380700000000  0.5181460000000 1.0
END
