TITL C-883732-77-349 -0.0578016407783765 125000 -1114.65957171456 0 0 9 (C1) n - 1
REM
REM in /home/nfs/bkarasulu/CARBON/AIRSS/Generating-Clusters/ReaxFF-fromJPCA2015/Units_Real/with-SteepDescent/Only-C1/SD-CG/Try1-3A/FIRE-CG
REM
REM
REM
REM
REM
REM ./C.cell (11c1c37f851c82e70ff6c80c92926a4b)
REM
REM compiler GCC version 9.2.1 20190827 (Red Hat 9.2.1-1)
REM options -cpp -mtune=generic -march=x86-64 -g -O0 -fpre-include=/usr/include/finclude/math-vector-fortran.h
REM seed -1036641397 -2050184487 -1256082517 -484012771 -894098417 1069028489 -1541549825 403902733 -1111278441 1901860873 809208002 -2018068558 1706107979 -375306115 988950274 -1336807087 -370364536 -1931102845 -1481026559 -2051944809 -1415531671 -986684405 -2117512415 -1073190344 678028677 846583388 -666380475 -1830779558 800467590 -656146914 -539386656 -1242910935 -1094034894
REM
CELL 1.54180   50.00000   50.00000   50.00000   90.00000   90.00000   90.00000
LATT -1
SFAC C  
C      1  0.5087780000000  0.5024130000000  0.4836830000000 1.0
C      1  0.5243490000000  0.4907200000000  0.5121330000000 1.0
C      1  0.5164280000000  0.4704570000000  0.5321450000000 1.0
C      1  0.5462320000000  0.4965520000000  0.5233230000000 1.0
C      1  0.4607100000000  0.5282170000000  0.4814720000000 1.0
C      1  0.5152370000000  0.5022780000000  0.4591160000000 1.0
C      1  0.4390710000000  0.5396340000000  0.4833300000000 1.0
C      1  0.5059380000000  0.4534100000000  0.5452620000000 1.0
C      1  0.4832570000000  0.5163200000000  0.4795360000000 1.0
END
