TITL C-883730-8503-72 6.63904475329923 125000 -18303.4690308243 0 0 122 (C1) n - 1
REM
REM in /home/nfs/bkarasulu/CARBON/AIRSS/Generating-Clusters/ReaxFF-fromJPCA2015/Units_Real/with-SteepDescent/Only-C1/SD-CG/Try1-3A/FIRE-CG
REM
REM
REM
REM
REM
REM ./C.cell (11c1c37f851c82e70ff6c80c92926a4b)
REM
REM compiler GCC version 9.2.1 20190827 (Red Hat 9.2.1-1)
REM options -cpp -mtune=generic -march=x86-64 -g -O0 -fpre-include=/usr/include/finclude/math-vector-fortran.h
REM seed 247316974 -82891702 -772938114 -820859001 329140758 -322267244 -1329060898 1959469765 1918293791 695640404 -1769178503 620308433 -409572746 86470529 -1577409651 -1443597038 -1344894444 1524128206 1960102526 -74192941 -1122885420 -1093891770 1035714241 -187142438 1904813956 1255160013 485223990 1977246834 1783052728 -1794442025 505888362 -751288096 1241212852
REM
CELL 1.54180   50.00000   50.00000   50.00000   90.00000   90.00000   90.00000
LATT -1
SFAC C  
C      1  0.4184120000000  0.5652110000000  0.5283150000000 1.0
C      1  0.5530230000000  0.4040590000000  0.4765220000000 1.0
C      1  0.4928230000000  0.4211860000000  0.4584900000000 1.0
C      1  0.5428240000000  0.4938150000000  0.5666120000000 1.0
C      1  0.4616980000000  0.5375140000000  0.4274740000000 1.0
C      1  0.5282290000000  0.5692070000000  0.5279920000000 1.0
C      1  0.5025670000000  0.4630850000000  0.4053060000000 1.0
C      1  0.4684480000000  0.5301400000000  0.5383390000000 1.0
C      1  0.5711570000000  0.5341420000000  0.5532050000000 1.0
C      1  0.5028080000000  0.4710900000000  0.5903980000000 1.0
C      1  0.5005650000000  0.5875550000000  0.5228340000000 1.0
C      1  0.5551210000000  0.4246370000000  0.4511470000000 1.0
C      1  0.5061760000000  0.5325680000000  0.4535410000000 1.0
C      1  0.5034150000000  0.5205390000000  0.5849400000000 1.0
C      1  0.4260650000000  0.5596160000000  0.4556680000000 1.0
C      1  0.4624080000000  0.4586350000000  0.5788990000000 1.0
C      1  0.5300860000000  0.5650340000000  0.5577780000000 1.0
C      1  0.4426500000000  0.4570760000000  0.4397710000000 1.0
C      1  0.5504640000000  0.4650110000000  0.4258620000000 1.0
C      1  0.4254290000000  0.5223480000000  0.5106960000000 1.0
C      1  0.5920940000000  0.5343920000000  0.5073620000000 1.0
C      1  0.4367410000000  0.5100540000000  0.4628570000000 1.0
C      1  0.4511320000000  0.5101640000000  0.4360160000000 1.0
C      1  0.5545710000000  0.5545700000000  0.4819320000000 1.0
C      1  0.4111360000000  0.5632680000000  0.4996500000000 1.0
C      1  0.4888230000000  0.5328790000000  0.4081510000000 1.0
C      1  0.4392780000000  0.4456050000000  0.5670700000000 1.0
C      1  0.4636780000000  0.5396630000000  0.5656350000000 1.0
C      1  0.4886560000000  0.5046060000000  0.4056300000000 1.0
C      1  0.4875130000000  0.4431780000000  0.4161230000000 1.0
C      1  0.4405690000000  0.5605530000000  0.4306420000000 1.0
C      1  0.4980480000000  0.4248180000000  0.5654110000000 1.0
C      1  0.5029520000000  0.5684300000000  0.5669560000000 1.0
C      1  0.5250960000000  0.4693760000000  0.4755970000000 1.0
C      1  0.5088570000000  0.4691800000000  0.5451570000000 1.0
C      1  0.5040810000000  0.3875030000000  0.4998300000000 1.0
C      1  0.4529630000000  0.5235520000000  0.5152890000000 1.0
C      1  0.4957030000000  0.5020840000000  0.5253710000000 1.0
C      1  0.4978320000000  0.5531430000000  0.4884280000000 1.0
C      1  0.4812650000000  0.4980650000000  0.4818070000000 1.0
C      1  0.5700440000000  0.4771140000000  0.4855780000000 1.0
C      1  0.4423060000000  0.5595340000000  0.5631690000000 1.0
C      1  0.4870490000000  0.5913180000000  0.4978740000000 1.0
C      1  0.5087020000000  0.5814720000000  0.4815770000000 1.0
C      1  0.4144250000000  0.4811480000000  0.5043030000000 1.0
C      1  0.5980790000000  0.5061380000000  0.5081470000000 1.0
C      1  0.4651290000000  0.4299570000000  0.4993400000000 1.0
C      1  0.5037550000000  0.4768250000000  0.4543290000000 1.0
C      1  0.5141810000000  0.5311360000000  0.4976190000000 1.0
C      1  0.4415490000000  0.4357580000000  0.5161650000000 1.0
C      1  0.5715200000000  0.4840410000000  0.5723310000000 1.0
C      1  0.4186010000000  0.5153450000000  0.5491970000000 1.0
C      1  0.4579990000000  0.5755800000000  0.4942000000000 1.0
C      1  0.5934280000000  0.4954340000000  0.4801050000000 1.0
C      1  0.5187350000000  0.5776470000000  0.4543180000000 1.0
C      1  0.5118390000000  0.5502100000000  0.4133840000000 1.0
C      1  0.4177770000000  0.5324360000000  0.4653970000000 1.0
C      1  0.4716340000000  0.4155880000000  0.5544540000000 1.0
C      1  0.4882680000000  0.4465120000000  0.5841210000000 1.0
C      1  0.5850720000000  0.5082830000000  0.5589680000000 1.0
C      1  0.5362230000000  0.4396360000000  0.4353300000000 1.0
C      1  0.4278020000000  0.4587620000000  0.5101530000000 1.0
C      1  0.5216840000000  0.4227390000000  0.5479210000000 1.0
C      1  0.5973720000000  0.4725010000000  0.4534670000000 1.0
C      1  0.4201730000000  0.4695100000000  0.5645570000000 1.0
C      1  0.4992340000000  0.4016640000000  0.4772370000000 1.0
C      1  0.5441320000000  0.4912270000000  0.4855360000000 1.0
C      1  0.5508550000000  0.5162320000000  0.4213200000000 1.0
C      1  0.4304710000000  0.5751470000000  0.4815620000000 1.0
C      1  0.4651650000000  0.4869690000000  0.5690140000000 1.0
C      1  0.5077500000000  0.4319560000000  0.4349500000000 1.0
C      1  0.5740860000000  0.5466860000000  0.5267330000000 1.0
C      1  0.4863100000000  0.5840060000000  0.5476130000000 1.0
C      1  0.4207210000000  0.5448990000000  0.5501480000000 1.0
C      1  0.4908200000000  0.4557300000000  0.5294460000000 1.0
C      1  0.5109390000000  0.4129950000000  0.5219690000000 1.0
C      1  0.4229710000000  0.4834450000000  0.4755790000000 1.0
C      1  0.5482410000000  0.4382580000000  0.5453410000000 1.0
C      1  0.4658290000000  0.4912160000000  0.4205100000000 1.0
C      1  0.5750320000000  0.4685640000000  0.4391670000000 1.0
C      1  0.4891270000000  0.5455340000000  0.5791120000000 1.0
C      1  0.5339170000000  0.5520490000000  0.4556240000000 1.0
C      1  0.4874510000000  0.4308200000000  0.5179830000000 1.0
C      1  0.5393960000000  0.4892540000000  0.4142040000000 1.0
C      1  0.4604200000000  0.5208490000000  0.4870020000000 1.0
C      1  0.5137950000000  0.4879430000000  0.3997550000000 1.0
C      1  0.5463680000000  0.5422970000000  0.5670350000000 1.0
C      1  0.5730040000000  0.4491250000000  0.4956210000000 1.0
C      1  0.4969590000000  0.5053290000000  0.4561320000000 1.0
C      1  0.4461380000000  0.4267590000000  0.5457280000000 1.0
C      1  0.5572650000000  0.4367650000000  0.5173020000000 1.0
C      1  0.4568780000000  0.5807490000000  0.5473190000000 1.0
C      1  0.5808690000000  0.5433790000000  0.4811830000000 1.0
C      1  0.5686230000000  0.5183190000000  0.4420660000000 1.0
C      1  0.5066370000000  0.5026540000000  0.4985520000000 1.0
C      1  0.5632000000000  0.4574010000000  0.5623380000000 1.0
C      1  0.4428300000000  0.5802470000000  0.5224620000000 1.0
C      1  0.4974350000000  0.5269390000000  0.5377210000000 1.0
C      1  0.5865570000000  0.4951350000000  0.5327350000000 1.0
C      1  0.5289550000000  0.4459860000000  0.4872730000000 1.0
C      1  0.4874950000000  0.4957840000000  0.5870420000000 1.0
C      1  0.4821290000000  0.4814830000000  0.5390020000000 1.0
C      1  0.5236600000000  0.4702240000000  0.5696150000000 1.0
C      1  0.5174460000000  0.5414750000000  0.5234600000000 1.0
C      1  0.4704260000000  0.5487920000000  0.4865940000000 1.0
C      1  0.4746400000000  0.4403710000000  0.4733790000000 1.0
C      1  0.5359940000000  0.4218730000000  0.5009630000000 1.0
C      1  0.5723720000000  0.4294930000000  0.4738390000000 1.0
C      1  0.4626380000000  0.4613590000000  0.4209580000000 1.0
C      1  0.4297310000000  0.4637940000000  0.4580270000000 1.0
C      1  0.4801110000000  0.4680710000000  0.4681360000000 1.0
C      1  0.4077500000000  0.5341010000000  0.4924990000000 1.0
C      1  0.5455300000000  0.5079770000000  0.5117430000000 1.0
C      1  0.5007620000000  0.5699820000000  0.4327660000000 1.0
C      1  0.4094540000000  0.5059880000000  0.5226860000000 1.0
C      1  0.5315240000000  0.5197240000000  0.5773450000000 1.0
C      1  0.5540130000000  0.5603820000000  0.5095620000000 1.0
C      1  0.4841730000000  0.5498080000000  0.4461900000000 1.0
C      1  0.5370940000000  0.5426270000000  0.4267370000000 1.0
C      1  0.5860040000000  0.5203610000000  0.4623600000000 1.0
C      1  0.4337180000000  0.4953530000000  0.5647630000000 1.0
C      1  0.5562590000000  0.4922750000000  0.5343530000000 1.0
END
