TITL C-883728-9229-286 22.8602292943685 125000 -7604.01485236119 0 0 52 (C1) n - 1
REM
REM in /home/nfs/bkarasulu/CARBON/AIRSS/Generating-Clusters/ReaxFF-fromJPCA2015/Units_Real/with-SteepDescent/Only-C1/SD-CG/Try1-3A/FIRE-CG
REM
REM
REM
REM
REM
REM ./C.cell (11c1c37f851c82e70ff6c80c92926a4b)
REM
REM compiler GCC version 9.2.1 20190827 (Red Hat 9.2.1-1)
REM options -cpp -mtune=generic -march=x86-64 -g -O0 -fpre-include=/usr/include/finclude/math-vector-fortran.h
REM seed -2021963086 1355658011 -1603571989 -421870131 -1198815635 -808364740 1154613879 -822139009 1069399668 -1232320660 979983313 -746219299 -19544317 505556891 1812468584 -1376749580 1193921951 160802556 -2107997155 -1797612883 646046788 698436725 783262534 1720090298 2030588686 -481699776 214761068 -1416423846 571030268 709949920 968080221 -928039882 -1015005648
REM
CELL 1.54180   50.00000   50.00000   50.00000   90.00000   90.00000   90.00000
LATT -1
SFAC C  
C      1  0.4882740000000  0.4537590000000  0.5412850000000 1.0
C      1  0.5169590000000  0.5409660000000  0.4511180000000 1.0
C      1  0.5629320000000  0.5294810000000  0.4436370000000 1.0
C      1  0.5182970000000  0.4384180000000  0.4978550000000 1.0
C      1  0.5181400000000  0.5455090000000  0.5434550000000 1.0
C      1  0.4602480000000  0.4532680000000  0.5470930000000 1.0
C      1  0.5080870000000  0.4980180000000  0.4897020000000 1.0
C      1  0.4619260000000  0.4789010000000  0.5593430000000 1.0
C      1  0.4877060000000  0.5535140000000  0.5013730000000 1.0
C      1  0.4304350000000  0.4822000000000  0.5184760000000 1.0
C      1  0.5228790000000  0.5199020000000  0.5612970000000 1.0
C      1  0.5291320000000  0.5522340000000  0.4745950000000 1.0
C      1  0.4390430000000  0.4547550000000  0.5245590000000 1.0
C      1  0.4786410000000  0.4907960000000  0.4927440000000 1.0
C      1  0.5093720000000  0.4693300000000  0.5438990000000 1.0
C      1  0.5315700000000  0.4996630000000  0.4708510000000 1.0
C      1  0.4426390000000  0.4506370000000  0.4957150000000 1.0
C      1  0.5432740000000  0.4476180000000  0.4837820000000 1.0
C      1  0.4527820000000  0.5030710000000  0.5144200000000 1.0
C      1  0.4628170000000  0.4957270000000  0.4683120000000 1.0
C      1  0.4605250000000  0.5588190000000  0.5117700000000 1.0
C      1  0.5346820000000  0.4571920000000  0.4586030000000 1.0
C      1  0.5459220000000  0.5049640000000  0.5597390000000 1.0
C      1  0.4254540000000  0.4744740000000  0.4902540000000 1.0
C      1  0.5598930000000  0.5331880000000  0.4958850000000 1.0
C      1  0.4936470000000  0.4381790000000  0.4822790000000 1.0
C      1  0.5507540000000  0.4618970000000  0.5103830000000 1.0
C      1  0.4827050000000  0.4535120000000  0.4603050000000 1.0
C      1  0.5340880000000  0.4953390000000  0.4418590000000 1.0
C      1  0.4764910000000  0.5025410000000  0.5624670000000 1.0
C      1  0.4562010000000  0.5463190000000  0.5390930000000 1.0
C      1  0.4493500000000  0.5454600000000  0.4872820000000 1.0
C      1  0.4717960000000  0.4584130000000  0.4896490000000 1.0
C      1  0.5053330000000  0.4971220000000  0.5582500000000 1.0
C      1  0.5643430000000  0.4928430000000  0.5462670000000 1.0
C      1  0.4377560000000  0.5195560000000  0.4941140000000 1.0
C      1  0.5254890000000  0.4549100000000  0.5221180000000 1.0
C      1  0.5195430000000  0.5124330000000  0.5115600000000 1.0
C      1  0.4805800000000  0.5026220000000  0.4463040000000 1.0
C      1  0.4589980000000  0.5171770000000  0.5414490000000 1.0
C      1  0.5644720000000  0.4866310000000  0.5188020000000 1.0
C      1  0.5436880000000  0.5582010000000  0.4978510000000 1.0
C      1  0.4340570000000  0.4981800000000  0.4747460000000 1.0
C      1  0.5352320000000  0.5628600000000  0.5276020000000 1.0
C      1  0.5033770000000  0.5359230000000  0.5197620000000 1.0
C      1  0.5561250000000  0.5173820000000  0.4710990000000 1.0
C      1  0.5206310000000  0.4695140000000  0.4371200000000 1.0
C      1  0.4917690000000  0.4751530000000  0.4432980000000 1.0
C      1  0.4766630000000  0.5450190000000  0.4751500000000 1.0
C      1  0.5498500000000  0.5124030000000  0.5141950000000 1.0
C      1  0.4898840000000  0.5298410000000  0.4537230000000 1.0
C      1  0.5355530000000  0.5241680000000  0.4335130000000 1.0
END
