TITL C-884129-4740-236 23.792246538842 125000 -18302.5301314442 0 0 122 (C1) n - 1
REM
REM in /home/nfs/bkarasulu/CARBON/AIRSS/Generating-Clusters/ReaxFF-fromJPCA2015/Units_Real/with-SteepDescent/Only-C1/SD-CG/Try1-3A/FIRE-CG
REM
REM
REM
REM
REM
REM ./C.cell (11c1c37f851c82e70ff6c80c92926a4b)
REM
REM compiler GCC version 9.2.1 20190827 (Red Hat 9.2.1-1)
REM options -cpp -mtune=generic -march=x86-64 -g -O0 -fpre-include=/usr/include/finclude/math-vector-fortran.h
REM seed 2114457108 -855963366 -1953866594 515380624 -992944048 -1541200144 -1386328990 1436506540 331558699 -94076171 -146881001 -1169343953 1258483211 744669423 -1675439608 812670510 -173099820 -561225765 1984390019 47903076 -1547496556 -290304769 -1334598635 848300251 699739688 -115054330 -1362394534 132937892 -1119702757 1228940211 1843335888 240688552 -1243186137
REM
CELL 1.54180   50.00000   50.00000   50.00000   90.00000   90.00000   90.00000
LATT -1
SFAC C  
C      1  0.5982360000000  0.4983320000000  0.4572600000000 1.0
C      1  0.5452070000000  0.5372300000000  0.4177180000000 1.0
C      1  0.4686190000000  0.5025250000000  0.5462330000000 1.0
C      1  0.5568250000000  0.4643510000000  0.5674250000000 1.0
C      1  0.4427240000000  0.4557120000000  0.5553410000000 1.0
C      1  0.4956690000000  0.5446130000000  0.5154190000000 1.0
C      1  0.4206200000000  0.5615850000000  0.4661810000000 1.0
C      1  0.4461400000000  0.5856720000000  0.4874340000000 1.0
C      1  0.5803770000000  0.4419070000000  0.4914390000000 1.0
C      1  0.5425860000000  0.4720120000000  0.4854540000000 1.0
C      1  0.5559100000000  0.4557290000000  0.4616470000000 1.0
C      1  0.4448330000000  0.5659090000000  0.4503230000000 1.0
C      1  0.4829000000000  0.4352990000000  0.5230530000000 1.0
C      1  0.4679120000000  0.4819240000000  0.5277910000000 1.0
C      1  0.4214680000000  0.5017870000000  0.5456880000000 1.0
C      1  0.4758170000000  0.4565280000000  0.4692530000000 1.0
C      1  0.5101470000000  0.4851050000000  0.5594490000000 1.0
C      1  0.5067250000000  0.5219990000000  0.5269510000000 1.0
C      1  0.5483590000000  0.5145430000000  0.5783190000000 1.0
C      1  0.4586330000000  0.5316570000000  0.4962340000000 1.0
C      1  0.5525020000000  0.5129960000000  0.4704070000000 1.0
C      1  0.4001340000000  0.4906510000000  0.4800080000000 1.0
C      1  0.5908720000000  0.4901070000000  0.4862410000000 1.0
C      1  0.4028680000000  0.5179350000000  0.4803450000000 1.0
C      1  0.4554660000000  0.4357710000000  0.5355300000000 1.0
C      1  0.4501790000000  0.5523800000000  0.5374250000000 1.0
C      1  0.3995370000000  0.4913750000000  0.5104370000000 1.0
C      1  0.4521080000000  0.4393390000000  0.4385100000000 1.0
C      1  0.5840060000000  0.4979120000000  0.5400820000000 1.0
C      1  0.4877020000000  0.4297770000000  0.5644120000000 1.0
C      1  0.4862480000000  0.5718930000000  0.5564170000000 1.0
C      1  0.4415140000000  0.4632790000000  0.4760520000000 1.0
C      1  0.5083260000000  0.4986230000000  0.4057430000000 1.0
C      1  0.5034450000000  0.5060070000000  0.6062220000000 1.0
C      1  0.4195470000000  0.4718490000000  0.5470820000000 1.0
C      1  0.5635370000000  0.5595210000000  0.4486350000000 1.0
C      1  0.4794670000000  0.5411180000000  0.5809800000000 1.0
C      1  0.5623420000000  0.4931640000000  0.4884490000000 1.0
C      1  0.4822070000000  0.4498750000000  0.5832020000000 1.0
C      1  0.4986830000000  0.4179400000000  0.5414330000000 1.0
C      1  0.5351540000000  0.5091280000000  0.4152810000000 1.0
C      1  0.4465500000000  0.4224000000000  0.4604830000000 1.0
C      1  0.4939170000000  0.4524420000000  0.5000840000000 1.0
C      1  0.5355280000000  0.4531630000000  0.5848690000000 1.0
C      1  0.4771110000000  0.5621270000000  0.5311090000000 1.0
C      1  0.5267400000000  0.4467670000000  0.5019590000000 1.0
C      1  0.4839120000000  0.5732390000000  0.4818140000000 1.0
C      1  0.5193320000000  0.4220590000000  0.4479350000000 1.0
C      1  0.5522680000000  0.4931310000000  0.5567160000000 1.0
C      1  0.4816260000000  0.4104770000000  0.4799070000000 1.0
C      1  0.4666490000000  0.5055960000000  0.4895890000000 1.0
C      1  0.4305430000000  0.4920420000000  0.4394900000000 1.0
C      1  0.5604330000000  0.4298710000000  0.4754190000000 1.0
C      1  0.5944920000000  0.5198170000000  0.5221420000000 1.0
C      1  0.4767620000000  0.5131510000000  0.5953090000000 1.0
C      1  0.4543610000000  0.4125050000000  0.4868130000000 1.0
C      1  0.5894120000000  0.5179460000000  0.5631290000000 1.0
C      1  0.5091540000000  0.5461700000000  0.5787880000000 1.0
C      1  0.4768890000000  0.4806410000000  0.4530730000000 1.0
C      1  0.5059710000000  0.5829510000000  0.4697330000000 1.0
C      1  0.5679560000000  0.5597480000000  0.4778840000000 1.0
C      1  0.5714820000000  0.5084370000000  0.4445990000000 1.0
C      1  0.5035230000000  0.4733520000000  0.4133780000000 1.0
C      1  0.4576420000000  0.4661810000000  0.5779490000000 1.0
C      1  0.4546360000000  0.4739030000000  0.4321070000000 1.0
C      1  0.4836630000000  0.5450220000000  0.4895150000000 1.0
C      1  0.4961670000000  0.5088830000000  0.5505880000000 1.0
C      1  0.4357810000000  0.5399330000000  0.5128790000000 1.0
C      1  0.5296270000000  0.4152040000000  0.5396880000000 1.0
C      1  0.4151790000000  0.5141230000000  0.5212130000000 1.0
C      1  0.5119280000000  0.5693920000000  0.4443180000000 1.0
C      1  0.4457560000000  0.5117500000000  0.5632820000000 1.0
C      1  0.5233970000000  0.5232600000000  0.5910070000000 1.0
C      1  0.5522360000000  0.5561010000000  0.5516640000000 1.0
C      1  0.4790890000000  0.5064530000000  0.4646290000000 1.0
C      1  0.4970210000000  0.5450050000000  0.4387360000000 1.0
C      1  0.5243290000000  0.5136450000000  0.4701810000000 1.0
C      1  0.5335160000000  0.4223290000000  0.4873070000000 1.0
C      1  0.4491790000000  0.5423500000000  0.4332650000000 1.0
C      1  0.5228150000000  0.4921530000000  0.4862980000000 1.0
C      1  0.5614190000000  0.5599760000000  0.5247310000000 1.0
C      1  0.4985940000000  0.4474020000000  0.4212190000000 1.0
C      1  0.5382220000000  0.5622550000000  0.4334500000000 1.0
C      1  0.4754190000000  0.5374340000000  0.4208980000000 1.0
C      1  0.4433810000000  0.4751690000000  0.5145700000000 1.0
C      1  0.5263240000000  0.5638700000000  0.5621720000000 1.0
C      1  0.5082030000000  0.4650600000000  0.5809870000000 1.0
C      1  0.6003940000000  0.5172790000000  0.4938540000000 1.0
C      1  0.5100010000000  0.4096860000000  0.4720310000000 1.0
C      1  0.4265100000000  0.4503220000000  0.5044800000000 1.0
C      1  0.4056560000000  0.4648070000000  0.5225250000000 1.0
C      1  0.4567530000000  0.4943190000000  0.5857390000000 1.0
C      1  0.5656340000000  0.4514740000000  0.5427490000000 1.0
C      1  0.4198220000000  0.4769330000000  0.4614230000000 1.0
C      1  0.4897750000000  0.4798830000000  0.5088100000000 1.0
C      1  0.4418530000000  0.4260560000000  0.5121830000000 1.0
C      1  0.5508110000000  0.5696730000000  0.4990260000000 1.0
C      1  0.5661280000000  0.5358990000000  0.5691610000000 1.0
C      1  0.4608470000000  0.4901940000000  0.4065620000000 1.0
C      1  0.4297060000000  0.5212790000000  0.4393130000000 1.0
C      1  0.4647020000000  0.5838260000000  0.4650480000000 1.0
C      1  0.4993640000000  0.5274700000000  0.4636260000000 1.0
C      1  0.4801370000000  0.4392830000000  0.4446630000000 1.0
C      1  0.5431030000000  0.4376230000000  0.5274230000000 1.0
C      1  0.5259120000000  0.5856360000000  0.4933000000000 1.0
C      1  0.5271470000000  0.4402700000000  0.4278150000000 1.0
C      1  0.5293530000000  0.4875410000000  0.5392990000000 1.0
C      1  0.5860770000000  0.4679720000000  0.5311500000000 1.0
C      1  0.5902680000000  0.5452580000000  0.4898730000000 1.0
C      1  0.5157760000000  0.4973710000000  0.5140440000000 1.0
C      1  0.5179860000000  0.5866930000000  0.5195180000000 1.0
C      1  0.5522340000000  0.4899820000000  0.4273900000000 1.0
C      1  0.4275310000000  0.5656070000000  0.4947990000000 1.0
C      1  0.5853460000000  0.5465790000000  0.5179360000000 1.0
C      1  0.5104680000000  0.5851570000000  0.5473390000000 1.0
C      1  0.4473250000000  0.4866820000000  0.4912540000000 1.0
C      1  0.4111640000000  0.5339040000000  0.4591590000000 1.0
C      1  0.5475400000000  0.4623620000000  0.4349280000000 1.0
C      1  0.4561280000000  0.5425190000000  0.5636290000000 1.0
C      1  0.4801170000000  0.5118890000000  0.4057660000000 1.0
C      1  0.5940620000000  0.4622370000000  0.5041940000000 1.0
C      1  0.5706880000000  0.5363890000000  0.4316080000000 1.0
END
