TITL C-883733-4178-11 1273436.25879328 125000 -22799.8395446969 0 0 151 (C1) n - 1
REM
REM in /home/nfs/bkarasulu/CARBON/AIRSS/Generating-Clusters/ReaxFF-fromJPCA2015/Units_Real/with-SteepDescent/Only-C1/SD-CG/Try1-3A/FIRE-CG
REM
REM
REM
REM
REM
REM ./C.cell (11c1c37f851c82e70ff6c80c92926a4b)
REM
REM compiler GCC version 9.2.1 20190827 (Red Hat 9.2.1-1)
REM options -cpp -mtune=generic -march=x86-64 -g -O0 -fpre-include=/usr/include/finclude/math-vector-fortran.h
REM seed 309490618 -189673033 -41185929 1639091228 2074240302 55130782 -442093502 -456700963 -1632381585 -924967856 -860007811 -1610393751 -391120465 1252392533 -1044056258 -1325397114 744424794 1314016386 1741208681 -361472780 -1247151328 -503410795 166084797 1927593693 1917585820 1005298273 -167574709 -806710122 -2074309234 -483423607 1490001753 891347300 -102428680
REM
CELL 1.54180   50.00000   50.00000   50.00000   90.00000   90.00000   90.00000
LATT -1
SFAC C  
C      1  0.5780270000000  0.4402600000000  0.4619990000000 1.0
C      1  0.4613570000000  0.4221710000000  0.5174550000000 1.0
C      1  0.4606510000000  0.5709810000000  0.5831890000000 1.0
C      1  0.4968210000000  0.5170070000000  0.4537040000000 1.0
C      1  0.5208780000000  0.5435330000000  0.5694320000000 1.0
C      1  0.4675430000000  0.4732080000000  0.5702240000000 1.0
C      1  0.5144600000000  0.4272830000000  0.4709360000000 1.0
C      1  0.5688860000000  0.5071840000000  0.4800570000000 1.0
C      1  0.4676050000000  0.3882360000000  0.4763610000000 1.0
C      1  0.4465200000000  0.5099360000000  0.5235730000000 1.0
C      1  0.5331950000000  0.5426500000000  0.5004990000000 1.0
C      1  0.4404160000000  0.5650390000000  0.5624440000000 1.0
C      1  0.5283860000000  0.4574960000000  0.5822390000000 1.0
C      1  0.3973580000000  0.5095710000000  0.5237580000000 1.0
C      1  0.4828330000000  0.4043110000000  0.4600720000000 1.0
C      1  0.4976730000000  0.5512380000000  0.3966190000000 1.0
C      1  0.5693860000000  0.5618850000000  0.4487040000000 1.0
C      1  0.5081580000000  0.4701490000000  0.4613540000000 1.0
C      1  0.4513700000000  0.5457520000000  0.4110030000000 1.0
C      1  0.4441890000000  0.5387110000000  0.5035720000000 1.0
C      1  0.4915270000000  0.5978810000000  0.4573730000000 1.0
C      1  0.4075310000000  0.5060530000000  0.5487630000000 1.0
C      1  0.5411420000000  0.5325150000000  0.4218810000000 1.0
C      1  0.5203550000000  0.5375840000000  0.5285560000000 1.0
C      1  0.5977150000000  0.5397160000000  0.4775980000000 1.0
C      1  0.4614830000000  0.5846980000000  0.5013150000000 1.0
C      1  0.5960660000000  0.5182160000000  0.5280050000000 1.0
C      1  0.4025590000000  0.5352510000000  0.5102190000000 1.0
C      1  0.4716780000000  0.5373090000000  0.5381410000000 1.0
C      1  0.5402340000000  0.5074510000000  0.5958140000000 1.0
C      1  0.5884130000000  0.5387560000000  0.4493230000000 1.0
C      1  0.4713770000000  0.5095590000000  0.5364050000000 1.0
C      1  0.5252440000000  0.3977780000000  0.5200480000000 1.0
C      1  0.5947330000000  0.4727860000000  0.5187670000000 1.0
C      1  0.5510020000000  0.5249550000000  0.4903000000000 1.0
C      1  0.5991740000000  0.5122330000000  0.4860420000000 1.0
C      1  0.4726150000000  0.5049480000000  0.3969990000000 1.0
C      1  0.4599910000000  0.5640710000000  0.4323280000000 1.0
C      1  0.5959100000000  0.4536380000000  0.4970450000000 1.0
C      1  0.4881710000000  0.4646400000000  0.4409710000000 1.0
C      1  0.4820210000000  0.5832120000000  0.4332490000000 1.0
C      1  0.5639950000000  0.5737760000000  0.4745540000000 1.0
C      1  0.5337590000000  0.6084010000000  0.4349890000000 1.0
C      1  0.5017020000000  0.4019360000000  0.5360800000000 1.0
C      1  0.4232740000000  0.5553540000000  0.5166720000000 1.0
C      1  0.5540550000000  0.4090280000000  0.5246870000000 1.0
C      1  0.4842250000000  0.4915910000000  0.5559710000000 1.0
C      1  0.6073700000000  0.4991780000000  0.5113000000000 1.0
C      1  0.4366640000000  0.5463220000000  0.4737170000000 1.0
C      1  0.4110610000000  0.4306840000000  0.5016970000000 1.0
C      1  0.5596220000000  0.4305400000000  0.5406930000000 1.0
C      1  0.5423520000000  0.5073700000000  0.4405090000000 1.0
C      1  0.5140080000000  0.4520970000000  0.4836890000000 1.0
C      1  0.5002460000000  0.5247920000000  0.4819880000000 1.0
C      1  0.5177590000000  0.4965240000000  0.4514200000000 1.0
C      1  0.4953920000000  0.4869290000000  0.3925190000000 1.0
C      1  0.5308280000000  0.5158870000000  0.5678480000000 1.0
C      1  0.4729220000000  0.5339600000000  0.3955910000000 1.0
C      1  0.4039620000000  0.5221830000000  0.4839420000000 1.0
C      1  0.5867780000000  0.4268100000000  0.4868370000000 1.0
C      1  0.5821740000000  0.5600070000000  0.4932680000000 1.0
C      1  0.4600820000000  0.4540420000000  0.4450380000000 1.0
C      1  0.4610110000000  0.5479680000000  0.4574910000000 1.0
C      1  0.4899290000000  0.5524790000000  0.4829760000000 1.0
C      1  0.4990260000000  0.4676410000000  0.4134590000000 1.0
C      1  0.4890540000000  0.5802460000000  0.5384030000000 1.0
C      1  0.4820630000000  0.4750150000000  0.5939110000000 1.0
C      1  0.5251480000000  0.4283600000000  0.4203470000000 1.0
C      1  0.5660130000000  0.4541630000000  0.5533980000000 1.0
C      1  0.4960160000000  0.5154790000000  0.6167520000000 1.0
C      1  0.5124260000000  0.4906040000000  0.5474990000000 1.0
C      1  0.4155000000000  0.5183660000000  0.4376880000000 1.0
C      1  0.4501900000000  0.4511120000000  0.4736710000000 1.0
C      1  0.4652700000000  0.3847620000000  0.5024680000000 1.0
C      1  0.5353640000000  0.5548070000000  0.5485980000000 1.0
C      1  0.5110100000000  0.5562880000000  0.5920190000000 1.0
C      1  0.5201010000000  0.6048780000000  0.4617960000000 1.0
C      1  0.5380600000000  0.4163950000000  0.4580760000000 1.0
C      1  0.5248540000000  0.3900620000000  0.4935490000000 1.0
C      1  0.5227400000000  0.4831160000000  0.4047840000000 1.0
C      1  0.5166070000000  0.4623880000000  0.5367230000000 1.0
C      1  0.5377220000000  0.5825560000000  0.5394980000000 1.0
C      1  0.5677580000000  0.4749260000000  0.5304810000000 1.0
C      1  0.4337000000000  0.5224810000000  0.4158440000000 1.0
C      1  0.5181310000000  0.4447040000000  0.5591200000000 1.0
C      1  0.5477730000000  0.3979390000000  0.4794310000000 1.0
C      1  0.4408380000000  0.5240670000000  0.5796520000000 1.0
C      1  0.4738560000000  0.4903810000000  0.4930680000000 1.0
C      1  0.4324120000000  0.4232160000000  0.5209140000000 1.0
C      1  0.4381290000000  0.4761620000000  0.5705130000000 1.0
C      1  0.4950840000000  0.5519150000000  0.5401000000000 1.0
C      1  0.5834950000000  0.5139630000000  0.4333460000000 1.0
C      1  0.4210480000000  0.4909860000000  0.4474540000000 1.0
C      1  0.4597810000000  0.5167670000000  0.5979630000000 1.0
C      1  0.4754190000000  0.4245620000000  0.4393600000000 1.0
C      1  0.5107030000000  0.4723550000000  0.5986560000000 1.0
C      1  0.4978120000000  0.5436430000000  0.6127400000000 1.0
C      1  0.4745560000000  0.3975930000000  0.5256760000000 1.0
C      1  0.4831690000000  0.5997840000000  0.4855750000000 1.0
C      1  0.5487070000000  0.4442400000000  0.4198010000000 1.0
C      1  0.5360020000000  0.5843650000000  0.4787450000000 1.0
C      1  0.4508150000000  0.4369170000000  0.5668310000000 1.0
C      1  0.4358570000000  0.5756440000000  0.5343340000000 1.0
C      1  0.4739370000000  0.4981960000000  0.6114910000000 1.0
C      1  0.5182690000000  0.5617360000000  0.4829840000000 1.0
C      1  0.5486790000000  0.4726600000000  0.4121490000000 1.0
C      1  0.4688230000000  0.5563210000000  0.5035250000000 1.0
C      1  0.4542760000000  0.5024820000000  0.4756680000000 1.0
C      1  0.5071900000000  0.6013440000000  0.5005760000000 1.0
C      1  0.5190940000000  0.5027890000000  0.5228250000000 1.0
C      1  0.5009620000000  0.4204360000000  0.5590990000000 1.0
C      1  0.5673410000000  0.4080710000000  0.4979880000000 1.0
C      1  0.4478870000000  0.4966290000000  0.4117760000000 1.0
C      1  0.5489290000000  0.5604820000000  0.4278690000000 1.0
C      1  0.4604590000000  0.4660850000000  0.5006090000000 1.0
C      1  0.5019300000000  0.5764590000000  0.4129220000000 1.0
C      1  0.4297200000000  0.4367100000000  0.5466310000000 1.0
C      1  0.5581910000000  0.4319810000000  0.4442780000000 1.0
C      1  0.5546680000000  0.4663100000000  0.5777380000000 1.0
C      1  0.5027150000000  0.4063960000000  0.4861910000000 1.0
C      1  0.5785620000000  0.5563110000000  0.5226490000000 1.0
C      1  0.4232500000000  0.4981650000000  0.4768810000000 1.0
C      1  0.4748220000000  0.4290240000000  0.5631330000000 1.0
C      1  0.4125610000000  0.5371410000000  0.4606690000000 1.0
C      1  0.5449940000000  0.4841600000000  0.5148070000000 1.0
C      1  0.4469310000000  0.5380350000000  0.5534820000000 1.0
C      1  0.4617260000000  0.5889590000000  0.5298530000000 1.0
C      1  0.4080470000000  0.4839010000000  0.5047750000000 1.0
C      1  0.5788730000000  0.5311250000000  0.5443730000000 1.0
C      1  0.4759390000000  0.4462240000000  0.5139330000000 1.0
C      1  0.5604830000000  0.5141400000000  0.5600950000000 1.0
C      1  0.5181970000000  0.4972980000000  0.6112540000000 1.0
C      1  0.5553410000000  0.4814660000000  0.4875800000000 1.0
C      1  0.4218660000000  0.5008520000000  0.5718120000000 1.0
C      1  0.4298630000000  0.4367490000000  0.4820440000000 1.0
C      1  0.4414510000000  0.4771560000000  0.4321480000000 1.0
C      1  0.4838600000000  0.5668920000000  0.5999290000000 1.0
C      1  0.4677570000000  0.5179240000000  0.4555260000000 1.0
C      1  0.5042820000000  0.4525980000000  0.5115030000000 1.0
C      1  0.5784840000000  0.4661220000000  0.4761510000000 1.0
C      1  0.5301370000000  0.5826460000000  0.4203110000000 1.0
C      1  0.4295480000000  0.4655260000000  0.5447880000000 1.0
C      1  0.5644320000000  0.4912950000000  0.4301430000000 1.0
C      1  0.4998810000000  0.4241520000000  0.4272700000000 1.0
C      1  0.4981320000000  0.5032790000000  0.5015690000000 1.0
C      1  0.5189650000000  0.5381230000000  0.4073070000000 1.0
C      1  0.5120160000000  0.5951970000000  0.5277120000000 1.0
C      1  0.5606780000000  0.5764190000000  0.5251400000000 1.0
C      1  0.4367200000000  0.4823440000000  0.5197140000000 1.0
C      1  0.5628470000000  0.4940830000000  0.5823510000000 1.0
C      1  0.3962500000000  0.4570510000000  0.5047210000000 1.0
END
