TITL C-883732-77-170 -3.11193249050489 125000 -9805.93836371757 0 0 67 (C1) n - 1
REM
REM in /home/nfs/bkarasulu/CARBON/AIRSS/Generating-Clusters/ReaxFF-fromJPCA2015/Units_Real/with-SteepDescent/Only-C1/SD-CG/Try1-3A/FIRE-CG
REM
REM
REM
REM
REM
REM ./C.cell (11c1c37f851c82e70ff6c80c92926a4b)
REM
REM compiler GCC version 9.2.1 20190827 (Red Hat 9.2.1-1)
REM options -cpp -mtune=generic -march=x86-64 -g -O0 -fpre-include=/usr/include/finclude/math-vector-fortran.h
REM seed 1833187574 -1904044172 -912481477 946874595 103027944 -119245252 -1893821995 2001524782 -753030043 -1623091794 1680875404 1069797759 -1692491748 964324191 2058155167 533066181 1723433378 799914767 -2064217838 -1654098923 -1530868730 1344765111 164542982 -370140584 1271827245 -173177836 1806512303 -1456434171 112108636 2087457837 579764008 -508802686 1823829504
REM
CELL 1.54180   50.00000   50.00000   50.00000   90.00000   90.00000   90.00000
LATT -1
SFAC C  
C      1  0.5479930000000  0.4264890000000  0.4621460000000 1.0
C      1  0.4547970000000  0.5696140000000  0.4842840000000 1.0
C      1  0.4839370000000  0.4586030000000  0.5235910000000 1.0
C      1  0.4613530000000  0.5425390000000  0.5623460000000 1.0
C      1  0.4540310000000  0.4612420000000  0.4890830000000 1.0
C      1  0.4726470000000  0.4805380000000  0.5074690000000 1.0
C      1  0.4923780000000  0.5484710000000  0.4792550000000 1.0
C      1  0.4580560000000  0.4516120000000  0.5383340000000 1.0
C      1  0.5198980000000  0.4759330000000  0.4343020000000 1.0
C      1  0.5579730000000  0.4621470000000  0.4982430000000 1.0
C      1  0.4853490000000  0.5195780000000  0.4378410000000 1.0
C      1  0.4582550000000  0.5625260000000  0.5434880000000 1.0
C      1  0.5735380000000  0.4951060000000  0.5359440000000 1.0
C      1  0.5454810000000  0.4798390000000  0.4442900000000 1.0
C      1  0.5236480000000  0.4313430000000  0.5050040000000 1.0
C      1  0.4307620000000  0.5175790000000  0.4946340000000 1.0
C      1  0.4597380000000  0.5084690000000  0.4478850000000 1.0
C      1  0.4124190000000  0.5412350000000  0.4904290000000 1.0
C      1  0.4487390000000  0.5028150000000  0.5467720000000 1.0
C      1  0.4766980000000  0.4458720000000  0.4426490000000 1.0
C      1  0.4820710000000  0.5346510000000  0.5042510000000 1.0
C      1  0.4727390000000  0.4839810000000  0.4573170000000 1.0
C      1  0.5362010000000  0.5020650000000  0.5207590000000 1.0
C      1  0.5698500000000  0.4871300000000  0.4572610000000 1.0
C      1  0.5492120000000  0.4347440000000  0.4916030000000 1.0
C      1  0.5782500000000  0.5016830000000  0.5081270000000 1.0
C      1  0.4689110000000  0.4415850000000  0.4719690000000 1.0
C      1  0.5685750000000  0.5150100000000  0.4503480000000 1.0
C      1  0.4878330000000  0.4771650000000  0.5648490000000 1.0
C      1  0.4813330000000  0.5443660000000  0.4522840000000 1.0
C      1  0.4893380000000  0.5020900000000  0.5786580000000 1.0
C      1  0.5121180000000  0.4625930000000  0.5540530000000 1.0
C      1  0.5099430000000  0.5111490000000  0.5300730000000 1.0
C      1  0.4864760000000  0.5064730000000  0.5114590000000 1.0
C      1  0.5005930000000  0.5722260000000  0.5140700000000 1.0
C      1  0.5152750000000  0.5162290000000  0.5813030000000 1.0
C      1  0.5215910000000  0.5363350000000  0.5397930000000 1.0
C      1  0.4910150000000  0.4496140000000  0.4837450000000 1.0
C      1  0.5364860000000  0.5223770000000  0.5615180000000 1.0
C      1  0.4444320000000  0.4512100000000  0.5136360000000 1.0
C      1  0.4386770000000  0.5191530000000  0.5241180000000 1.0
C      1  0.4838690000000  0.5745970000000  0.4893040000000 1.0
C      1  0.5060090000000  0.4491210000000  0.4383140000000 1.0
C      1  0.4962450000000  0.4756090000000  0.4738570000000 1.0
C      1  0.5177060000000  0.4901980000000  0.4818810000000 1.0
C      1  0.5143560000000  0.4530380000000  0.5238970000000 1.0
C      1  0.5058640000000  0.4271700000000  0.4822810000000 1.0
C      1  0.4540110000000  0.5506000000000  0.4619110000000 1.0
C      1  0.4323130000000  0.5617360000000  0.5016830000000 1.0
C      1  0.5442750000000  0.5459290000000  0.4983360000000 1.0
C      1  0.5379100000000  0.4731120000000  0.5628880000000 1.0
C      1  0.5549290000000  0.4972030000000  0.5577500000000 1.0
C      1  0.4624040000000  0.5157280000000  0.5700390000000 1.0
C      1  0.5324410000000  0.4762570000000  0.5064830000000 1.0
C      1  0.5617100000000  0.5390650000000  0.4520540000000 1.0
C      1  0.4631760000000  0.4699450000000  0.4368710000000 1.0
C      1  0.4447320000000  0.5233600000000  0.4683290000000 1.0
C      1  0.4369840000000  0.5482370000000  0.5279180000000 1.0
C      1  0.5257350000000  0.5563080000000  0.5181550000000 1.0
C      1  0.5756850000000  0.4813600000000  0.4866080000000 1.0
C      1  0.4601270000000  0.4765720000000  0.5541670000000 1.0
C      1  0.5109040000000  0.5050160000000  0.4399370000000 1.0
C      1  0.4824530000000  0.5538590000000  0.5278030000000 1.0
C      1  0.5393180000000  0.5383000000000  0.4696890000000 1.0
C      1  0.5228070000000  0.5132130000000  0.4653950000000 1.0
C      1  0.5193750000000  0.4290110000000  0.4549110000000 1.0
C      1  0.5560550000000  0.5220750000000  0.5103580000000 1.0
END
