TITL C-883731-9874-264 91.1881005225848 125000 -24081.8945083012 0 0 162 (C1) n - 1
REM
REM in /home/nfs/bkarasulu/CARBON/AIRSS/Generating-Clusters/ReaxFF-fromJPCA2015/Units_Real/with-SteepDescent/Only-C1/SD-CG/Try1-3A/FIRE-CG
REM
REM
REM
REM
REM
REM ./C.cell (11c1c37f851c82e70ff6c80c92926a4b)
REM
REM compiler GCC version 9.2.1 20190827 (Red Hat 9.2.1-1)
REM options -cpp -mtune=generic -march=x86-64 -g -O0 -fpre-include=/usr/include/finclude/math-vector-fortran.h
REM seed 1169053888 1481883615 381841999 -588736023 -1276245966 518785549 413331515 980149191 1938918537 1820020186 262301132 505109337 1688293105 -912119582 -2110929155 2063115605 992444274 -190119689 -1185712594 1875662313 2032408692 1172407633 1402008396 -1043929680 1953648972 1154620280 1383050929 196621894 -658182871 -1812252841 1421826594 597640563 -1268799884
REM
CELL 1.54180   50.00000   50.00000   50.00000   90.00000   90.00000   90.00000
LATT -1
SFAC C  
C      1  0.4865650000000  0.4443480000000  0.4868720000000 1.0
C      1  0.4871170000000  0.5811620000000  0.5544070000000 1.0
C      1  0.5454900000000  0.5609150000000  0.4641180000000 1.0
C      1  0.5587850000000  0.4812780000000  0.5099520000000 1.0
C      1  0.5559980000000  0.5139770000000  0.5842060000000 1.0
C      1  0.5856670000000  0.5404160000000  0.5512560000000 1.0
C      1  0.5737220000000  0.5747430000000  0.5143400000000 1.0
C      1  0.5334600000000  0.5585570000000  0.4945580000000 1.0
C      1  0.4211540000000  0.4310880000000  0.4671540000000 1.0
C      1  0.4364440000000  0.4422340000000  0.4456220000000 1.0
C      1  0.4410660000000  0.4151890000000  0.5381850000000 1.0
C      1  0.4431140000000  0.5547770000000  0.5652880000000 1.0
C      1  0.4325870000000  0.4712430000000  0.4430650000000 1.0
C      1  0.4420380000000  0.5060310000000  0.5842700000000 1.0
C      1  0.4652180000000  0.4035920000000  0.4888120000000 1.0
C      1  0.4206080000000  0.4092180000000  0.5178770000000 1.0
C      1  0.5073290000000  0.5526440000000  0.4922560000000 1.0
C      1  0.5795950000000  0.5178690000000  0.5671530000000 1.0
C      1  0.4821180000000  0.4807290000000  0.4522750000000 1.0
C      1  0.5690210000000  0.4703410000000  0.5688250000000 1.0
C      1  0.3984390000000  0.5336720000000  0.5308550000000 1.0
C      1  0.5870160000000  0.5695250000000  0.4886620000000 1.0
C      1  0.4786640000000  0.4540390000000  0.5361870000000 1.0
C      1  0.4294000000000  0.5282710000000  0.5704240000000 1.0
C      1  0.6081480000000  0.5061360000000  0.5116990000000 1.0
C      1  0.4901020000000  0.5595820000000  0.5104240000000 1.0
C      1  0.4738280000000  0.5833250000000  0.5051600000000 1.0
C      1  0.4519300000000  0.4979760000000  0.5386790000000 1.0
C      1  0.5487540000000  0.4861800000000  0.5815020000000 1.0
C      1  0.4433100000000  0.5228760000000  0.4059930000000 1.0
C      1  0.4956470000000  0.4459350000000  0.5939930000000 1.0
C      1  0.4163420000000  0.4969100000000  0.4455560000000 1.0
C      1  0.4626140000000  0.4258620000000  0.4396560000000 1.0
C      1  0.4919410000000  0.4670260000000  0.3973190000000 1.0
C      1  0.5614380000000  0.5016200000000  0.5307820000000 1.0
C      1  0.4045910000000  0.4312900000000  0.5252030000000 1.0
C      1  0.5953020000000  0.4654460000000  0.4667550000000 1.0
C      1  0.5497010000000  0.5546680000000  0.5185960000000 1.0
C      1  0.4788790000000  0.5326570000000  0.4587840000000 1.0
C      1  0.5961420000000  0.4952900000000  0.4618730000000 1.0
C      1  0.4040560000000  0.5073250000000  0.4699810000000 1.0
C      1  0.5150370000000  0.4409500000000  0.4207770000000 1.0
C      1  0.4987130000000  0.5527970000000  0.4663820000000 1.0
C      1  0.4431370000000  0.5139190000000  0.4918510000000 1.0
C      1  0.5849980000000  0.5862200000000  0.5400850000000 1.0
C      1  0.5353180000000  0.5363220000000  0.5882840000000 1.0
C      1  0.5394760000000  0.5637620000000  0.5460490000000 1.0
C      1  0.5151690000000  0.5853330000000  0.5481300000000 1.0
C      1  0.4744380000000  0.4808110000000  0.5471630000000 1.0
C      1  0.5360830000000  0.4157320000000  0.5294060000000 1.0
C      1  0.4122480000000  0.5581360000000  0.5224920000000 1.0
C      1  0.5413550000000  0.4292750000000  0.4279370000000 1.0
C      1  0.5442890000000  0.4271170000000  0.4756750000000 1.0
C      1  0.5128200000000  0.4059720000000  0.5120960000000 1.0
C      1  0.5522770000000  0.5347550000000  0.4070710000000 1.0
C      1  0.5567990000000  0.5029720000000  0.4192140000000 1.0
C      1  0.4365350000000  0.4151490000000  0.4912690000000 1.0
C      1  0.5325510000000  0.4876440000000  0.5394030000000 1.0
C      1  0.4360450000000  0.5644790000000  0.5386050000000 1.0
C      1  0.5897110000000  0.5487580000000  0.4405940000000 1.0
C      1  0.4720100000000  0.4320980000000  0.5854680000000 1.0
C      1  0.5665940000000  0.5827530000000  0.4707250000000 1.0
C      1  0.4969730000000  0.5112860000000  0.5749070000000 1.0
C      1  0.3955990000000  0.4666080000000  0.5038510000000 1.0
C      1  0.4513890000000  0.5311270000000  0.4696660000000 1.0
C      1  0.5345100000000  0.4907060000000  0.4028840000000 1.0
C      1  0.4809470000000  0.4698870000000  0.6025690000000 1.0
C      1  0.4625080000000  0.5812400000000  0.4501160000000 1.0
C      1  0.5028540000000  0.5062530000000  0.4245840000000 1.0
C      1  0.4979820000000  0.4367110000000  0.5496070000000 1.0
C      1  0.5194720000000  0.5004910000000  0.4484260000000 1.0
C      1  0.4686510000000  0.5315870000000  0.4083980000000 1.0
C      1  0.5624250000000  0.5186610000000  0.4833970000000 1.0
C      1  0.5521210000000  0.4914220000000  0.4840270000000 1.0
C      1  0.5185830000000  0.4653680000000  0.4030430000000 1.0
C      1  0.5626170000000  0.4203510000000  0.5170730000000 1.0
C      1  0.4349310000000  0.5705400000000  0.4488050000000 1.0
C      1  0.3930700000000  0.4945710000000  0.4939150000000 1.0
C      1  0.5395170000000  0.4652500000000  0.5226980000000 1.0
C      1  0.4574440000000  0.4843500000000  0.4350540000000 1.0
C      1  0.4380570000000  0.4767560000000  0.5778920000000 1.0
C      1  0.4585490000000  0.5868060000000  0.4793350000000 1.0
C      1  0.5250660000000  0.6142070000000  0.5067390000000 1.0
C      1  0.4906110000000  0.5119930000000  0.5220920000000 1.0
C      1  0.4858410000000  0.4966310000000  0.4761400000000 1.0
C      1  0.5190560000000  0.5633560000000  0.4490910000000 1.0
C      1  0.4108420000000  0.5170290000000  0.5512200000000 1.0
C      1  0.4740970000000  0.4085450000000  0.4614050000000 1.0
C      1  0.4790270000000  0.4917040000000  0.5030970000000 1.0
C      1  0.3873370000000  0.5212740000000  0.5062310000000 1.0
C      1  0.5695790000000  0.4263860000000  0.4892890000000 1.0
C      1  0.5169090000000  0.5140680000000  0.3994320000000 1.0
C      1  0.5082250000000  0.5620370000000  0.4223550000000 1.0
C      1  0.4799080000000  0.5973360000000  0.5300860000000 1.0
C      1  0.4235670000000  0.4916130000000  0.5403770000000 1.0
C      1  0.4823670000000  0.4022970000000  0.5125880000000 1.0
C      1  0.5957000000000  0.4562770000000  0.5173960000000 1.0
C      1  0.4555140000000  0.5465910000000  0.5267120000000 1.0
C      1  0.4515800000000  0.4872480000000  0.4973430000000 1.0
C      1  0.5161850000000  0.4468360000000  0.5692830000000 1.0
C      1  0.4006590000000  0.4577610000000  0.5326860000000 1.0
C      1  0.5469460000000  0.5105090000000  0.4461680000000 1.0
C      1  0.4303070000000  0.5772130000000  0.4772890000000 1.0
C      1  0.4259320000000  0.4643930000000  0.5519940000000 1.0
C      1  0.5647050000000  0.5264370000000  0.5127720000000 1.0
C      1  0.5263160000000  0.5429470000000  0.5607590000000 1.0
C      1  0.4805070000000  0.4166910000000  0.5615050000000 1.0
C      1  0.4858640000000  0.4990960000000  0.5996760000000 1.0
C      1  0.4649200000000  0.5182140000000  0.5984020000000 1.0
C      1  0.5317440000000  0.4588700000000  0.4758550000000 1.0
C      1  0.5828790000000  0.4904410000000  0.4360140000000 1.0
C      1  0.4978920000000  0.4240350000000  0.4710600000000 1.0
C      1  0.6016330000000  0.4828470000000  0.5276960000000 1.0
C      1  0.4320130000000  0.5408760000000  0.4495730000000 1.0
C      1  0.4480340000000  0.4929780000000  0.4072490000000 1.0
C      1  0.4503520000000  0.4621970000000  0.4841900000000 1.0
C      1  0.5640600000000  0.4436970000000  0.5573890000000 1.0
C      1  0.4812230000000  0.5221350000000  0.4319520000000 1.0
C      1  0.5089480000000  0.5415460000000  0.5980040000000 1.0
C      1  0.4469100000000  0.4445510000000  0.5335920000000 1.0
C      1  0.4803250000000  0.5442050000000  0.5932550000000 1.0
C      1  0.5231070000000  0.4768380000000  0.5659520000000 1.0
C      1  0.6001460000000  0.5433870000000  0.4927900000000 1.0
C      1  0.5353720000000  0.5923920000000  0.4968800000000 1.0
C      1  0.4881630000000  0.4328660000000  0.4298520000000 1.0
C      1  0.5527190000000  0.6048970000000  0.4818260000000 1.0
C      1  0.5194900000000  0.4101700000000  0.4851490000000 1.0
C      1  0.5181440000000  0.5052750000000  0.5215390000000 1.0
C      1  0.5703390000000  0.5648940000000  0.5553460000000 1.0
C      1  0.3984500000000  0.5350070000000  0.4830570000000 1.0
C      1  0.5736530000000  0.5462380000000  0.4204970000000 1.0
C      1  0.5569900000000  0.4215460000000  0.4507830000000 1.0
C      1  0.4678820000000  0.4766630000000  0.3963360000000 1.0
C      1  0.4730980000000  0.4557220000000  0.4659380000000 1.0
C      1  0.5380500000000  0.4296100000000  0.5549770000000 1.0
C      1  0.4805960000000  0.5740570000000  0.4265620000000 1.0
C      1  0.4249770000000  0.5203830000000  0.4297670000000 1.0
C      1  0.5615340000000  0.5338930000000  0.4581790000000 1.0
C      1  0.4963800000000  0.4874030000000  0.5623200000000 1.0
C      1  0.5272810000000  0.5017110000000  0.4955180000000 1.0
C      1  0.5208810000000  0.4577560000000  0.5032420000000 1.0
C      1  0.5001450000000  0.5333120000000  0.5560120000000 1.0
C      1  0.5962320000000  0.5328260000000  0.5211390000000 1.0
C      1  0.5097510000000  0.5107700000000  0.4744790000000 1.0
C      1  0.5848390000000  0.4908970000000  0.5524610000000 1.0
C      1  0.5672320000000  0.4391950000000  0.4316700000000 1.0
C      1  0.4837340000000  0.5395560000000  0.5307470000000 1.0
C      1  0.4133020000000  0.5585190000000  0.4931280000000 1.0
C      1  0.4679370000000  0.4035120000000  0.5384620000000 1.0
C      1  0.4700710000000  0.5621630000000  0.5723920000000 1.0
C      1  0.4428250000000  0.4425850000000  0.5039230000000 1.0
C      1  0.5796830000000  0.4370940000000  0.5335630000000 1.0
C      1  0.5243420000000  0.5422450000000  0.4053420000000 1.0
C      1  0.4687920000000  0.5550660000000  0.4106980000000 1.0
C      1  0.4472400000000  0.5205180000000  0.5194390000000 1.0
C      1  0.5888840000000  0.4485960000000  0.4898480000000 1.0
C      1  0.4558550000000  0.4584640000000  0.5912440000000 1.0
C      1  0.5825950000000  0.4621090000000  0.4401890000000 1.0
C      1  0.4917000000000  0.4620220000000  0.5091430000000 1.0
C      1  0.6043120000000  0.5152840000000  0.4837080000000 1.0
C      1  0.4033220000000  0.4487810000000  0.4811780000000 1.0
C      1  0.5092340000000  0.6078240000000  0.5292750000000 1.0
END
