TITL C-883727-9645-218 3.91999087673117 125000 -10807.2973528301 0 0 73 (C1) n - 1
REM
REM in /home/nfs/bkarasulu/CARBON/AIRSS/Generating-Clusters/ReaxFF-fromJPCA2015/Units_Real/with-SteepDescent/Only-C1/SD-CG/Try1-3A/FIRE-CG
REM
REM
REM
REM
REM
REM ./C.cell (11c1c37f851c82e70ff6c80c92926a4b)
REM
REM compiler GCC version 9.2.1 20190827 (Red Hat 9.2.1-1)
REM options -cpp -mtune=generic -march=x86-64 -g -O0 -fpre-include=/usr/include/finclude/math-vector-fortran.h
REM seed 652675664 599928320 -1862580538 779789257 688860596 -978800761 -1211684212 -1808120774 -551441457 949292607 -728729460 408669554 -1366590221 1522241039 1440910660 887650842 -1870374404 -1548113967 -1883570519 1325235753 2061080095 1370929599 1477598458 1160691762 -131576129 1396099417 -1572339815 1677740171 793683858 2017065460 1639199862 1924976344 -611096577
REM
CELL 1.54180   50.00000   50.00000   50.00000   90.00000   90.00000   90.00000
LATT -1
SFAC C  
C      1  0.4841610000000  0.5152860000000  0.4658540000000 1.0
C      1  0.5240600000000  0.4459950000000  0.4894520000000 1.0
C      1  0.4499340000000  0.5185860000000  0.4441790000000 1.0
C      1  0.4664440000000  0.4935790000000  0.5023470000000 1.0
C      1  0.4314490000000  0.4482320000000  0.4960700000000 1.0
C      1  0.4678130000000  0.4332110000000  0.5212950000000 1.0
C      1  0.4851420000000  0.5361830000000  0.4463950000000 1.0
C      1  0.5253940000000  0.5495350000000  0.4601840000000 1.0
C      1  0.4972480000000  0.4984590000000  0.5410170000000 1.0
C      1  0.5772550000000  0.5201120000000  0.4901130000000 1.0
C      1  0.4377620000000  0.4563260000000  0.4559330000000 1.0
C      1  0.4707150000000  0.4975050000000  0.4434200000000 1.0
C      1  0.5148780000000  0.5616280000000  0.5770620000000 1.0
C      1  0.5027060000000  0.5166930000000  0.5168120000000 1.0
C      1  0.4659830000000  0.4687710000000  0.4575850000000 1.0
C      1  0.4456270000000  0.4345790000000  0.4731760000000 1.0
C      1  0.5060400000000  0.5202450000000  0.4304140000000 1.0
C      1  0.4084840000000  0.5122580000000  0.4990160000000 1.0
C      1  0.5493580000000  0.4783880000000  0.4737730000000 1.0
C      1  0.5525040000000  0.4520180000000  0.4873390000000 1.0
C      1  0.5261470000000  0.5175610000000  0.5013460000000 1.0
C      1  0.5576270000000  0.4543740000000  0.5361740000000 1.0
C      1  0.5071140000000  0.4308070000000  0.5075080000000 1.0
C      1  0.5274310000000  0.5686640000000  0.5167480000000 1.0
C      1  0.4116370000000  0.4953590000000  0.4740830000000 1.0
C      1  0.5643170000000  0.5458090000000  0.4953880000000 1.0
C      1  0.4859050000000  0.4498080000000  0.4501890000000 1.0
C      1  0.4412810000000  0.5037720000000  0.5436060000000 1.0
C      1  0.5564990000000  0.5422640000000  0.5466510000000 1.0
C      1  0.4973510000000  0.4930530000000  0.4284810000000 1.0
C      1  0.5555600000000  0.5116190000000  0.4429640000000 1.0
C      1  0.5128660000000  0.4506790000000  0.5525220000000 1.0
C      1  0.5376420000000  0.5404980000000  0.4853540000000 1.0
C      1  0.4867770000000  0.5131930000000  0.4940870000000 1.0
C      1  0.4446230000000  0.4514460000000  0.5221560000000 1.0
C      1  0.5353310000000  0.4709430000000  0.4456470000000 1.0
C      1  0.5820090000000  0.4786570000000  0.5127360000000 1.0
C      1  0.5719220000000  0.4525650000000  0.5098290000000 1.0
C      1  0.5093180000000  0.5316460000000  0.5750150000000 1.0
C      1  0.4219830000000  0.5079610000000  0.5236100000000 1.0
C      1  0.5319220000000  0.5295150000000  0.4398210000000 1.0
C      1  0.4613360000000  0.5266480000000  0.5510360000000 1.0
C      1  0.4972970000000  0.5566780000000  0.4642470000000 1.0
C      1  0.4815690000000  0.4235880000000  0.4965580000000 1.0
C      1  0.4794490000000  0.4748330000000  0.4844600000000 1.0
C      1  0.5531300000000  0.5583530000000  0.5205910000000 1.0
C      1  0.5399660000000  0.4808390000000  0.5331100000000 1.0
C      1  0.5514840000000  0.5018200000000  0.5438540000000 1.0
C      1  0.5359500000000  0.5417450000000  0.5676030000000 1.0
C      1  0.4248230000000  0.5330990000000  0.4841550000000 1.0
C      1  0.4500840000000  0.4754780000000  0.5391530000000 1.0
C      1  0.5012690000000  0.5763160000000  0.5119690000000 1.0
C      1  0.4865920000000  0.5185900000000  0.5622980000000 1.0
C      1  0.4862620000000  0.5634920000000  0.4902600000000 1.0
C      1  0.4820380000000  0.5743540000000  0.5370300000000 1.0
C      1  0.4488050000000  0.5256650000000  0.4982700000000 1.0
C      1  0.5665910000000  0.5033030000000  0.4686080000000 1.0
C      1  0.5716160000000  0.5174320000000  0.5402800000000 1.0
C      1  0.5860530000000  0.5060430000000  0.5149840000000 1.0
C      1  0.4979000000000  0.5727610000000  0.5593480000000 1.0
C      1  0.5186890000000  0.4790360000000  0.5509060000000 1.0
C      1  0.5065770000000  0.4674150000000  0.4393290000000 1.0
C      1  0.5390850000000  0.4357880000000  0.5499640000000 1.0
C      1  0.4195340000000  0.4674210000000  0.4758310000000 1.0
C      1  0.4928070000000  0.4476370000000  0.5299770000000 1.0
C      1  0.4767480000000  0.4793850000000  0.5283920000000 1.0
C      1  0.5077130000000  0.4712180000000  0.4889540000000 1.0
C      1  0.4638510000000  0.5496200000000  0.5055700000000 1.0
C      1  0.4634730000000  0.5511710000000  0.5350480000000 1.0
C      1  0.5517070000000  0.4859030000000  0.4263040000000 1.0
C      1  0.4251590000000  0.5175600000000  0.4577180000000 1.0
C      1  0.5295770000000  0.4884570000000  0.4999640000000 1.0
C      1  0.4746480000000  0.4305760000000  0.4688760000000 1.0
END
