TITL C-883729-9652-312 -6.85069176660114 125000 -5741.77803703906 0 0 40 (C1) n - 1
REM
REM in /home/nfs/bkarasulu/CARBON/AIRSS/Generating-Clusters/ReaxFF-fromJPCA2015/Units_Real/with-SteepDescent/Only-C1/SD-CG/Try1-3A/FIRE-CG
REM
REM
REM
REM
REM
REM ./C.cell (11c1c37f851c82e70ff6c80c92926a4b)
REM
REM compiler GCC version 9.2.1 20190827 (Red Hat 9.2.1-1)
REM options -cpp -mtune=generic -march=x86-64 -g -O0 -fpre-include=/usr/include/finclude/math-vector-fortran.h
REM seed 1882385161 354920544 917278336 1859237147 269630633 -1843180062 -191571782 -1157408690 460708372 -847377850 -181850 1944409459 -1979821642 -744080192 -1568513156 1843519321 2031622012 -1541212216 -1091974455 1250221871 -423368561 1902151140 -594463835 418769067 1222243570 -402809091 822906278 -1832641091 -820355511 526931316 -969046765 -1138767510 1758132254
REM
CELL 1.54180   50.00000   50.00000   50.00000   90.00000   90.00000   90.00000
LATT -1
SFAC C  
C      1  0.4433820000000  0.5079540000000  0.4710910000000 1.0
C      1  0.4994400000000  0.4876630000000  0.5312560000000 1.0
C      1  0.5501920000000  0.5245690000000  0.4562160000000 1.0
C      1  0.4474470000000  0.4664540000000  0.5353620000000 1.0
C      1  0.4826610000000  0.4723550000000  0.4824980000000 1.0
C      1  0.5086600000000  0.4224320000000  0.4768850000000 1.0
C      1  0.4855050000000  0.4307590000000  0.4815780000000 1.0
C      1  0.4784680000000  0.5608950000000  0.5054990000000 1.0
C      1  0.4846360000000  0.4846060000000  0.4555880000000 1.0
C      1  0.5440120000000  0.4598710000000  0.5185480000000 1.0
C      1  0.5307920000000  0.5278200000000  0.5065790000000 1.0
C      1  0.4955710000000  0.5228800000000  0.4666310000000 1.0
C      1  0.5238260000000  0.5473220000000  0.5299560000000 1.0
C      1  0.4960050000000  0.5581390000000  0.5273510000000 1.0
C      1  0.5385240000000  0.5381830000000  0.5678360000000 1.0
C      1  0.4515310000000  0.5397470000000  0.5278050000000 1.0
C      1  0.5570630000000  0.4821730000000  0.5038990000000 1.0
C      1  0.4411340000000  0.5340140000000  0.4785800000000 1.0
C      1  0.5380290000000  0.4973390000000  0.4531090000000 1.0
C      1  0.4530830000000  0.4955910000000  0.5393130000000 1.0
C      1  0.5049460000000  0.5165830000000  0.4933460000000 1.0
C      1  0.5281300000000  0.4829340000000  0.5338100000000 1.0
C      1  0.4529120000000  0.5522020000000  0.4999490000000 1.0
C      1  0.4300430000000  0.5130220000000  0.4953780000000 1.0
C      1  0.5441960000000  0.5024590000000  0.5196130000000 1.0
C      1  0.5363500000000  0.4302190000000  0.4728090000000 1.0
C      1  0.5088350000000  0.5009700000000  0.4511400000000 1.0
C      1  0.4944600000000  0.4913510000000  0.5020730000000 1.0
C      1  0.5724970000000  0.5338590000000  0.4709790000000 1.0
C      1  0.4783630000000  0.5357140000000  0.5397580000000 1.0
C      1  0.4660910000000  0.4485020000000  0.4889020000000 1.0
C      1  0.5419360000000  0.4572730000000  0.4636280000000 1.0
C      1  0.5172350000000  0.5382020000000  0.5559530000000 1.0
C      1  0.5366670000000  0.4393810000000  0.5003470000000 1.0
C      1  0.5481380000000  0.5394170000000  0.4821770000000 1.0
C      1  0.4801120000000  0.5064290000000  0.5435340000000 1.0
C      1  0.4691470000000  0.5098870000000  0.4600200000000 1.0
C      1  0.4499770000000  0.4461280000000  0.5145830000000 1.0
C      1  0.5525880000000  0.4801280000000  0.4727890000000 1.0
C      1  0.4374140000000  0.5145740000000  0.5236320000000 1.0
END
