TITL C-884136-4169-206 58.6363375773106 125000 -18544.4597577574 0 0 127 (C1) n - 1
REM
REM in /home/nfs/bkarasulu/CARBON/AIRSS/Generating-Clusters/ReaxFF-fromJPCA2015/Units_Real/with-SteepDescent/Only-C1/SD-CG/Try1-3A/FIRE-CG
REM
REM
REM
REM
REM
REM ./C.cell (11c1c37f851c82e70ff6c80c92926a4b)
REM
REM compiler GCC version 9.2.1 20190827 (Red Hat 9.2.1-1)
REM options -cpp -mtune=generic -march=x86-64 -g -O0 -fpre-include=/usr/include/finclude/math-vector-fortran.h
REM seed 214068926 -258281268 1657904893 1685310817 1532902165 1847560853 -2036338905 -1185400215 -1169443077 -962731246 152855268 132124398 -1295165103 1688340971 -440845703 -1766961670 -302756852 1953857238 -2100391955 1983437747 -1078903308 899376987 664830984 1252769809 -760494095 921763415 -1774962771 -1346075838 -1627485082 -1195160414 -1094725078 -1500649844 165897015
REM
CELL 1.54180   50.00000   50.00000   50.00000   90.00000   90.00000   90.00000
LATT -1
SFAC C  
C      1  0.5807320000000  0.4418260000000  0.5080850000000 1.0
C      1  0.4387800000000  0.4903600000000  0.5052930000000 1.0
C      1  0.4990610000000  0.4975250000000  0.4538540000000 1.0
C      1  0.5377520000000  0.4154660000000  0.5082210000000 1.0
C      1  0.5630180000000  0.5617690000000  0.4561570000000 1.0
C      1  0.4555730000000  0.5210110000000  0.5864580000000 1.0
C      1  0.4656900000000  0.4711780000000  0.5333430000000 1.0
C      1  0.5476660000000  0.5062250000000  0.4865610000000 1.0
C      1  0.4338020000000  0.4349440000000  0.5124030000000 1.0
C      1  0.5267110000000  0.5139360000000  0.5039660000000 1.0
C      1  0.4900830000000  0.4206180000000  0.4506230000000 1.0
C      1  0.5147300000000  0.5291400000000  0.5392150000000 1.0
C      1  0.4565270000000  0.4652750000000  0.4642970000000 1.0
C      1  0.4941840000000  0.4798050000000  0.5360570000000 1.0
C      1  0.5586770000000  0.5337880000000  0.4485260000000 1.0
C      1  0.4287240000000  0.4783280000000  0.5779920000000 1.0
C      1  0.4474080000000  0.4941140000000  0.5330210000000 1.0
C      1  0.4262790000000  0.5461980000000  0.5161160000000 1.0
C      1  0.5125490000000  0.4420080000000  0.4455680000000 1.0
C      1  0.4221450000000  0.5372220000000  0.4452550000000 1.0
C      1  0.5399200000000  0.5790960000000  0.4566040000000 1.0
C      1  0.4941690000000  0.4815970000000  0.4079170000000 1.0
C      1  0.5842560000000  0.4877020000000  0.5377960000000 1.0
C      1  0.4137600000000  0.5000390000000  0.4983320000000 1.0
C      1  0.5486620000000  0.5748270000000  0.5305300000000 1.0
C      1  0.4786030000000  0.5022060000000  0.4932710000000 1.0
C      1  0.4150810000000  0.4665450000000  0.5319720000000 1.0
C      1  0.4578570000000  0.4445090000000  0.5259240000000 1.0
C      1  0.4605340000000  0.5828350000000  0.5094710000000 1.0
C      1  0.5987280000000  0.5170330000000  0.4951440000000 1.0
C      1  0.5507030000000  0.5389760000000  0.4232670000000 1.0
C      1  0.4764650000000  0.5091800000000  0.4641360000000 1.0
C      1  0.4809870000000  0.5353560000000  0.5888500000000 1.0
C      1  0.5069210000000  0.4596240000000  0.4727990000000 1.0
C      1  0.4128640000000  0.4541630000000  0.5063990000000 1.0
C      1  0.4048230000000  0.5236930000000  0.4669270000000 1.0
C      1  0.5363990000000  0.5159710000000  0.4612750000000 1.0
C      1  0.5042110000000  0.4946020000000  0.5067570000000 1.0
C      1  0.5638820000000  0.4821160000000  0.5592900000000 1.0
C      1  0.5334130000000  0.5258940000000  0.4063020000000 1.0
C      1  0.4939190000000  0.4078790000000  0.5197570000000 1.0
C      1  0.5770150000000  0.4708870000000  0.5148810000000 1.0
C      1  0.5859390000000  0.4845810000000  0.4478000000000 1.0
C      1  0.5604000000000  0.4379940000000  0.4640430000000 1.0
C      1  0.5914370000000  0.4948770000000  0.4749830000000 1.0
C      1  0.4331610000000  0.4589760000000  0.5556880000000 1.0
C      1  0.4523300000000  0.4496170000000  0.4264970000000 1.0
C      1  0.4699080000000  0.5611650000000  0.4576110000000 1.0
C      1  0.4538150000000  0.5648910000000  0.4827140000000 1.0
C      1  0.5211510000000  0.4756300000000  0.4919710000000 1.0
C      1  0.5588960000000  0.5510440000000  0.5727100000000 1.0
C      1  0.5290220000000  0.5182310000000  0.5865670000000 1.0
C      1  0.5466490000000  0.4996350000000  0.4111340000000 1.0
C      1  0.5947930000000  0.4487610000000  0.4844810000000 1.0
C      1  0.4604080000000  0.5191750000000  0.5390940000000 1.0
C      1  0.5817440000000  0.5340190000000  0.5419520000000 1.0
C      1  0.5690340000000  0.5612110000000  0.5464150000000 1.0
C      1  0.5029180000000  0.5918210000000  0.4827640000000 1.0
C      1  0.4738210000000  0.4701050000000  0.5846980000000 1.0
C      1  0.5512390000000  0.5778030000000  0.5020610000000 1.0
C      1  0.5119590000000  0.4560690000000  0.5326940000000 1.0
C      1  0.5411970000000  0.4348550000000  0.4429360000000 1.0
C      1  0.4093960000000  0.4652780000000  0.4776970000000 1.0
C      1  0.4631080000000  0.4481910000000  0.5682410000000 1.0
C      1  0.4299580000000  0.4601840000000  0.4587900000000 1.0
C      1  0.5133590000000  0.5391060000000  0.4689040000000 1.0
C      1  0.4588360000000  0.5625050000000  0.5560220000000 1.0
C      1  0.4051250000000  0.4957560000000  0.5267580000000 1.0
C      1  0.4919560000000  0.5809150000000  0.4578820000000 1.0
C      1  0.4973990000000  0.5416400000000  0.5207930000000 1.0
C      1  0.4839820000000  0.5593790000000  0.5719570000000 1.0
C      1  0.5186280000000  0.4759990000000  0.5803730000000 1.0
C      1  0.5230370000000  0.5816090000000  0.5459760000000 1.0
C      1  0.5013550000000  0.5147930000000  0.5842670000000 1.0
C      1  0.5859030000000  0.5405770000000  0.4919630000000 1.0
C      1  0.5682580000000  0.4862060000000  0.4904470000000 1.0
C      1  0.5317800000000  0.4452300000000  0.5502980000000 1.0
C      1  0.4294550000000  0.5582110000000  0.4669020000000 1.0
C      1  0.5320990000000  0.5888360000000  0.4827670000000 1.0
C      1  0.5380460000000  0.5130970000000  0.5447520000000 1.0
C      1  0.4173310000000  0.5218280000000  0.5324570000000 1.0
C      1  0.4064600000000  0.4937850000000  0.4705740000000 1.0
C      1  0.4749370000000  0.4289870000000  0.5065320000000 1.0
C      1  0.5289960000000  0.4504970000000  0.4237210000000 1.0
C      1  0.5342660000000  0.4661230000000  0.5161310000000 1.0
C      1  0.4922420000000  0.4477230000000  0.4902200000000 1.0
C      1  0.5232830000000  0.4775700000000  0.4182540000000 1.0
C      1  0.4843440000000  0.5077340000000  0.4091090000000 1.0
C      1  0.4952200000000  0.5559310000000  0.4247810000000 1.0
C      1  0.4705810000000  0.5277300000000  0.5122690000000 1.0
C      1  0.5717910000000  0.5632440000000  0.4852350000000 1.0
C      1  0.5120810000000  0.5649440000000  0.5685550000000 1.0
C      1  0.4867140000000  0.5956070000000  0.5070600000000 1.0
C      1  0.5620350000000  0.5236890000000  0.5616840000000 1.0
C      1  0.5320900000000  0.4196410000000  0.5377310000000 1.0
C      1  0.5167310000000  0.5409830000000  0.4991880000000 1.0
C      1  0.5148700000000  0.5662100000000  0.4492280000000 1.0
C      1  0.4625720000000  0.4356480000000  0.4507490000000 1.0
C      1  0.4108870000000  0.5457630000000  0.4852730000000 1.0
C      1  0.4384700000000  0.5209460000000  0.4305810000000 1.0
C      1  0.5314950000000  0.5472650000000  0.5818860000000 1.0
C      1  0.4459690000000  0.4168750000000  0.4922900000000 1.0
C      1  0.4957300000000  0.4904140000000  0.5682190000000 1.0
C      1  0.4523260000000  0.4922340000000  0.5898440000000 1.0
C      1  0.5213410000000  0.4910860000000  0.4473410000000 1.0
C      1  0.4882150000000  0.4348670000000  0.5661050000000 1.0
C      1  0.4496420000000  0.5348320000000  0.5609460000000 1.0
C      1  0.4546330000000  0.5041150000000  0.4159990000000 1.0
C      1  0.5010410000000  0.4529040000000  0.5858100000000 1.0
C      1  0.4851740000000  0.5365740000000  0.4605700000000 1.0
C      1  0.5034030000000  0.5978500000000  0.5319740000000 1.0
C      1  0.5670370000000  0.4930050000000  0.4289740000000 1.0
C      1  0.5012310000000  0.4078580000000  0.4722230000000 1.0
C      1  0.5921310000000  0.5131050000000  0.5247240000000 1.0
C      1  0.4422790000000  0.4138260000000  0.4648490000000 1.0
C      1  0.5130030000000  0.4024300000000  0.4981390000000 1.0
C      1  0.5034620000000  0.4155790000000  0.5456160000000 1.0
C      1  0.4485710000000  0.4749840000000  0.4145830000000 1.0
C      1  0.5589080000000  0.4281320000000  0.4929880000000 1.0
C      1  0.4600930000000  0.4805750000000  0.4888300000000 1.0
C      1  0.4491390000000  0.5407570000000  0.4979180000000 1.0
C      1  0.4726910000000  0.4620430000000  0.4092300000000 1.0
C      1  0.5428850000000  0.4828110000000  0.5392160000000 1.0
C      1  0.5843840000000  0.4550600000000  0.4587510000000 1.0
C      1  0.5024870000000  0.5317750000000  0.4105620000000 1.0
C      1  0.4480540000000  0.5688370000000  0.5299440000000 1.0
C      1  0.5440110000000  0.4921870000000  0.5809200000000 1.0
END
