TITL C-883731-9874-256 82.3138151583303 125000 -25139.8536227138 0 0 166 (C1) n - 1
REM
REM in /home/nfs/bkarasulu/CARBON/AIRSS/Generating-Clusters/ReaxFF-fromJPCA2015/Units_Real/with-SteepDescent/Only-C1/SD-CG/Try1-3A/FIRE-CG
REM
REM
REM
REM
REM
REM ./C.cell (11c1c37f851c82e70ff6c80c92926a4b)
REM
REM compiler GCC version 9.2.1 20190827 (Red Hat 9.2.1-1)
REM options -cpp -mtune=generic -march=x86-64 -g -O0 -fpre-include=/usr/include/finclude/math-vector-fortran.h
REM seed 1469174386 -497898081 386798332 566678863 1430686198 1461244601 -795449289 -127179924 -2055206839 -385765049 -662711315 1428828463 1389104052 -1897220644 648263191 589998232 1011197214 1380127925 -1729114850 1848892126 1575060065 -829878383 1861832365 1342076986 -405830985 -579290130 855091607 1301219658 -1032191176 -1921173510 -394415052 -541035669 -368407262
REM
CELL 1.54180   50.00000   50.00000   50.00000   90.00000   90.00000   90.00000
LATT -1
SFAC C  
C      1  0.5201440000000  0.3915670000000  0.5312320000000 1.0
C      1  0.6013940000000  0.5688650000000  0.4680270000000 1.0
C      1  0.4784300000000  0.5403330000000  0.5950340000000 1.0
C      1  0.4053040000000  0.4421060000000  0.4667380000000 1.0
C      1  0.5567120000000  0.4144290000000  0.5366920000000 1.0
C      1  0.4823390000000  0.6056060000000  0.5340960000000 1.0
C      1  0.5102430000000  0.4827720000000  0.4506850000000 1.0
C      1  0.5756600000000  0.4779500000000  0.5664610000000 1.0
C      1  0.4614900000000  0.5922350000000  0.5492160000000 1.0
C      1  0.5185040000000  0.5692220000000  0.5785070000000 1.0
C      1  0.4608970000000  0.5277400000000  0.5070170000000 1.0
C      1  0.4676280000000  0.4441200000000  0.5808170000000 1.0
C      1  0.5507810000000  0.5786610000000  0.4605930000000 1.0
C      1  0.5375100000000  0.4552850000000  0.5293720000000 1.0
C      1  0.4593160000000  0.5424490000000  0.4168190000000 1.0
C      1  0.5141550000000  0.5854020000000  0.4226840000000 1.0
C      1  0.4222230000000  0.4991160000000  0.4686100000000 1.0
C      1  0.5267940000000  0.5651180000000  0.4070050000000 1.0
C      1  0.5466220000000  0.5267480000000  0.4323180000000 1.0
C      1  0.5880130000000  0.4468690000000  0.5211670000000 1.0
C      1  0.5056080000000  0.5037240000000  0.4914300000000 1.0
C      1  0.4169000000000  0.4852810000000  0.4957710000000 1.0
C      1  0.4087740000000  0.5479870000000  0.4911520000000 1.0
C      1  0.4905700000000  0.5138980000000  0.5978630000000 1.0
C      1  0.5525190000000  0.4940280000000  0.4848600000000 1.0
C      1  0.3936890000000  0.4920480000000  0.5386780000000 1.0
C      1  0.5015460000000  0.5136680000000  0.4216020000000 1.0
C      1  0.5688490000000  0.4357720000000  0.4431360000000 1.0
C      1  0.4468580000000  0.5255730000000  0.5631540000000 1.0
C      1  0.4671930000000  0.5730290000000  0.5702250000000 1.0
C      1  0.4903490000000  0.5666330000000  0.5872750000000 1.0
C      1  0.5194070000000  0.5454430000000  0.5302340000000 1.0
C      1  0.4858260000000  0.4912190000000  0.5551190000000 1.0
C      1  0.4628400000000  0.4877320000000  0.4666850000000 1.0
C      1  0.5276910000000  0.3854280000000  0.5018700000000 1.0
C      1  0.4848940000000  0.3813780000000  0.5646140000000 1.0
C      1  0.4795390000000  0.4867080000000  0.5970730000000 1.0
C      1  0.5178320000000  0.4400790000000  0.4340710000000 1.0
C      1  0.4663180000000  0.4950070000000  0.4050540000000 1.0
C      1  0.4687280000000  0.5950470000000  0.4575790000000 1.0
C      1  0.5222520000000  0.4521510000000  0.4810250000000 1.0
C      1  0.4320170000000  0.4777640000000  0.5692080000000 1.0
C      1  0.5234210000000  0.5888790000000  0.5573760000000 1.0
C      1  0.5469660000000  0.4676150000000  0.4754720000000 1.0
C      1  0.4194490000000  0.5254750000000  0.5617020000000 1.0
C      1  0.4616140000000  0.5373540000000  0.4756000000000 1.0
C      1  0.4711510000000  0.4647860000000  0.4758670000000 1.0
C      1  0.5501970000000  0.5039730000000  0.5299190000000 1.0
C      1  0.4891480000000  0.4772820000000  0.3990580000000 1.0
C      1  0.4818440000000  0.5326740000000  0.5225350000000 1.0
C      1  0.5534590000000  0.5193520000000  0.4860570000000 1.0
C      1  0.4118540000000  0.4830670000000  0.4459040000000 1.0
C      1  0.6063090000000  0.4922070000000  0.5077540000000 1.0
C      1  0.4802390000000  0.4509640000000  0.4077630000000 1.0
C      1  0.5319660000000  0.4832790000000  0.5228860000000 1.0
C      1  0.5377630000000  0.4319620000000  0.4166640000000 1.0
C      1  0.4548160000000  0.4194180000000  0.4469440000000 1.0
C      1  0.5763460000000  0.5654250000000  0.4511460000000 1.0
C      1  0.4378380000000  0.5902290000000  0.5310140000000 1.0
C      1  0.4418120000000  0.5590210000000  0.4674940000000 1.0
C      1  0.5360980000000  0.5654780000000  0.4824720000000 1.0
C      1  0.5338580000000  0.4068450000000  0.5519290000000 1.0
C      1  0.4716060000000  0.5155840000000  0.4264650000000 1.0
C      1  0.4785320000000  0.4102640000000  0.4853930000000 1.0
C      1  0.5835840000000  0.4876550000000  0.4353730000000 1.0
C      1  0.5650710000000  0.4769070000000  0.4144210000000 1.0
C      1  0.6093030000000  0.5168750000000  0.5245470000000 1.0
C      1  0.6053110000000  0.4924680000000  0.4787800000000 1.0
C      1  0.4910070000000  0.4638950000000  0.5447250000000 1.0
C      1  0.4554710000000  0.5467520000000  0.5779660000000 1.0
C      1  0.5477640000000  0.5913900000000  0.5418450000000 1.0
C      1  0.5497110000000  0.4323200000000  0.5111180000000 1.0
C      1  0.4469910000000  0.4334530000000  0.5145260000000 1.0
C      1  0.4935560000000  0.4042700000000  0.5296480000000 1.0
C      1  0.5860570000000  0.5583150000000  0.5297050000000 1.0
C      1  0.5347230000000  0.5458130000000  0.5810620000000 1.0
C      1  0.5621940000000  0.4462030000000  0.4158000000000 1.0
C      1  0.4385800000000  0.4390780000000  0.4327390000000 1.0
C      1  0.4115440000000  0.4981150000000  0.5613920000000 1.0
C      1  0.4564190000000  0.4725440000000  0.5844540000000 1.0
C      1  0.4868220000000  0.6095110000000  0.5058990000000 1.0
C      1  0.4421300000000  0.5912960000000  0.5011030000000 1.0
C      1  0.5082930000000  0.5680670000000  0.5175780000000 1.0
C      1  0.4071590000000  0.5469830000000  0.5444150000000 1.0
C      1  0.4462680000000  0.5786980000000  0.4459590000000 1.0
C      1  0.5919070000000  0.4747880000000  0.5230360000000 1.0
C      1  0.4323990000000  0.4203730000000  0.4964270000000 1.0
C      1  0.5053980000000  0.5897300000000  0.5354730000000 1.0
C      1  0.5504190000000  0.5204620000000  0.4031020000000 1.0
C      1  0.4187630000000  0.4977400000000  0.4222780000000 1.0
C      1  0.5074520000000  0.5094850000000  0.5604710000000 1.0
C      1  0.6043740000000  0.5443100000000  0.5135500000000 1.0
C      1  0.4517980000000  0.4553610000000  0.4132320000000 1.0
C      1  0.5003060000000  0.5310250000000  0.5436090000000 1.0
C      1  0.5186180000000  0.6145260000000  0.4996630000000 1.0
C      1  0.5973870000000  0.5220670000000  0.5497460000000 1.0
C      1  0.5724610000000  0.5377600000000  0.4414910000000 1.0
C      1  0.5047450000000  0.4845700000000  0.5099380000000 1.0
C      1  0.4557960000000  0.4256590000000  0.5622360000000 1.0
C      1  0.5216550000000  0.3999780000000  0.4779550000000 1.0
C      1  0.5133270000000  0.4935430000000  0.4040900000000 1.0
C      1  0.4994730000000  0.4642660000000  0.4699660000000 1.0
C      1  0.5416140000000  0.6048340000000  0.5176340000000 1.0
C      1  0.4902190000000  0.5472490000000  0.4749410000000 1.0
C      1  0.5441860000000  0.5326450000000  0.5238440000000 1.0
C      1  0.5914130000000  0.5156830000000  0.4423670000000 1.0
C      1  0.4950880000000  0.4018190000000  0.4634730000000 1.0
C      1  0.4277700000000  0.4630850000000  0.5431140000000 1.0
C      1  0.3942940000000  0.5078760000000  0.5118170000000 1.0
C      1  0.4824240000000  0.4135900000000  0.4396390000000 1.0
C      1  0.5166990000000  0.4498690000000  0.5480760000000 1.0
C      1  0.5067650000000  0.5669370000000  0.4885050000000 1.0
C      1  0.4008890000000  0.5375620000000  0.5160460000000 1.0
C      1  0.4519810000000  0.5039920000000  0.5217230000000 1.0
C      1  0.4133860000000  0.4523790000000  0.4428380000000 1.0
C      1  0.5681030000000  0.5678880000000  0.5477160000000 1.0
C      1  0.4725450000000  0.4009810000000  0.5523360000000 1.0
C      1  0.6077620000000  0.5441450000000  0.4829220000000 1.0
C      1  0.3995930000000  0.4611320000000  0.5028520000000 1.0
C      1  0.5920930000000  0.4743860000000  0.4599460000000 1.0
C      1  0.5387630000000  0.4800240000000  0.4496840000000 1.0
C      1  0.5434900000000  0.4919290000000  0.4013800000000 1.0
C      1  0.5754620000000  0.4387610000000  0.4966660000000 1.0
C      1  0.3818130000000  0.5113800000000  0.4835700000000 1.0
C      1  0.4340320000000  0.5424390000000  0.4274320000000 1.0
C      1  0.5686020000000  0.4496050000000  0.5691460000000 1.0
C      1  0.4967850000000  0.4291420000000  0.4190620000000 1.0
C      1  0.5229370000000  0.4264240000000  0.4944180000000 1.0
C      1  0.5408030000000  0.4959480000000  0.5940470000000 1.0
C      1  0.3988300000000  0.4650990000000  0.5315790000000 1.0
C      1  0.4611880000000  0.5051360000000  0.5495190000000 1.0
C      1  0.6067180000000  0.5189740000000  0.4670620000000 1.0
C      1  0.4151080000000  0.5240040000000  0.4351020000000 1.0
C      1  0.4223110000000  0.5684220000000  0.5378300000000 1.0
C      1  0.4247620000000  0.5722510000000  0.4870730000000 1.0
C      1  0.5217040000000  0.4298880000000  0.5714510000000 1.0
C      1  0.5513790000000  0.5438120000000  0.4975670000000 1.0
C      1  0.4870730000000  0.5841370000000  0.4374870000000 1.0
C      1  0.4641480000000  0.5706100000000  0.4233490000000 1.0
C      1  0.4663890000000  0.6006270000000  0.4875410000000 1.0
C      1  0.5309270000000  0.4690550000000  0.5966300000000 1.0
C      1  0.5763080000000  0.4340560000000  0.5452180000000 1.0
C      1  0.4586280000000  0.4578400000000  0.5052560000000 1.0
C      1  0.4932860000000  0.4250200000000  0.5086300000000 1.0
C      1  0.5742530000000  0.4892550000000  0.5392870000000 1.0
C      1  0.4513200000000  0.4131500000000  0.4757900000000 1.0
C      1  0.4956420000000  0.4403100000000  0.5875980000000 1.0
C      1  0.5603810000000  0.5481260000000  0.5692390000000 1.0
C      1  0.4547190000000  0.5101560000000  0.4577130000000 1.0
C      1  0.5438930000000  0.4462370000000  0.5840230000000 1.0
C      1  0.5010820000000  0.4653650000000  0.5992440000000 1.0
C      1  0.5380720000000  0.5449650000000  0.3971570000000 1.0
C      1  0.5204150000000  0.5173860000000  0.5857270000000 1.0
C      1  0.4055170000000  0.4332730000000  0.4925650000000 1.0
C      1  0.5194920000000  0.5206260000000  0.4434350000000 1.0
C      1  0.5216050000000  0.4670980000000  0.4339180000000 1.0
C      1  0.4392360000000  0.4800220000000  0.5145380000000 1.0
C      1  0.5785360000000  0.5245230000000  0.5711660000000 1.0
C      1  0.5674450000000  0.4994430000000  0.5840170000000 1.0
C      1  0.4034570000000  0.5245500000000  0.4680180000000 1.0
C      1  0.5254340000000  0.6250960000000  0.4765860000000 1.0
C      1  0.4865770000000  0.4578450000000  0.5162310000000 1.0
C      1  0.4395720000000  0.4352550000000  0.5410970000000 1.0
C      1  0.5819310000000  0.4467380000000  0.4680590000000 1.0
C      1  0.4409470000000  0.4827630000000  0.4084740000000 1.0
C      1  0.5073190000000  0.5236120000000  0.4721310000000 1.0
END
