TITL C-883731-9874-364 -0.731133235267676 125000 -9770.31724277981 0 0 66 (C1) n - 1
REM
REM in /home/nfs/bkarasulu/CARBON/AIRSS/Generating-Clusters/ReaxFF-fromJPCA2015/Units_Real/with-SteepDescent/Only-C1/SD-CG/Try1-3A/FIRE-CG
REM
REM
REM
REM
REM
REM ./C.cell (11c1c37f851c82e70ff6c80c92926a4b)
REM
REM compiler GCC version 9.2.1 20190827 (Red Hat 9.2.1-1)
REM options -cpp -mtune=generic -march=x86-64 -g -O0 -fpre-include=/usr/include/finclude/math-vector-fortran.h
REM seed -2144467202 -767811978 -77930922 -1043570468 63170189 713144149 1166683260 2143312824 2018525751 1203594008 547529577 -604544076 1795282590 -1359440422 746340177 1012290288 -1749715437 1494858833 363080756 -527839724 1183654516 -1029418659 -1137126147 -572325208 1080397825 -978267965 -1696732255 925130521 -1705164445 872044879 -1571147254 -568558664 -1107404712
REM
CELL 1.54180   50.00000   50.00000   50.00000   90.00000   90.00000   90.00000
LATT -1
SFAC C  
C      1  0.5287050000000  0.4436220000000  0.5240640000000 1.0
C      1  0.5482910000000  0.5406370000000  0.4526020000000 1.0
C      1  0.5189270000000  0.4932590000000  0.4416410000000 1.0
C      1  0.4368050000000  0.4964040000000  0.5329070000000 1.0
C      1  0.5693810000000  0.5270740000000  0.5172180000000 1.0
C      1  0.4532000000000  0.4521980000000  0.5241700000000 1.0
C      1  0.5159530000000  0.4651590000000  0.4338200000000 1.0
C      1  0.4807820000000  0.4428080000000  0.5266370000000 1.0
C      1  0.5111310000000  0.5216760000000  0.5692270000000 1.0
C      1  0.5027930000000  0.5556650000000  0.4570780000000 1.0
C      1  0.5582530000000  0.4636170000000  0.4666380000000 1.0
C      1  0.5289580000000  0.5687910000000  0.4934130000000 1.0
C      1  0.5321160000000  0.4695790000000  0.5685470000000 1.0
C      1  0.4889720000000  0.4518340000000  0.4437700000000 1.0
C      1  0.5752370000000  0.4995710000000  0.5070630000000 1.0
C      1  0.4383700000000  0.4576630000000  0.4989730000000 1.0
C      1  0.5022600000000  0.5283550000000  0.5011440000000 1.0
C      1  0.4483030000000  0.5372470000000  0.5079260000000 1.0
C      1  0.5400970000000  0.4579490000000  0.4464220000000 1.0
C      1  0.5651740000000  0.5458170000000  0.4971020000000 1.0
C      1  0.5477520000000  0.4439100000000  0.4849390000000 1.0
C      1  0.4494620000000  0.4887540000000  0.4421740000000 1.0
C      1  0.4563280000000  0.4614760000000  0.4333600000000 1.0
C      1  0.4183740000000  0.5311630000000  0.5093990000000 1.0
C      1  0.5017220000000  0.4288360000000  0.4606270000000 1.0
C      1  0.4912140000000  0.5406830000000  0.5585780000000 1.0
C      1  0.5637220000000  0.5167830000000  0.4557040000000 1.0
C      1  0.4599790000000  0.5162970000000  0.5298570000000 1.0
C      1  0.4730820000000  0.5008150000000  0.4497140000000 1.0
C      1  0.4241810000000  0.4816780000000  0.4890420000000 1.0
C      1  0.4556690000000  0.5081390000000  0.5788350000000 1.0
C      1  0.5034020000000  0.4477840000000  0.5064670000000 1.0
C      1  0.5344490000000  0.4942180000000  0.5186690000000 1.0
C      1  0.5190610000000  0.5494820000000  0.5156100000000 1.0
C      1  0.4710760000000  0.5609470000000  0.5159220000000 1.0
C      1  0.5604340000000  0.4793620000000  0.5215140000000 1.0
C      1  0.5210810000000  0.5414440000000  0.4399500000000 1.0
C      1  0.4976080000000  0.4735370000000  0.4869690000000 1.0
C      1  0.5314550000000  0.5296940000000  0.5536720000000 1.0
C      1  0.5184950000000  0.4321200000000  0.4834780000000 1.0
C      1  0.5647100000000  0.4943690000000  0.4768740000000 1.0
C      1  0.4852270000000  0.4698400000000  0.5687970000000 1.0
C      1  0.5063130000000  0.5776420000000  0.4768370000000 1.0
C      1  0.5448990000000  0.5384000000000  0.5326260000000 1.0
C      1  0.4463770000000  0.5218870000000  0.4795770000000 1.0
C      1  0.4911680000000  0.5362990000000  0.4761650000000 1.0
C      1  0.4579720000000  0.4786990000000  0.5698440000000 1.0
C      1  0.4435840000000  0.4713180000000  0.5453720000000 1.0
C      1  0.5369750000000  0.5005160000000  0.4898680000000 1.0
C      1  0.5518140000000  0.5598090000000  0.4773420000000 1.0
C      1  0.4644830000000  0.5272840000000  0.5587880000000 1.0
C      1  0.4918950000000  0.4465110000000  0.5529890000000 1.0
C      1  0.4890440000000  0.5091850000000  0.5183920000000 1.0
C      1  0.4693270000000  0.5231740000000  0.4664190000000 1.0
C      1  0.4935820000000  0.5564780000000  0.5337690000000 1.0
C      1  0.5223370000000  0.4468900000000  0.5529940000000 1.0
C      1  0.5084370000000  0.4937180000000  0.5318000000000 1.0
C      1  0.5540630000000  0.4516470000000  0.5127470000000 1.0
C      1  0.4798380000000  0.4706330000000  0.4652630000000 1.0
C      1  0.5152770000000  0.4922480000000  0.4734760000000 1.0
C      1  0.5095010000000  0.5172870000000  0.4269030000000 1.0
C      1  0.4833050000000  0.5072310000000  0.4284040000000 1.0
C      1  0.4354530000000  0.4977810000000  0.4676620000000 1.0
C      1  0.4864420000000  0.5741420000000  0.4969450000000 1.0
C      1  0.4172250000000  0.5009870000000  0.5119170000000 1.0
C      1  0.5084980000000  0.4899780000000  0.5633940000000 1.0
END
