TITL C-883729-9652-424 3.96566666256433 125000 -12154.6572542242 0 0 82 (C1) n - 1
REM
REM in /home/nfs/bkarasulu/CARBON/AIRSS/Generating-Clusters/ReaxFF-fromJPCA2015/Units_Real/with-SteepDescent/Only-C1/SD-CG/Try1-3A/FIRE-CG
REM
REM
REM
REM
REM
REM ./C.cell (11c1c37f851c82e70ff6c80c92926a4b)
REM
REM compiler GCC version 9.2.1 20190827 (Red Hat 9.2.1-1)
REM options -cpp -mtune=generic -march=x86-64 -g -O0 -fpre-include=/usr/include/finclude/math-vector-fortran.h
REM seed -666005475 2082704213 -531370718 2107422116 1522970992 -177434518 2005785512 -1406511011 387346892 -1184187673 -41313653 -203651110 -1373396856 561623150 1481136928 2063374716 -1261976008 1651772271 1481973269 1948093185 -1214154357 -1482582155 -2047540143 766596325 -1133920574 -604534672 900972164 1269340838 2001959005 1575982669 661835456 564089479 271559225
REM
CELL 1.54180   50.00000   50.00000   50.00000   90.00000   90.00000   90.00000
LATT -1
SFAC C  
C      1  0.4875640000000  0.5660550000000  0.4565390000000 1.0
C      1  0.4867660000000  0.4311400000000  0.5380210000000 1.0
C      1  0.5493510000000  0.5290860000000  0.4819870000000 1.0
C      1  0.4252050000000  0.4986270000000  0.5303690000000 1.0
C      1  0.4606080000000  0.4440530000000  0.4921960000000 1.0
C      1  0.5632750000000  0.4365390000000  0.4929280000000 1.0
C      1  0.4542370000000  0.4677660000000  0.5372370000000 1.0
C      1  0.5006300000000  0.5077180000000  0.4595390000000 1.0
C      1  0.5356530000000  0.4527170000000  0.4537460000000 1.0
C      1  0.4692330000000  0.4929490000000  0.4890620000000 1.0
C      1  0.4359000000000  0.5395620000000  0.4718020000000 1.0
C      1  0.5039810000000  0.5301650000000  0.5033650000000 1.0
C      1  0.4919350000000  0.5249530000000  0.5293100000000 1.0
C      1  0.5786030000000  0.4904350000000  0.4920080000000 1.0
C      1  0.4782920000000  0.4833600000000  0.5774860000000 1.0
C      1  0.5567820000000  0.5476120000000  0.5249800000000 1.0
C      1  0.4875620000000  0.5149280000000  0.4837550000000 1.0
C      1  0.5265940000000  0.5162640000000  0.5115720000000 1.0
C      1  0.4886760000000  0.5783310000000  0.5095530000000 1.0
C      1  0.4801760000000  0.4373030000000  0.4708480000000 1.0
C      1  0.4517160000000  0.5099730000000  0.4405650000000 1.0
C      1  0.4274540000000  0.4923340000000  0.5019280000000 1.0
C      1  0.4590720000000  0.4637940000000  0.4471140000000 1.0
C      1  0.5046830000000  0.5672400000000  0.5466860000000 1.0
C      1  0.5176340000000  0.4849140000000  0.4244770000000 1.0
C      1  0.5328670000000  0.5104940000000  0.4328290000000 1.0
C      1  0.5726840000000  0.5024460000000  0.5170900000000 1.0
C      1  0.4773020000000  0.4279560000000  0.5108490000000 1.0
C      1  0.5347750000000  0.4765040000000  0.4703230000000 1.0
C      1  0.4514190000000  0.5568380000000  0.4886410000000 1.0
C      1  0.4324320000000  0.5203740000000  0.4949930000000 1.0
C      1  0.4205420000000  0.4710490000000  0.5371810000000 1.0
C      1  0.4470040000000  0.5168630000000  0.5522340000000 1.0
C      1  0.5147060000000  0.5589040000000  0.4446410000000 1.0
C      1  0.5126950000000  0.5232040000000  0.5771020000000 1.0
C      1  0.4559460000000  0.5267380000000  0.5798860000000 1.0
C      1  0.5251950000000  0.4197890000000  0.4916820000000 1.0
C      1  0.5127390000000  0.5377330000000  0.5505480000000 1.0
C      1  0.4849010000000  0.5245960000000  0.5869130000000 1.0
C      1  0.4560940000000  0.4897460000000  0.5590650000000 1.0
C      1  0.5439020000000  0.4303410000000  0.4714010000000 1.0
C      1  0.5145910000000  0.5359430000000  0.4273420000000 1.0
C      1  0.5160900000000  0.5798950000000  0.5225690000000 1.0
C      1  0.5399130000000  0.5614740000000  0.4589890000000 1.0
C      1  0.4851620000000  0.4505580000000  0.4460400000000 1.0
C      1  0.5411180000000  0.4448270000000  0.5367550000000 1.0
C      1  0.5746030000000  0.5018870000000  0.4645090000000 1.0
C      1  0.4772000000000  0.5700300000000  0.4833980000000 1.0
C      1  0.5405230000000  0.5676340000000  0.5114950000000 1.0
C      1  0.5626760000000  0.4647720000000  0.5041760000000 1.0
C      1  0.4326540000000  0.4544150000000  0.4612480000000 1.0
C      1  0.4865720000000  0.5360140000000  0.4202260000000 1.0
C      1  0.4723230000000  0.5104300000000  0.4203400000000 1.0
C      1  0.5038260000000  0.4425240000000  0.5738630000000 1.0
C      1  0.5448460000000  0.4270410000000  0.5133650000000 1.0
C      1  0.4562750000000  0.4894230000000  0.4614980000000 1.0
C      1  0.5267450000000  0.4979470000000  0.5686180000000 1.0
C      1  0.4944950000000  0.4922180000000  0.5299170000000 1.0
C      1  0.4963380000000  0.4228810000000  0.4897720000000 1.0
C      1  0.5291880000000  0.5056020000000  0.4635340000000 1.0
C      1  0.5555290000000  0.4707240000000  0.5364820000000 1.0
C      1  0.5129140000000  0.4583340000000  0.4356250000000 1.0
C      1  0.4784470000000  0.5666600000000  0.5344880000000 1.0
C      1  0.5017530000000  0.4863640000000  0.5603990000000 1.0
C      1  0.4700620000000  0.5519800000000  0.4387650000000 1.0
C      1  0.4674970000000  0.4450760000000  0.5541440000000 1.0
C      1  0.4656550000000  0.5376640000000  0.5329260000000 1.0
C      1  0.5490270000000  0.4961810000000  0.5488620000000 1.0
C      1  0.5391980000000  0.5256400000000  0.5354750000000 1.0
C      1  0.5156080000000  0.4360400000000  0.5498080000000 1.0
C      1  0.5632600000000  0.5159820000000  0.4421030000000 1.0
C      1  0.4920840000000  0.4940560000000  0.4346280000000 1.0
C      1  0.5612480000000  0.5411040000000  0.4567950000000 1.0
C      1  0.4373560000000  0.4628190000000  0.4895700000000 1.0
C      1  0.4473930000000  0.5365530000000  0.4473670000000 1.0
C      1  0.5195530000000  0.4901650000000  0.5140380000000 1.0
C      1  0.4710420000000  0.4807570000000  0.5149570000000 1.0
C      1  0.4785240000000  0.4533730000000  0.5802500000000 1.0
C      1  0.5329800000000  0.4707240000000  0.4982770000000 1.0
C      1  0.5697080000000  0.5288860000000  0.5069710000000 1.0
C      1  0.5324240000000  0.5538490000000  0.4865390000000 1.0
C      1  0.4468180000000  0.5401600000000  0.5114280000000 1.0
END
