TITL C-884141-4321-184 29.1402729444533 125000 -19297.5250083099 0 0 129 (C1) n - 1
REM
REM in /home/nfs/bkarasulu/CARBON/AIRSS/Generating-Clusters/ReaxFF-fromJPCA2015/Units_Real/with-SteepDescent/Only-C1/SD-CG/Try1-3A/FIRE-CG
REM
REM
REM
REM
REM
REM ./C.cell (11c1c37f851c82e70ff6c80c92926a4b)
REM
REM compiler GCC version 9.2.1 20190827 (Red Hat 9.2.1-1)
REM options -cpp -mtune=generic -march=x86-64 -g -O0 -fpre-include=/usr/include/finclude/math-vector-fortran.h
REM seed -164112000 2031716064 799592943 1872193139 768673767 1529119360 2017683763 1628883387 479591647 -1654064148 -1553541535 232373636 1467117860 -1005801714 1489766210 208210116 105362385 299396225 1473682576 1769210485 -2078380094 -178979670 -600555781 -1593237767 -2099561493 419040072 356047951 2018793354 519078469 1955805744 1934596721 2063699065 45296722
REM
CELL 1.54180   50.00000   50.00000   50.00000   90.00000   90.00000   90.00000
LATT -1
SFAC C  
C      1  0.4783270000000  0.4675200000000  0.4223640000000 1.0
C      1  0.5376850000000  0.4192190000000  0.4664180000000 1.0
C      1  0.4809090000000  0.5853590000000  0.4422640000000 1.0
C      1  0.3974030000000  0.5454160000000  0.4446780000000 1.0
C      1  0.4620960000000  0.4753160000000  0.4690710000000 1.0
C      1  0.5794370000000  0.5194030000000  0.4461310000000 1.0
C      1  0.4410970000000  0.4324060000000  0.5553970000000 1.0
C      1  0.4540100000000  0.5766560000000  0.5075710000000 1.0
C      1  0.5190160000000  0.4296990000000  0.5508010000000 1.0
C      1  0.5502530000000  0.5675610000000  0.5440210000000 1.0
C      1  0.5665190000000  0.4480500000000  0.4731300000000 1.0
C      1  0.4095710000000  0.5225470000000  0.4968160000000 1.0
C      1  0.5270740000000  0.5206200000000  0.4610940000000 1.0
C      1  0.4884640000000  0.5014160000000  0.5430370000000 1.0
C      1  0.4371900000000  0.4192460000000  0.4870500000000 1.0
C      1  0.5516250000000  0.5310260000000  0.4937380000000 1.0
C      1  0.4251260000000  0.4364530000000  0.5071280000000 1.0
C      1  0.5791940000000  0.5629510000000  0.5085500000000 1.0
C      1  0.5653940000000  0.5035940000000  0.4259970000000 1.0
C      1  0.5314830000000  0.4248660000000  0.5246040000000 1.0
C      1  0.5855700000000  0.5013670000000  0.5254840000000 1.0
C      1  0.5268990000000  0.4252800000000  0.4383810000000 1.0
C      1  0.5776910000000  0.5424920000000  0.4901870000000 1.0
C      1  0.5323310000000  0.4940430000000  0.5890630000000 1.0
C      1  0.5179930000000  0.5401980000000  0.6077520000000 1.0
C      1  0.5648390000000  0.5813230000000  0.4899060000000 1.0
C      1  0.4852670000000  0.5011090000000  0.5971020000000 1.0
C      1  0.4276290000000  0.5388270000000  0.5437130000000 1.0
C      1  0.4541200000000  0.5864040000000  0.4573740000000 1.0
C      1  0.4874970000000  0.5108680000000  0.5019870000000 1.0
C      1  0.5880040000000  0.4931090000000  0.4963770000000 1.0
C      1  0.4953320000000  0.5524560000000  0.4789150000000 1.0
C      1  0.5285620000000  0.5486110000000  0.4531200000000 1.0
C      1  0.4802750000000  0.4375710000000  0.4346630000000 1.0
C      1  0.5010550000000  0.4194680000000  0.4290480000000 1.0
C      1  0.4255040000000  0.4661110000000  0.5039520000000 1.0
C      1  0.5014540000000  0.4811690000000  0.5268600000000 1.0
C      1  0.4946710000000  0.4136140000000  0.5579970000000 1.0
C      1  0.5029830000000  0.4909860000000  0.4875310000000 1.0
C      1  0.4639780000000  0.4119360000000  0.5203430000000 1.0
C      1  0.5037200000000  0.5029440000000  0.4594630000000 1.0
C      1  0.4192330000000  0.4612700000000  0.4738570000000 1.0
C      1  0.4534430000000  0.5520610000000  0.5497550000000 1.0
C      1  0.4278580000000  0.4359760000000  0.4639550000000 1.0
C      1  0.4968320000000  0.6017990000000  0.5147440000000 1.0
C      1  0.4871850000000  0.6060500000000  0.4860950000000 1.0
C      1  0.5171980000000  0.5719870000000  0.4726720000000 1.0
C      1  0.5308710000000  0.5390540000000  0.4113110000000 1.0
C      1  0.5442040000000  0.5077580000000  0.4790680000000 1.0
C      1  0.4825360000000  0.4619790000000  0.5149280000000 1.0
C      1  0.4942990000000  0.5162070000000  0.4069290000000 1.0
C      1  0.5187490000000  0.4691180000000  0.5832320000000 1.0
C      1  0.4903420000000  0.4191790000000  0.4824480000000 1.0
C      1  0.5285590000000  0.5723930000000  0.5234360000000 1.0
C      1  0.5177820000000  0.4053910000000  0.4827120000000 1.0
C      1  0.4604620000000  0.5946430000000  0.4850350000000 1.0
C      1  0.4902360000000  0.4667850000000  0.4696930000000 1.0
C      1  0.4555380000000  0.4785270000000  0.5156600000000 1.0
C      1  0.5267270000000  0.4461050000000  0.5043410000000 1.0
C      1  0.5666980000000  0.4741390000000  0.4253720000000 1.0
C      1  0.5945850000000  0.4812550000000  0.4562420000000 1.0
C      1  0.4687420000000  0.5702860000000  0.5319500000000 1.0
C      1  0.4554480000000  0.4974960000000  0.4521550000000 1.0
C      1  0.5324420000000  0.4508890000000  0.5650280000000 1.0
C      1  0.4960620000000  0.4891430000000  0.4044790000000 1.0
C      1  0.4807130000000  0.4397410000000  0.4636320000000 1.0
C      1  0.5806050000000  0.5266060000000  0.5406380000000 1.0
C      1  0.4202830000000  0.4392000000000  0.5357320000000 1.0
C      1  0.5943460000000  0.5058580000000  0.4694890000000 1.0
C      1  0.4207330000000  0.5146490000000  0.5585460000000 1.0
C      1  0.5747070000000  0.5545700000000  0.5342040000000 1.0
C      1  0.4960730000000  0.5510220000000  0.5636670000000 1.0
C      1  0.4691390000000  0.5423880000000  0.5720670000000 1.0
C      1  0.4898420000000  0.4744920000000  0.5863570000000 1.0
C      1  0.5002730000000  0.5435230000000  0.4110290000000 1.0
C      1  0.5724600000000  0.5478660000000  0.4436350000000 1.0
C      1  0.4367960000000  0.5054940000000  0.5813500000000 1.0
C      1  0.5289140000000  0.4859370000000  0.5186950000000 1.0
C      1  0.5247510000000  0.4547680000000  0.4342090000000 1.0
C      1  0.5700630000000  0.4703290000000  0.4924730000000 1.0
C      1  0.5015380000000  0.3868230000000  0.5534060000000 1.0
C      1  0.4643810000000  0.4856010000000  0.5442100000000 1.0
C      1  0.4482720000000  0.5583930000000  0.4591020000000 1.0
C      1  0.4774580000000  0.5430630000000  0.4567900000000 1.0
C      1  0.5508090000000  0.5020980000000  0.5674250000000 1.0
C      1  0.5255220000000  0.4887200000000  0.4018550000000 1.0
C      1  0.5759600000000  0.4796590000000  0.5420450000000 1.0
C      1  0.4133660000000  0.5444430000000  0.5185530000000 1.0
C      1  0.4506170000000  0.4770820000000  0.4310750000000 1.0
C      1  0.5636820000000  0.5284800000000  0.5639650000000 1.0
C      1  0.4852850000000  0.5592090000000  0.4305320000000 1.0
C      1  0.5258590000000  0.5256950000000  0.5344420000000 1.0
C      1  0.4631160000000  0.5174670000000  0.5867560000000 1.0
C      1  0.4996440000000  0.5948360000000  0.4623070000000 1.0
C      1  0.4784620000000  0.5149900000000  0.4532680000000 1.0
C      1  0.5418620000000  0.5120350000000  0.4103810000000 1.0
C      1  0.5016650000000  0.4722800000000  0.4418720000000 1.0
C      1  0.4269010000000  0.4774090000000  0.5771070000000 1.0
C      1  0.4977320000000  0.4429510000000  0.5007640000000 1.0
C      1  0.5460800000000  0.5547750000000  0.4311220000000 1.0
C      1  0.5466280000000  0.5530910000000  0.5681410000000 1.0
C      1  0.4119450000000  0.4858730000000  0.5530600000000 1.0
C      1  0.4354870000000  0.5545780000000  0.5022200000000 1.0
C      1  0.5411090000000  0.4664110000000  0.4132180000000 1.0
C      1  0.4106990000000  0.4667910000000  0.5311640000000 1.0
C      1  0.4697740000000  0.4669530000000  0.5660720000000 1.0
C      1  0.5420130000000  0.5027790000000  0.5388480000000 1.0
C      1  0.4305850000000  0.4608970000000  0.4466290000000 1.0
C      1  0.4231820000000  0.5587520000000  0.4510730000000 1.0
C      1  0.3992040000000  0.5305320000000  0.4712850000000 1.0
C      1  0.4969840000000  0.5801890000000  0.5337990000000 1.0
C      1  0.5125970000000  0.5108790000000  0.6033730000000 1.0
C      1  0.5368490000000  0.5808250000000  0.4965400000000 1.0
C      1  0.5005160000000  0.5268060000000  0.5477580000000 1.0
C      1  0.5792120000000  0.4590720000000  0.4478730000000 1.0
C      1  0.5146340000000  0.3870910000000  0.5323840000000 1.0
C      1  0.5765200000000  0.5622830000000  0.4680770000000 1.0
C      1  0.4393350000000  0.5249750000000  0.4932600000000 1.0
C      1  0.4447280000000  0.4540210000000  0.5745140000000 1.0
C      1  0.4587670000000  0.5063080000000  0.5040530000000 1.0
C      1  0.5201470000000  0.5545220000000  0.5816760000000 1.0
C      1  0.4651160000000  0.4170090000000  0.5465560000000 1.0
C      1  0.5429660000000  0.4816600000000  0.4932150000000 1.0
C      1  0.5267990000000  0.3997320000000  0.5097560000000 1.0
C      1  0.4630710000000  0.4069630000000  0.4944710000000 1.0
C      1  0.5285070000000  0.5403350000000  0.5104040000000 1.0
C      1  0.5595600000000  0.4605290000000  0.5545990000000 1.0
C      1  0.5408690000000  0.4423650000000  0.4797460000000 1.0
C      1  0.5010090000000  0.5366240000000  0.4993640000000 1.0
END
