TITL C-884130-5973-51 3797304.44174934 125000 -12848.0819315687 0 0 87 (C1) n - 1
REM
REM in /home/nfs/bkarasulu/CARBON/AIRSS/Generating-Clusters/ReaxFF-fromJPCA2015/Units_Real/with-SteepDescent/Only-C1/SD-CG/Try1-3A/FIRE-CG
REM
REM
REM
REM
REM
REM ./C.cell (11c1c37f851c82e70ff6c80c92926a4b)
REM
REM compiler GCC version 9.2.1 20190827 (Red Hat 9.2.1-1)
REM options -cpp -mtune=generic -march=x86-64 -g -O0 -fpre-include=/usr/include/finclude/math-vector-fortran.h
REM seed 516204889 416006573 -627709991 1051646877 2010426296 -255676641 -2026709685 -63306769 192972227 1420108934 -773394168 850401730 -151471812 -1952823086 1092664499 -303409788 1303797269 -1541793411 1367589785 2102245331 -839019442 118631744 401907229 -221325245 -2133819855 -663503899 -386525021 -1729187979 1622716515 1335716821 1000374282 386070781 -360879532
REM
CELL 1.54180   50.00000   50.00000   50.00000   90.00000   90.00000   90.00000
LATT -1
SFAC C  
C      1  0.5558300000000  0.5621420000000  0.5170680000000 1.0
C      1  0.4963110000000  0.5225950000000  0.5808920000000 1.0
C      1  0.4249040000000  0.5240110000000  0.4572690000000 1.0
C      1  0.5573440000000  0.5371420000000  0.4793870000000 1.0
C      1  0.5699000000000  0.4908390000000  0.4666510000000 1.0
C      1  0.4743280000000  0.5319880000000  0.5614670000000 1.0
C      1  0.5306950000000  0.5785710000000  0.4759270000000 1.0
C      1  0.5122280000000  0.4152830000000  0.4932330000000 1.0
C      1  0.5151330000000  0.4463110000000  0.4678110000000 1.0
C      1  0.4674170000000  0.4629450000000  0.4789490000000 1.0
C      1  0.4870600000000  0.5637630000000  0.4449310000000 1.0
C      1  0.4430780000000  0.5395690000000  0.5242920000000 1.0
C      1  0.5135850000000  0.5646140000000  0.4568010000000 1.0
C      1  0.5655680000000  0.4866760000000  0.5555570000000 1.0
C      1  0.5308180000000  0.5311200000000  0.4911470000000 1.0
C      1  0.5075130000000  0.5247910000000  0.4381820000000 1.0
C      1  0.4321350000000  0.4998500000000  0.4426650000000 1.0
C      1  0.4202670000000  0.5148450000000  0.4850610000000 1.0
C      1  0.5226420000000  0.4215850000000  0.5410300000000 1.0
C      1  0.4651210000000  0.4220680000000  0.4802950000000 1.0
C      1  0.5322110000000  0.4192250000000  0.5140540000000 1.0
C      1  0.4265860000000  0.4633030000000  0.5022220000000 1.0
C      1  0.5304840000000  0.5699670000000  0.5299720000000 1.0
C      1  0.4428420000000  0.4940660000000  0.5464360000000 1.0
C      1  0.5506670000000  0.4436590000000  0.5135670000000 1.0
C      1  0.4805680000000  0.5722400000000  0.5294600000000 1.0
C      1  0.4324890000000  0.4797070000000  0.5242530000000 1.0
C      1  0.5329660000000  0.4474070000000  0.5522450000000 1.0
C      1  0.5065400000000  0.5839820000000  0.5205480000000 1.0
C      1  0.5679350000000  0.5383290000000  0.5298800000000 1.0
C      1  0.5112690000000  0.5052950000000  0.4252320000000 1.0
C      1  0.4911420000000  0.4382560000000  0.5734360000000 1.0
C      1  0.4895660000000  0.5510770000000  0.5464170000000 1.0
C      1  0.5774940000000  0.5154380000000  0.5141930000000 1.0
C      1  0.5251850000000  0.4662010000000  0.4275190000000 1.0
C      1  0.4827780000000  0.4179430000000  0.4563670000000 1.0
C      1  0.4787860000000  0.4650920000000  0.5758480000000 1.0
C      1  0.5054840000000  0.4763680000000  0.5841320000000 1.0
C      1  0.5660000000000  0.4913500000000  0.5258260000000 1.0
C      1  0.5349250000000  0.4926070000000  0.5156770000000 1.0
C      1  0.5075090000000  0.5870600000000  0.4917220000000 1.0
C      1  0.5179200000000  0.4505090000000  0.5777610000000 1.0
C      1  0.4856390000000  0.5658110000000  0.4899920000000 1.0
C      1  0.4816600000000  0.4410830000000  0.4369330000000 1.0
C      1  0.4291140000000  0.4796760000000  0.4635930000000 1.0
C      1  0.5166350000000  0.5415330000000  0.5823360000000 1.0
C      1  0.4502630000000  0.5234780000000  0.5476150000000 1.0
C      1  0.5120630000000  0.4197990000000  0.4636050000000 1.0
C      1  0.4606260000000  0.5641250000000  0.4584930000000 1.0
C      1  0.4547430000000  0.4889450000000  0.4783830000000 1.0
C      1  0.5348770000000  0.4643500000000  0.5287810000000 1.0
C      1  0.4939370000000  0.4249690000000  0.5474100000000 1.0
C      1  0.5427220000000  0.4990470000000  0.4613350000000 1.0
C      1  0.4844530000000  0.4213570000000  0.5019790000000 1.0
C      1  0.4549420000000  0.5653350000000  0.5155560000000 1.0
C      1  0.4474320000000  0.4448780000000  0.4861640000000 1.0
C      1  0.4131620000000  0.4857070000000  0.4874380000000 1.0
C      1  0.5576380000000  0.5322140000000  0.5568230000000 1.0
C      1  0.5621690000000  0.4608580000000  0.4637270000000 1.0
C      1  0.4437910000000  0.5190820000000  0.5027190000000 1.0
C      1  0.5545120000000  0.5649880000000  0.4879890000000 1.0
C      1  0.4614440000000  0.5302580000000  0.4267770000000 1.0
C      1  0.4436980000000  0.5439010000000  0.4457440000000 1.0
C      1  0.4817680000000  0.4393480000000  0.5250500000000 1.0
C      1  0.4984540000000  0.4925060000000  0.4814760000000 1.0
C      1  0.4895000000000  0.4580430000000  0.4601960000000 1.0
C      1  0.4610820000000  0.5031540000000  0.4369540000000 1.0
C      1  0.5108920000000  0.5354770000000  0.4697750000000 1.0
C      1  0.5584260000000  0.4525210000000  0.4885390000000 1.0
C      1  0.5192560000000  0.5433940000000  0.5397170000000 1.0
C      1  0.4848990000000  0.4907660000000  0.5075060000000 1.0
C      1  0.4574330000000  0.5728290000000  0.4868730000000 1.0
C      1  0.5360380000000  0.4506170000000  0.4505910000000 1.0
C      1  0.5467030000000  0.5067520000000  0.5673840000000 1.0
C      1  0.4738810000000  0.5173430000000  0.5032780000000 1.0
C      1  0.4654070000000  0.4752130000000  0.5515110000000 1.0
C      1  0.5174760000000  0.5016720000000  0.5759840000000 1.0
C      1  0.4894430000000  0.5373750000000  0.4899730000000 1.0
C      1  0.5751520000000  0.5139050000000  0.4844210000000 1.0
C      1  0.4756570000000  0.5011110000000  0.4626460000000 1.0
C      1  0.5375700000000  0.5510100000000  0.5663940000000 1.0
C      1  0.5003730000000  0.4520060000000  0.4169760000000 1.0
C      1  0.4893940000000  0.5400520000000  0.4258910000000 1.0
C      1  0.5265920000000  0.4904750000000  0.4839200000000 1.0
C      1  0.5315710000000  0.4929370000000  0.4325550000000 1.0
C      1  0.4788280000000  0.4690110000000  0.5258780000000 1.0
C      1  0.5254600000000  0.5213000000000  0.5177370000000 1.0
END
