TITL C-883739-1268-193 -2.37240213104676 125000 -13540.3537069604 0 0 92 (C1) n - 1
REM
REM in /home/nfs/bkarasulu/CARBON/AIRSS/Generating-Clusters/ReaxFF-fromJPCA2015/Units_Real/with-SteepDescent/Only-C1/SD-CG/Try1-3A/FIRE-CG
REM
REM
REM
REM
REM
REM ./C.cell (11c1c37f851c82e70ff6c80c92926a4b)
REM
REM compiler GCC version 9.2.1 20190827 (Red Hat 9.2.1-1)
REM options -cpp -mtune=generic -march=x86-64 -g -O0 -fpre-include=/usr/include/finclude/math-vector-fortran.h
REM seed 1484779131 -503570360 -708931749 -63144159 122188287 434639345 785348509 36336632 844630566 1920909686 -1435475255 1172741968 -90834867 1116996363 1220327067 1821742913 999723232 -1425893807 1932300255 -2104416515 -1944997806 1021949213 -1774539260 -740578796 1773271532 -654204266 -981640063 -1793305565 1371067332 -1304302689 -347489663 1223522851 1557321407
REM
CELL 1.54180   50.00000   50.00000   50.00000   90.00000   90.00000   90.00000
LATT -1
SFAC C  
C      1  0.4600020000000  0.5340700000000  0.5038220000000 1.0
C      1  0.5177520000000  0.5153140000000  0.4248430000000 1.0
C      1  0.5145420000000  0.5176780000000  0.4914220000000 1.0
C      1  0.5223210000000  0.4306200000000  0.5369750000000 1.0
C      1  0.4484680000000  0.5823930000000  0.5169270000000 1.0
C      1  0.3950180000000  0.4619600000000  0.4671040000000 1.0
C      1  0.4555430000000  0.4359860000000  0.5090470000000 1.0
C      1  0.5410840000000  0.5315870000000  0.5432590000000 1.0
C      1  0.4704040000000  0.5133490000000  0.5210440000000 1.0
C      1  0.5151290000000  0.4973100000000  0.4477890000000 1.0
C      1  0.5071940000000  0.5612600000000  0.4259110000000 1.0
C      1  0.5205570000000  0.4503030000000  0.4474570000000 1.0
C      1  0.5034990000000  0.5605960000000  0.5630560000000 1.0
C      1  0.5028330000000  0.4279770000000  0.4572090000000 1.0
C      1  0.5680290000000  0.4566900000000  0.5060260000000 1.0
C      1  0.4338900000000  0.4449100000000  0.5226200000000 1.0
C      1  0.4127610000000  0.4800160000000  0.4721040000000 1.0
C      1  0.4315450000000  0.5136860000000  0.5410880000000 1.0
C      1  0.5476460000000  0.5171340000000  0.5715920000000 1.0
C      1  0.4972130000000  0.5110390000000  0.5843880000000 1.0
C      1  0.5521400000000  0.5573140000000  0.4918820000000 1.0
C      1  0.5439340000000  0.4233180000000  0.4912590000000 1.0
C      1  0.5187940000000  0.4719670000000  0.5126570000000 1.0
C      1  0.4727260000000  0.4468120000000  0.5537880000000 1.0
C      1  0.5339460000000  0.5569830000000  0.4384360000000 1.0
C      1  0.5030690000000  0.4258930000000  0.4861160000000 1.0
C      1  0.5878950000000  0.4790010000000  0.4970100000000 1.0
C      1  0.5672420000000  0.4955780000000  0.5669630000000 1.0
C      1  0.5333390000000  0.4728260000000  0.5580920000000 1.0
C      1  0.4726380000000  0.5061130000000  0.4669060000000 1.0
C      1  0.4886140000000  0.4838590000000  0.5758500000000 1.0
C      1  0.5397140000000  0.5713300000000  0.5163310000000 1.0
C      1  0.4540640000000  0.4314900000000  0.5376250000000 1.0
C      1  0.4915610000000  0.4981750000000  0.4871030000000 1.0
C      1  0.5800000000000  0.4809640000000  0.5435390000000 1.0
C      1  0.4884870000000  0.5369010000000  0.5735600000000 1.0
C      1  0.5658700000000  0.5294090000000  0.5312070000000 1.0
C      1  0.5892130000000  0.4966650000000  0.5200430000000 1.0
C      1  0.5684790000000  0.4341670000000  0.4830190000000 1.0
C      1  0.5399420000000  0.4658370000000  0.4958650000000 1.0
C      1  0.5325470000000  0.5062600000000  0.4697530000000 1.0
C      1  0.4672550000000  0.4747330000000  0.5589150000000 1.0
C      1  0.5259390000000  0.4518510000000  0.4161160000000 1.0
C      1  0.5013820000000  0.5685040000000  0.4947740000000 1.0
C      1  0.4777410000000  0.5743130000000  0.5584650000000 1.0
C      1  0.4960340000000  0.5572900000000  0.5219450000000 1.0
C      1  0.4380220000000  0.5518950000000  0.5183480000000 1.0
C      1  0.5020390000000  0.4399110000000  0.5557310000000 1.0
C      1  0.4597040000000  0.4921460000000  0.4432500000000 1.0
C      1  0.5239170000000  0.5589280000000  0.5407730000000 1.0
C      1  0.4663950000000  0.5336370000000  0.4747820000000 1.0
C      1  0.5107690000000  0.5458240000000  0.4798170000000 1.0
C      1  0.5262480000000  0.5139460000000  0.5916700000000 1.0
C      1  0.4795250000000  0.4351470000000  0.4395110000000 1.0
C      1  0.4148010000000  0.5390140000000  0.5014050000000 1.0
C      1  0.4408490000000  0.5401120000000  0.5472780000000 1.0
C      1  0.4193230000000  0.4878410000000  0.5021260000000 1.0
C      1  0.4368780000000  0.4721020000000  0.5178670000000 1.0
C      1  0.4964170000000  0.4732390000000  0.4501610000000 1.0
C      1  0.4626340000000  0.5492570000000  0.5648050000000 1.0
C      1  0.5341070000000  0.5593710000000  0.4685120000000 1.0
C      1  0.4714390000000  0.4616390000000  0.4702610000000 1.0
C      1  0.4972360000000  0.5356650000000  0.4170000000000 1.0
C      1  0.5443280000000  0.4463380000000  0.5481970000000 1.0
C      1  0.5787960000000  0.4864380000000  0.4709100000000 1.0
C      1  0.5434190000000  0.5316000000000  0.4258420000000 1.0
C      1  0.5096050000000  0.4634670000000  0.5720790000000 1.0
C      1  0.4549020000000  0.4410500000000  0.4568210000000 1.0
C      1  0.5218520000000  0.4197070000000  0.5075230000000 1.0
C      1  0.5682740000000  0.5333670000000  0.4897970000000 1.0
C      1  0.5208500000000  0.5148600000000  0.5271980000000 1.0
C      1  0.4593640000000  0.5510470000000  0.4518290000000 1.0
C      1  0.4806510000000  0.4482420000000  0.4958180000000 1.0
C      1  0.5010970000000  0.4615040000000  0.4047030000000 1.0
C      1  0.4522870000000  0.4912040000000  0.5375020000000 1.0
C      1  0.4940150000000  0.5276340000000  0.5273460000000 1.0
C      1  0.5613140000000  0.5106180000000  0.4720490000000 1.0
C      1  0.4170610000000  0.5405950000000  0.4726800000000 1.0
C      1  0.5820750000000  0.5249790000000  0.5153220000000 1.0
C      1  0.4787600000000  0.5543110000000  0.4301900000000 1.0
C      1  0.4374860000000  0.5117460000000  0.4353880000000 1.0
C      1  0.5224300000000  0.5904400000000  0.5023540000000 1.0
C      1  0.4801100000000  0.4632840000000  0.4276190000000 1.0
C      1  0.4307280000000  0.4870280000000  0.4468560000000 1.0
C      1  0.5413720000000  0.4621340000000  0.4677010000000 1.0
C      1  0.5703680000000  0.4584590000000  0.4646420000000 1.0
C      1  0.5694670000000  0.4550630000000  0.5362230000000 1.0
C      1  0.4162120000000  0.5128200000000  0.5155740000000 1.0
C      1  0.5247200000000  0.4875710000000  0.5340740000000 1.0
C      1  0.4328550000000  0.5388900000000  0.4474550000000 1.0
C      1  0.4934650000000  0.4743180000000  0.5023790000000 1.0
C      1  0.4738380000000  0.5801800000000  0.5297330000000 1.0
END
