TITL C-884132-5695-244 46.5091230994081 125000 -16064.4241510953 0 0 109 (C1) n - 1
REM
REM in /home/nfs/bkarasulu/CARBON/AIRSS/Generating-Clusters/ReaxFF-fromJPCA2015/Units_Real/with-SteepDescent/Only-C1/SD-CG/Try1-3A/FIRE-CG
REM
REM
REM
REM
REM
REM ./C.cell (11c1c37f851c82e70ff6c80c92926a4b)
REM
REM compiler GCC version 9.2.1 20190827 (Red Hat 9.2.1-1)
REM options -cpp -mtune=generic -march=x86-64 -g -O0 -fpre-include=/usr/include/finclude/math-vector-fortran.h
REM seed 1688696031 -23216175 -1410634491 -919462888 -1075863872 -2646878 -283660390 1168400431 -1616592362 681731524 -1038388049 647467571 -41959940 -1158958504 1762092117 615754770 -1637413982 386086282 -1586754223 875123409 -300290040 -1087874598 89199068 1309509810 -1687675649 142254123 197908446 -2048075472 -1224677984 -2110401022 855005174 1588142839 1624381888
REM
CELL 1.54180   50.00000   50.00000   50.00000   90.00000   90.00000   90.00000
LATT -1
SFAC C  
C      1  0.5127300000000  0.5834320000000  0.4891000000000 1.0
C      1  0.5686590000000  0.4416740000000  0.5163970000000 1.0
C      1  0.4575220000000  0.4962520000000  0.5692010000000 1.0
C      1  0.5756250000000  0.4781290000000  0.5455360000000 1.0
C      1  0.4394440000000  0.4850320000000  0.4788030000000 1.0
C      1  0.5876520000000  0.5201280000000  0.4848090000000 1.0
C      1  0.5636800000000  0.5615450000000  0.4982370000000 1.0
C      1  0.5350590000000  0.4478190000000  0.5559000000000 1.0
C      1  0.4839580000000  0.5354700000000  0.4064570000000 1.0
C      1  0.5856120000000  0.4620840000000  0.5023250000000 1.0
C      1  0.5074420000000  0.4614220000000  0.4110440000000 1.0
C      1  0.5444200000000  0.4856490000000  0.4851650000000 1.0
C      1  0.5730650000000  0.5440320000000  0.4770110000000 1.0
C      1  0.5050730000000  0.5066560000000  0.5858570000000 1.0
C      1  0.5600120000000  0.4527170000000  0.5433800000000 1.0
C      1  0.5543390000000  0.5453970000000  0.4534960000000 1.0
C      1  0.4946310000000  0.5280070000000  0.5172150000000 1.0
C      1  0.4159770000000  0.4807940000000  0.4969040000000 1.0
C      1  0.5227550000000  0.4863730000000  0.5509250000000 1.0
C      1  0.4269710000000  0.5551620000000  0.4971280000000 1.0
C      1  0.5020900000000  0.5654480000000  0.5622650000000 1.0
C      1  0.5536280000000  0.5222030000000  0.4345380000000 1.0
C      1  0.5762980000000  0.5259070000000  0.5347040000000 1.0
C      1  0.4824880000000  0.5640270000000  0.4526710000000 1.0
C      1  0.5018840000000  0.5401210000000  0.4924750000000 1.0
C      1  0.4630710000000  0.5249110000000  0.5743040000000 1.0
C      1  0.4746900000000  0.4416810000000  0.4435090000000 1.0
C      1  0.5452890000000  0.4439450000000  0.4452880000000 1.0
C      1  0.5417510000000  0.5776630000000  0.4852260000000 1.0
C      1  0.5025630000000  0.4779030000000  0.5880010000000 1.0
C      1  0.4805460000000  0.4592860000000  0.4208920000000 1.0
C      1  0.4821870000000  0.5056830000000  0.4041430000000 1.0
C      1  0.5072120000000  0.5767690000000  0.4605480000000 1.0
C      1  0.5087850000000  0.4245260000000  0.4838240000000 1.0
C      1  0.5268290000000  0.4413700000000  0.4215620000000 1.0
C      1  0.5002540000000  0.4947500000000  0.4411090000000 1.0
C      1  0.4482600000000  0.4441910000000  0.4533240000000 1.0
C      1  0.5087810000000  0.4934460000000  0.4117680000000 1.0
C      1  0.5648640000000  0.5510300000000  0.5255150000000 1.0
C      1  0.5481980000000  0.5030010000000  0.5770950000000 1.0
C      1  0.4416850000000  0.4883430000000  0.4308810000000 1.0
C      1  0.4480030000000  0.5359940000000  0.4885380000000 1.0
C      1  0.5358590000000  0.4333020000000  0.4736810000000 1.0
C      1  0.4681220000000  0.4823960000000  0.5007580000000 1.0
C      1  0.5520340000000  0.4372540000000  0.4949940000000 1.0
C      1  0.5414170000000  0.5167740000000  0.4813670000000 1.0
C      1  0.4497550000000  0.5377500000000  0.4292040000000 1.0
C      1  0.5675220000000  0.5043630000000  0.5559090000000 1.0
C      1  0.5659750000000  0.4968760000000  0.4434610000000 1.0
C      1  0.5150240000000  0.4297040000000  0.5437460000000 1.0
C      1  0.4351960000000  0.5161980000000  0.4383110000000 1.0
C      1  0.5053120000000  0.4240200000000  0.5139120000000 1.0
C      1  0.4418120000000  0.5715040000000  0.5186700000000 1.0
C      1  0.4579620000000  0.4683620000000  0.5274970000000 1.0
C      1  0.4185260000000  0.4563690000000  0.5117910000000 1.0
C      1  0.4694990000000  0.5786620000000  0.5254750000000 1.0
C      1  0.5229470000000  0.4734980000000  0.5268070000000 1.0
C      1  0.4973190000000  0.5802360000000  0.5146020000000 1.0
C      1  0.5177490000000  0.4720530000000  0.4776700000000 1.0
C      1  0.4608010000000  0.4180890000000  0.5442870000000 1.0
C      1  0.5132340000000  0.5693150000000  0.5359140000000 1.0
C      1  0.5104900000000  0.5466580000000  0.5838040000000 1.0
C      1  0.5198910000000  0.4756220000000  0.4492570000000 1.0
C      1  0.5351280000000  0.5471220000000  0.5283570000000 1.0
C      1  0.4874470000000  0.4294310000000  0.5522310000000 1.0
C      1  0.5327140000000  0.5180890000000  0.4149510000000 1.0
C      1  0.4966830000000  0.4654960000000  0.5243070000000 1.0
C      1  0.4058290000000  0.5346450000000  0.4998210000000 1.0
C      1  0.4763350000000  0.5454060000000  0.4768620000000 1.0
C      1  0.5300430000000  0.4732350000000  0.5757310000000 1.0
C      1  0.5378040000000  0.5307750000000  0.5809100000000 1.0
C      1  0.4391340000000  0.4846410000000  0.5455000000000 1.0
C      1  0.5369930000000  0.5691120000000  0.4577840000000 1.0
C      1  0.4352170000000  0.5520270000000  0.5388330000000 1.0
C      1  0.4753740000000  0.5178830000000  0.4636490000000 1.0
C      1  0.5116000000000  0.5110250000000  0.5573220000000 1.0
C      1  0.4836400000000  0.5020360000000  0.5184070000000 1.0
C      1  0.4252620000000  0.5072820000000  0.5318380000000 1.0
C      1  0.4768620000000  0.4763890000000  0.5746780000000 1.0
C      1  0.4783630000000  0.4592450000000  0.5476560000000 1.0
C      1  0.5004440000000  0.5198600000000  0.4532210000000 1.0
C      1  0.5315890000000  0.5306680000000  0.5524460000000 1.0
C      1  0.4382760000000  0.4703030000000  0.4531830000000 1.0
C      1  0.4879450000000  0.5298820000000  0.5907750000000 1.0
C      1  0.4832950000000  0.4329250000000  0.4709930000000 1.0
C      1  0.5345480000000  0.5201300000000  0.5086850000000 1.0
C      1  0.5391030000000  0.4918910000000  0.5134930000000 1.0
C      1  0.5852100000000  0.4975980000000  0.4659120000000 1.0
C      1  0.4739170000000  0.5697430000000  0.5534650000000 1.0
C      1  0.4533530000000  0.5502790000000  0.5615740000000 1.0
C      1  0.4858380000000  0.4437450000000  0.5104610000000 1.0
C      1  0.4458470000000  0.5131900000000  0.4677490000000 1.0
C      1  0.4065190000000  0.5064580000000  0.5097460000000 1.0
C      1  0.4721810000000  0.5223950000000  0.5344940000000 1.0
C      1  0.4519140000000  0.4197860000000  0.5177100000000 1.0
C      1  0.4214610000000  0.4561170000000  0.5414150000000 1.0
C      1  0.4352550000000  0.4332350000000  0.5007370000000 1.0
C      1  0.5909960000000  0.4837100000000  0.5216880000000 1.0
C      1  0.4653120000000  0.4841280000000  0.4146510000000 1.0
C      1  0.5484080000000  0.4729470000000  0.4404320000000 1.0
C      1  0.4540100000000  0.4306260000000  0.4779010000000 1.0
C      1  0.5198520000000  0.5325490000000  0.4708590000000 1.0
C      1  0.5898710000000  0.5121540000000  0.5134180000000 1.0
C      1  0.4708300000000  0.5554920000000  0.4271500000000 1.0
C      1  0.5120580000000  0.5343520000000  0.4087390000000 1.0
C      1  0.4348190000000  0.4328850000000  0.5532280000000 1.0
C      1  0.5737310000000  0.4746590000000  0.4789390000000 1.0
C      1  0.4931640000000  0.4781170000000  0.4873110000000 1.0
C      1  0.4454010000000  0.5273630000000  0.5226000000000 1.0
END
