TITL C-884137-4758-167 1.61702744555043 125000 -16045.1327478749 0 0 109 (C1) n - 1
REM
REM in /home/nfs/bkarasulu/CARBON/AIRSS/Generating-Clusters/ReaxFF-fromJPCA2015/Units_Real/with-SteepDescent/Only-C1/SD-CG/Try1-3A/FIRE-CG
REM
REM
REM
REM
REM
REM ./C.cell (11c1c37f851c82e70ff6c80c92926a4b)
REM
REM compiler GCC version 9.2.1 20190827 (Red Hat 9.2.1-1)
REM options -cpp -mtune=generic -march=x86-64 -g -O0 -fpre-include=/usr/include/finclude/math-vector-fortran.h
REM seed 1467438243 -625327624 -422568039 1575263773 -70736067 -165025973 1065995672 1924959287 -643967378 1567478691 -1907506901 1758576383 -1442045177 1802005999 -807031634 1784983652 1149329319 1147890487 -1915277746 -2046733315 -237000747 768169886 -1596669921 -102864312 475972258 1932091661 -135918969 -2081975928 2048580851 -1383961747 -802142771 1177718033 1057251619
REM
CELL 1.54180   50.00000   50.00000   50.00000   90.00000   90.00000   90.00000
LATT -1
SFAC C  
C      1  0.4511240000000  0.5356990000000  0.3979300000000 1.0
C      1  0.4998270000000  0.5167500000000  0.4074560000000 1.0
C      1  0.4942220000000  0.4710050000000  0.4612220000000 1.0
C      1  0.5580550000000  0.4785720000000  0.4242010000000 1.0
C      1  0.4371080000000  0.5456780000000  0.5633450000000 1.0
C      1  0.5397910000000  0.5377070000000  0.4974090000000 1.0
C      1  0.4915910000000  0.5271950000000  0.4668130000000 1.0
C      1  0.4700030000000  0.5803410000000  0.4933550000000 1.0
C      1  0.5163340000000  0.5811700000000  0.5053770000000 1.0
C      1  0.5236270000000  0.5101570000000  0.4059630000000 1.0
C      1  0.4963710000000  0.4221060000000  0.4491950000000 1.0
C      1  0.5050830000000  0.5725820000000  0.5596140000000 1.0
C      1  0.4207160000000  0.5000300000000  0.4831950000000 1.0
C      1  0.5208100000000  0.4860310000000  0.6024100000000 1.0
C      1  0.4609430000000  0.5144140000000  0.5932610000000 1.0
C      1  0.4534880000000  0.4402080000000  0.5374780000000 1.0
C      1  0.5185130000000  0.5186410000000  0.4595290000000 1.0
C      1  0.4729610000000  0.4891270000000  0.5968670000000 1.0
C      1  0.4962270000000  0.4696490000000  0.5984960000000 1.0
C      1  0.4273530000000  0.4518790000000  0.5416380000000 1.0
C      1  0.5204930000000  0.4789860000000  0.5310440000000 1.0
C      1  0.5475650000000  0.5055640000000  0.4196670000000 1.0
C      1  0.5240630000000  0.5011130000000  0.4825550000000 1.0
C      1  0.5620450000000  0.5259000000000  0.4864990000000 1.0
C      1  0.4774800000000  0.4468280000000  0.4543410000000 1.0
C      1  0.4740560000000  0.4652670000000  0.4055840000000 1.0
C      1  0.4492100000000  0.4723890000000  0.4150890000000 1.0
C      1  0.5950410000000  0.5022010000000  0.4765540000000 1.0
C      1  0.4927490000000  0.4741990000000  0.5369920000000 1.0
C      1  0.5743730000000  0.5563170000000  0.4607000000000 1.0
C      1  0.5509080000000  0.4454430000000  0.5420920000000 1.0
C      1  0.4629050000000  0.5193810000000  0.5041370000000 1.0
C      1  0.5273820000000  0.5975440000000  0.5275310000000 1.0
C      1  0.5168270000000  0.5200520000000  0.5052400000000 1.0
C      1  0.5225590000000  0.4237050000000  0.4408280000000 1.0
C      1  0.4315880000000  0.5269360000000  0.4914560000000 1.0
C      1  0.4638830000000  0.5148410000000  0.5363490000000 1.0
C      1  0.5469600000000  0.4521580000000  0.4249260000000 1.0
C      1  0.4342600000000  0.5491320000000  0.4698930000000 1.0
C      1  0.4363490000000  0.5194790000000  0.5757200000000 1.0
C      1  0.5496580000000  0.5544570000000  0.4445100000000 1.0
C      1  0.4778650000000  0.5373410000000  0.5807650000000 1.0
C      1  0.5393450000000  0.5267210000000  0.4396160000000 1.0
C      1  0.4494720000000  0.4517380000000  0.4355460000000 1.0
C      1  0.4898800000000  0.5657200000000  0.5096140000000 1.0
C      1  0.5375950000000  0.4526780000000  0.4901820000000 1.0
C      1  0.5288400000000  0.5708190000000  0.4565190000000 1.0
C      1  0.4138880000000  0.5370820000000  0.5160570000000 1.0
C      1  0.4643610000000  0.5113400000000  0.4406820000000 1.0
C      1  0.5317500000000  0.5853620000000  0.5544160000000 1.0
C      1  0.4563200000000  0.4697760000000  0.4980220000000 1.0
C      1  0.4537560000000  0.4198270000000  0.4896250000000 1.0
C      1  0.5649740000000  0.4610670000000  0.4462920000000 1.0
C      1  0.5178110000000  0.5065520000000  0.5357950000000 1.0
C      1  0.4498820000000  0.5736800000000  0.4755260000000 1.0
C      1  0.4888760000000  0.5342490000000  0.4952450000000 1.0
C      1  0.4663260000000  0.5449330000000  0.5520600000000 1.0
C      1  0.4316570000000  0.5276670000000  0.4179740000000 1.0
C      1  0.5238740000000  0.4259460000000  0.4940920000000 1.0
C      1  0.5399440000000  0.4984460000000  0.6038390000000 1.0
C      1  0.4230350000000  0.4796650000000  0.5484240000000 1.0
C      1  0.5159620000000  0.4733130000000  0.4776080000000 1.0
C      1  0.5513410000000  0.5411830000000  0.5557570000000 1.0
C      1  0.4150070000000  0.4698210000000  0.5236740000000 1.0
C      1  0.4291130000000  0.4645310000000  0.4499190000000 1.0
C      1  0.4272350000000  0.5448770000000  0.4422380000000 1.0
C      1  0.4781280000000  0.4991480000000  0.4631510000000 1.0
C      1  0.5685660000000  0.4819690000000  0.5145210000000 1.0
C      1  0.4484150000000  0.4013310000000  0.5053820000000 1.0
C      1  0.4893710000000  0.5019820000000  0.5441580000000 1.0
C      1  0.4393670000000  0.5034770000000  0.5512450000000 1.0
C      1  0.5156940000000  0.4145700000000  0.4691110000000 1.0
C      1  0.5902600000000  0.4793260000000  0.5288680000000 1.0
C      1  0.4966610000000  0.5543600000000  0.5787290000000 1.0
C      1  0.4610100000000  0.4436640000000  0.4794830000000 1.0
C      1  0.5678990000000  0.5731240000000  0.4837140000000 1.0
C      1  0.4665100000000  0.4949040000000  0.4892850000000 1.0
C      1  0.5202110000000  0.4463170000000  0.4262680000000 1.0
C      1  0.5046690000000  0.5813530000000  0.4246920000000 1.0
C      1  0.5298350000000  0.4270940000000  0.5453450000000 1.0
C      1  0.4702940000000  0.4598400000000  0.5252270000000 1.0
C      1  0.5526340000000  0.4976880000000  0.5779520000000 1.0
C      1  0.4275350000000  0.4779250000000  0.5003470000000 1.0
C      1  0.5756580000000  0.5711680000000  0.5097230000000 1.0
C      1  0.4737960000000  0.5844390000000  0.4671160000000 1.0
C      1  0.4215130000000  0.4905190000000  0.4556240000000 1.0
C      1  0.5923530000000  0.4721030000000  0.5552190000000 1.0
C      1  0.5815400000000  0.5272300000000  0.4676420000000 1.0
C      1  0.5719390000000  0.4770120000000  0.5751690000000 1.0
C      1  0.4399110000000  0.4995020000000  0.4315210000000 1.0
C      1  0.5417710000000  0.5154250000000  0.5557280000000 1.0
C      1  0.5123750000000  0.4274460000000  0.5683720000000 1.0
C      1  0.4915260000000  0.4176940000000  0.5568670000000 1.0
C      1  0.5148540000000  0.4189370000000  0.5214160000000 1.0
C      1  0.4854150000000  0.5645540000000  0.5398150000000 1.0
C      1  0.5732680000000  0.5682780000000  0.5345530000000 1.0
C      1  0.5567250000000  0.5687060000000  0.5574840000000 1.0
C      1  0.5829990000000  0.4769610000000  0.4889080000000 1.0
C      1  0.5015190000000  0.4473860000000  0.5831200000000 1.0
C      1  0.5626650000000  0.4604890000000  0.4747990000000 1.0
C      1  0.4193520000000  0.5394450000000  0.5429560000000 1.0
C      1  0.4597690000000  0.4107570000000  0.5300950000000 1.0
C      1  0.4897510000000  0.4071790000000  0.5318340000000 1.0
C      1  0.5693870000000  0.4530870000000  0.5619330000000 1.0
C      1  0.4743390000000  0.5238340000000  0.4160610000000 1.0
C      1  0.4990900000000  0.5765750000000  0.4493250000000 1.0
C      1  0.5430030000000  0.4641970000000  0.5218210000000 1.0
C      1  0.5360400000000  0.5687660000000  0.4858540000000 1.0
C      1  0.4997750000000  0.4550750000000  0.4036230000000 1.0
END
