TITL C-883740-3686-33 -216119.839309281 125000 -6970.12194581445 0 0 48 (C1) n - 1
REM
REM in /home/nfs/bkarasulu/CARBON/AIRSS/Generating-Clusters/ReaxFF-fromJPCA2015/Units_Real/with-SteepDescent/Only-C1/SD-CG/Try1-3A/FIRE-CG
REM
REM
REM
REM
REM
REM ./C.cell (11c1c37f851c82e70ff6c80c92926a4b)
REM
REM compiler GCC version 9.2.1 20190827 (Red Hat 9.2.1-1)
REM options -cpp -mtune=generic -march=x86-64 -g -O0 -fpre-include=/usr/include/finclude/math-vector-fortran.h
REM seed -272648170 124613280 651336323 1147207286 1940583316 85411608 671571780 -1603758446 -1810236630 -206996159 -1039104825 677941416 126958653 -1785173177 -1482697939 -730383664 -752620319 -1844263020 -1012183701 300372283 1395747781 -452735476 -2031159438 1945729404 -917539933 839531895 -976841751 1921567706 -130918462 -1031138920 853272924 363231236 -827496300
REM
CELL 1.54180   50.00000   50.00000   50.00000   90.00000   90.00000   90.00000
LATT -1
SFAC C  
C      1  0.5298080000000  0.5052420000000  0.4591340000000 1.0
C      1  0.4797580000000  0.4297890000000  0.4954440000000 1.0
C      1  0.4921790000000  0.4700210000000  0.5619240000000 1.0
C      1  0.5080770000000  0.5652640000000  0.4899270000000 1.0
C      1  0.5159280000000  0.5015830000000  0.4859880000000 1.0
C      1  0.4750610000000  0.5269910000000  0.4664020000000 1.0
C      1  0.5303460000000  0.5418180000000  0.5436600000000 1.0
C      1  0.4724830000000  0.5351380000000  0.5396010000000 1.0
C      1  0.5445610000000  0.5524570000000  0.5066700000000 1.0
C      1  0.4782850000000  0.5073410000000  0.5089070000000 1.0
C      1  0.5118160000000  0.5445420000000  0.5660830000000 1.0
C      1  0.4783900000000  0.4796870000000  0.5039740000000 1.0
C      1  0.5490560000000  0.5479490000000  0.4785470000000 1.0
C      1  0.5672940000000  0.5250310000000  0.4857290000000 1.0
C      1  0.4895220000000  0.5241970000000  0.5585870000000 1.0
C      1  0.5146330000000  0.5483520000000  0.5118330000000 1.0
C      1  0.4685730000000  0.4998520000000  0.4545290000000 1.0
C      1  0.4695750000000  0.4699620000000  0.4588140000000 1.0
C      1  0.5249370000000  0.4545260000000  0.4979900000000 1.0
C      1  0.4905230000000  0.4675330000000  0.4386060000000 1.0
C      1  0.4658000000000  0.4782220000000  0.5623320000000 1.0
C      1  0.5079910000000  0.4290010000000  0.4998870000000 1.0
C      1  0.5162290000000  0.4538250000000  0.4473330000000 1.0
C      1  0.4913730000000  0.4319320000000  0.5231500000000 1.0
C      1  0.4884760000000  0.4971030000000  0.4331820000000 1.0
C      1  0.5600410000000  0.5291770000000  0.5154750000000 1.0
C      1  0.5044660000000  0.4523470000000  0.5402090000000 1.0
C      1  0.4843990000000  0.5638880000000  0.4820910000000 1.0
C      1  0.5260910000000  0.4659890000000  0.5281700000000 1.0
C      1  0.4563610000000  0.5424510000000  0.5176680000000 1.0
C      1  0.5215760000000  0.5549950000000  0.4683430000000 1.0
C      1  0.4450280000000  0.4850990000000  0.5502230000000 1.0
C      1  0.5270180000000  0.4923910000000  0.5400220000000 1.0
C      1  0.5108740000000  0.5155170000000  0.4391120000000 1.0
C      1  0.5359460000000  0.4585500000000  0.4678710000000 1.0
C      1  0.4351050000000  0.4922000000000  0.5252010000000 1.0
C      1  0.5438550000000  0.5167640000000  0.5365850000000 1.0
C      1  0.4621720000000  0.4462800000000  0.4768110000000 1.0
C      1  0.5507190000000  0.4835210000000  0.4585060000000 1.0
C      1  0.4999780000000  0.5377080000000  0.4544300000000 1.0
C      1  0.4490110000000  0.5149890000000  0.5119200000000 1.0
C      1  0.4488820000000  0.4719890000000  0.5078020000000 1.0
C      1  0.5674220000000  0.5001230000000  0.4729100000000 1.0
C      1  0.4357910000000  0.4507960000000  0.4907040000000 1.0
C      1  0.5034010000000  0.5207170000000  0.5032760000000 1.0
C      1  0.4647050000000  0.5455050000000  0.4878280000000 1.0
C      1  0.5027590000000  0.4964370000000  0.5565670000000 1.0
C      1  0.5037270000000  0.4752120000000  0.4900440000000 1.0
END
