TITL C-883733-4178-117 -2.2051689012369 125000 -26454.6572228304 0 0 175 (C1) n - 1
REM
REM in /home/nfs/bkarasulu/CARBON/AIRSS/Generating-Clusters/ReaxFF-fromJPCA2015/Units_Real/with-SteepDescent/Only-C1/SD-CG/Try1-3A/FIRE-CG
REM
REM
REM
REM
REM
REM ./C.cell (11c1c37f851c82e70ff6c80c92926a4b)
REM
REM compiler GCC version 9.2.1 20190827 (Red Hat 9.2.1-1)
REM options -cpp -mtune=generic -march=x86-64 -g -O0 -fpre-include=/usr/include/finclude/math-vector-fortran.h
REM seed 2134526385 949517039 -2137844913 -1395023072 711072450 1401385223 2074134481 870201834 -801499420 551579972 -1323882932 879814600 -194539070 752515892 -637118100 -1956131729 1797746884 -1477113081 1879480083 269721336 -200682834 2049965302 -1931488212 -1259482224 -141856952 548723055 1973721935 -800559943 977806207 -288333074 -2098531375 812372762 468246930
REM
CELL 1.54180   50.00000   50.00000   50.00000   90.00000   90.00000   90.00000
LATT -1
SFAC C  
C      1  0.4544070000000  0.5384540000000  0.5249960000000 1.0
C      1  0.4078920000000  0.4942050000000  0.4534350000000 1.0
C      1  0.4480210000000  0.4058230000000  0.4779030000000 1.0
C      1  0.5019850000000  0.3989700000000  0.5666540000000 1.0
C      1  0.4470780000000  0.4209050000000  0.4522730000000 1.0
C      1  0.4249850000000  0.4904220000000  0.5094670000000 1.0
C      1  0.5870810000000  0.5435820000000  0.4509100000000 1.0
C      1  0.4749730000000  0.3936270000000  0.5219830000000 1.0
C      1  0.4907470000000  0.5330110000000  0.4157280000000 1.0
C      1  0.5751460000000  0.4723060000000  0.5552020000000 1.0
C      1  0.5561050000000  0.5098500000000  0.5812620000000 1.0
C      1  0.4507730000000  0.5350670000000  0.5985440000000 1.0
C      1  0.4971430000000  0.5145900000000  0.4857510000000 1.0
C      1  0.4252790000000  0.4205570000000  0.4893350000000 1.0
C      1  0.5020110000000  0.4961700000000  0.4466210000000 1.0
C      1  0.4880660000000  0.5885560000000  0.4791920000000 1.0
C      1  0.4528090000000  0.5163290000000  0.4483420000000 1.0
C      1  0.4697010000000  0.5119570000000  0.4901570000000 1.0
C      1  0.5489590000000  0.4030900000000  0.4795120000000 1.0
C      1  0.4186150000000  0.5378230000000  0.5638990000000 1.0
C      1  0.4448600000000  0.4493170000000  0.5323690000000 1.0
C      1  0.4653740000000  0.4049240000000  0.5456170000000 1.0
C      1  0.5564920000000  0.4057490000000  0.5258560000000 1.0
C      1  0.4640880000000  0.5339800000000  0.5691090000000 1.0
C      1  0.5675000000000  0.5621970000000  0.4397790000000 1.0
C      1  0.5040820000000  0.5968680000000  0.5213990000000 1.0
C      1  0.5906860000000  0.5664630000000  0.5258080000000 1.0
C      1  0.5052000000000  0.5062040000000  0.5541000000000 1.0
C      1  0.4530470000000  0.5805070000000  0.4340080000000 1.0
C      1  0.5516390000000  0.5790470000000  0.5587330000000 1.0
C      1  0.4814480000000  0.4548750000000  0.4989230000000 1.0
C      1  0.4067630000000  0.5363090000000  0.5059170000000 1.0
C      1  0.4396690000000  0.5084680000000  0.6000740000000 1.0
C      1  0.5892060000000  0.4712480000000  0.4309440000000 1.0
C      1  0.4812520000000  0.4455510000000  0.5766990000000 1.0
C      1  0.4975600000000  0.3951600000000  0.4788260000000 1.0
C      1  0.3980350000000  0.4830960000000  0.5018120000000 1.0
C      1  0.5522900000000  0.5360520000000  0.4996330000000 1.0
C      1  0.4031470000000  0.5414600000000  0.4600250000000 1.0
C      1  0.5409090000000  0.4606920000000  0.5254740000000 1.0
C      1  0.6055050000000  0.4714980000000  0.5193330000000 1.0
C      1  0.4058970000000  0.4364780000000  0.4703670000000 1.0
C      1  0.5272820000000  0.5500000000000  0.4715070000000 1.0
C      1  0.4462220000000  0.4786360000000  0.4068200000000 1.0
C      1  0.5318940000000  0.5892280000000  0.4461280000000 1.0
C      1  0.4936090000000  0.4683860000000  0.4449090000000 1.0
C      1  0.5984790000000  0.4958180000000  0.4677200000000 1.0
C      1  0.5664740000000  0.4215680000000  0.5483450000000 1.0
C      1  0.4577940000000  0.4506730000000  0.4110270000000 1.0
C      1  0.5306090000000  0.3929060000000  0.5195760000000 1.0
C      1  0.4260170000000  0.5727300000000  0.4951890000000 1.0
C      1  0.4689080000000  0.4633640000000  0.5239750000000 1.0
C      1  0.4689450000000  0.5151270000000  0.5178840000000 1.0
C      1  0.4414140000000  0.5252460000000  0.5490680000000 1.0
C      1  0.5397150000000  0.5327580000000  0.4060030000000 1.0
C      1  0.6002280000000  0.5143060000000  0.5461600000000 1.0
C      1  0.5275430000000  0.4741130000000  0.4787710000000 1.0
C      1  0.4457910000000  0.4878120000000  0.4876160000000 1.0
C      1  0.5039680000000  0.4897780000000  0.5310890000000 1.0
C      1  0.5705820000000  0.4495730000000  0.4245390000000 1.0
C      1  0.5149100000000  0.4566020000000  0.4596610000000 1.0
C      1  0.5618220000000  0.5389810000000  0.5848600000000 1.0
C      1  0.4062590000000  0.4642600000000  0.5677160000000 1.0
C      1  0.5235400000000  0.4263240000000  0.4472970000000 1.0
C      1  0.5157430000000  0.5444260000000  0.5720720000000 1.0
C      1  0.5053420000000  0.4389610000000  0.5027780000000 1.0
C      1  0.4924860000000  0.5631880000000  0.5023910000000 1.0
C      1  0.4661220000000  0.6042800000000  0.5506970000000 1.0
C      1  0.4152630000000  0.5149100000000  0.5841330000000 1.0
C      1  0.5186590000000  0.4666190000000  0.5434860000000 1.0
C      1  0.3987560000000  0.4988180000000  0.5446030000000 1.0
C      1  0.5289710000000  0.6127530000000  0.5139480000000 1.0
C      1  0.4542760000000  0.4558420000000  0.4854190000000 1.0
C      1  0.4860730000000  0.5148730000000  0.5737090000000 1.0
C      1  0.4999180000000  0.5432150000000  0.4804330000000 1.0
C      1  0.4888660000000  0.4150820000000  0.4275040000000 1.0
C      1  0.5646380000000  0.5848940000000  0.4881200000000 1.0
C      1  0.5320940000000  0.4990410000000  0.4470930000000 1.0
C      1  0.5574880000000  0.5829800000000  0.4567870000000 1.0
C      1  0.4072180000000  0.5528060000000  0.5432550000000 1.0
C      1  0.4609130000000  0.4252570000000  0.4265830000000 1.0
C      1  0.3995910000000  0.4930330000000  0.5733800000000 1.0
C      1  0.3836460000000  0.4788430000000  0.5280650000000 1.0
C      1  0.4519990000000  0.5069720000000  0.4045460000000 1.0
C      1  0.4737140000000  0.6006490000000  0.5219760000000 1.0
C      1  0.5624400000000  0.5344320000000  0.5435400000000 1.0
C      1  0.4268800000000  0.5743700000000  0.4430790000000 1.0
C      1  0.5483070000000  0.5569150000000  0.4161380000000 1.0
C      1  0.3880090000000  0.4581540000000  0.5469120000000 1.0
C      1  0.4792990000000  0.5824800000000  0.5667510000000 1.0
C      1  0.5940140000000  0.5044630000000  0.4952060000000 1.0
C      1  0.5839220000000  0.4441680000000  0.5453310000000 1.0
C      1  0.5244900000000  0.5729010000000  0.4231360000000 1.0
C      1  0.5951590000000  0.5491890000000  0.4787180000000 1.0
C      1  0.4440040000000  0.4499420000000  0.4564270000000 1.0
C      1  0.5121170000000  0.5035190000000  0.6069960000000 1.0
C      1  0.5890660000000  0.4427380000000  0.4685170000000 1.0
C      1  0.4361690000000  0.5580790000000  0.4238640000000 1.0
C      1  0.4160090000000  0.5666520000000  0.4675010000000 1.0
C      1  0.4343500000000  0.5282390000000  0.4237300000000 1.0
C      1  0.4572080000000  0.4654950000000  0.5767730000000 1.0
C      1  0.4797580000000  0.5527750000000  0.5266030000000 1.0
C      1  0.5370060000000  0.5167680000000  0.5106150000000 1.0
C      1  0.4354730000000  0.4664610000000  0.5557620000000 1.0
C      1  0.5402550000000  0.5615700000000  0.4950880000000 1.0
C      1  0.4837370000000  0.4624310000000  0.4166930000000 1.0
C      1  0.5415370000000  0.5598180000000  0.5780480000000 1.0
C      1  0.4282790000000  0.4958710000000  0.5382780000000 1.0
C      1  0.5523910000000  0.4190290000000  0.5761640000000 1.0
C      1  0.6084900000000  0.4988150000000  0.5213480000000 1.0
C      1  0.5043440000000  0.4985110000000  0.3912110000000 1.0
C      1  0.4717680000000  0.3967660000000  0.4928160000000 1.0
C      1  0.4824330000000  0.5155690000000  0.4378150000000 1.0
C      1  0.5993330000000  0.4683470000000  0.4582610000000 1.0
C      1  0.4780830000000  0.5665600000000  0.4400860000000 1.0
C      1  0.4977040000000  0.5616120000000  0.4190840000000 1.0
C      1  0.5291210000000  0.5187620000000  0.5598030000000 1.0
C      1  0.4755600000000  0.4907020000000  0.5319690000000 1.0
C      1  0.4774790000000  0.5502440000000  0.4630710000000 1.0
C      1  0.4356580000000  0.4418710000000  0.5062020000000 1.0
C      1  0.5458480000000  0.5147050000000  0.5367310000000 1.0
C      1  0.5712750000000  0.4322280000000  0.4480140000000 1.0
C      1  0.5878240000000  0.4314680000000  0.4948400000000 1.0
C      1  0.5139340000000  0.4268450000000  0.4180340000000 1.0
C      1  0.4109060000000  0.5216210000000  0.4406160000000 1.0
C      1  0.4633630000000  0.5957620000000  0.4650370000000 1.0
C      1  0.4883230000000  0.4832120000000  0.6069270000000 1.0
C      1  0.5380820000000  0.4939120000000  0.5990600000000 1.0
C      1  0.5479000000000  0.4621430000000  0.4118030000000 1.0
C      1  0.5230970000000  0.4501870000000  0.4028440000000 1.0
C      1  0.5494360000000  0.4165090000000  0.4551810000000 1.0
C      1  0.5036120000000  0.4270320000000  0.5295180000000 1.0
C      1  0.5365030000000  0.5259840000000  0.4579230000000 1.0
C      1  0.4767420000000  0.4145710000000  0.5696530000000 1.0
C      1  0.5780570000000  0.4974120000000  0.4255810000000 1.0
C      1  0.5684000000000  0.4108570000000  0.4997040000000 1.0
C      1  0.5778190000000  0.5476740000000  0.5615210000000 1.0
C      1  0.5317750000000  0.5086150000000  0.3975320000000 1.0
C      1  0.5316200000000  0.4530360000000  0.4981610000000 1.0
C      1  0.5890830000000  0.5144140000000  0.4462230000000 1.0
C      1  0.6014550000000  0.5445300000000  0.5436980000000 1.0
C      1  0.4472450000000  0.6122220000000  0.4810580000000 1.0
C      1  0.5169040000000  0.4985480000000  0.4995200000000 1.0
C      1  0.5010610000000  0.4052250000000  0.4520300000000 1.0
C      1  0.4356480000000  0.5442470000000  0.4980530000000 1.0
C      1  0.5561620000000  0.5996940000000  0.5125500000000 1.0
C      1  0.4493650000000  0.5961050000000  0.5039570000000 1.0
C      1  0.4564850000000  0.5336860000000  0.4733990000000 1.0
C      1  0.5435740000000  0.4429150000000  0.5884170000000 1.0
C      1  0.4603650000000  0.4847100000000  0.5965220000000 1.0
C      1  0.5098960000000  0.6018450000000  0.4643260000000 1.0
C      1  0.5486940000000  0.4915900000000  0.4191430000000 1.0
C      1  0.5905390000000  0.5711930000000  0.4972450000000 1.0
C      1  0.5244890000000  0.3930380000000  0.4917180000000 1.0
C      1  0.5030530000000  0.5277830000000  0.5936370000000 1.0
C      1  0.5193870000000  0.6146270000000  0.4872600000000 1.0
C      1  0.5681220000000  0.5849850000000  0.5346900000000 1.0
C      1  0.4990770000000  0.4593080000000  0.5976620000000 1.0
C      1  0.5168690000000  0.5727490000000  0.5124790000000 1.0
C      1  0.5014350000000  0.4450740000000  0.5516400000000 1.0
C      1  0.5828880000000  0.4990430000000  0.5642810000000 1.0
C      1  0.5024360000000  0.4699470000000  0.3950000000000 1.0
C      1  0.4160040000000  0.4589370000000  0.4549760000000 1.0
C      1  0.3913290000000  0.5270130000000  0.4827590000000 1.0
C      1  0.5047420000000  0.3964490000000  0.5343080000000 1.0
C      1  0.5293010000000  0.4642560000000  0.5979640000000 1.0
C      1  0.5262330000000  0.4083100000000  0.5756280000000 1.0
C      1  0.4374380000000  0.4933480000000  0.4597920000000 1.0
C      1  0.4868720000000  0.5560880000000  0.5557970000000 1.0
C      1  0.4794380000000  0.5146010000000  0.3954660000000 1.0
C      1  0.5793760000000  0.5298380000000  0.4941770000000 1.0
C      1  0.5565810000000  0.4825330000000  0.5361660000000 1.0
C      1  0.3909280000000  0.4985250000000  0.4781970000000 1.0
C      1  0.5991690000000  0.4444700000000  0.5196420000000 1.0
C      1  0.4037880000000  0.5630910000000  0.5175970000000 1.0
END
