TITL C-883736-9678-35 1412994.57728881 125000 -18161.4114799283 0 0 121 (C1) n - 1
REM
REM in /home/nfs/bkarasulu/CARBON/AIRSS/Generating-Clusters/ReaxFF-fromJPCA2015/Units_Real/with-SteepDescent/Only-C1/SD-CG/Try1-3A/FIRE-CG
REM
REM
REM
REM
REM
REM ./C.cell (11c1c37f851c82e70ff6c80c92926a4b)
REM
REM compiler GCC version 9.2.1 20190827 (Red Hat 9.2.1-1)
REM options -cpp -mtune=generic -march=x86-64 -g -O0 -fpre-include=/usr/include/finclude/math-vector-fortran.h
REM seed 190181650 917377707 1083677323 -668128429 672996163 750580781 1686204743 -712291077 1628502452 -1302717860 2120727093 -1191442736 1787605986 -1029224077 10704319 -1154492460 41076927 -634479229 952564686 -1797140117 666873634 1954662560 10078950 1805526977 1380694870 1496310636 98054201 1206386694 -291866424 760582150 806341212 -1281545974 1245882883
REM
CELL 1.54180   50.00000   50.00000   50.00000   90.00000   90.00000   90.00000
LATT -1
SFAC C  
C      1  0.4708120000000  0.5903500000000  0.4997070000000 1.0
C      1  0.4727110000000  0.5309810000000  0.5443490000000 1.0
C      1  0.4329790000000  0.4628000000000  0.5540590000000 1.0
C      1  0.4219170000000  0.5177520000000  0.5019810000000 1.0
C      1  0.5196800000000  0.5107780000000  0.4577390000000 1.0
C      1  0.4409630000000  0.5650330000000  0.4512600000000 1.0
C      1  0.4949640000000  0.4517820000000  0.5169090000000 1.0
C      1  0.5680050000000  0.4912510000000  0.4382910000000 1.0
C      1  0.4821370000000  0.4922950000000  0.5304180000000 1.0
C      1  0.5113740000000  0.5886160000000  0.4684980000000 1.0
C      1  0.5305860000000  0.5156920000000  0.4303320000000 1.0
C      1  0.5765270000000  0.4468250000000  0.4576310000000 1.0
C      1  0.5629540000000  0.5208490000000  0.5516220000000 1.0
C      1  0.4708840000000  0.5445760000000  0.4747720000000 1.0
C      1  0.4990490000000  0.4186540000000  0.5172160000000 1.0
C      1  0.5786610000000  0.5087600000000  0.5311900000000 1.0
C      1  0.5487170000000  0.4190620000000  0.5181250000000 1.0
C      1  0.5554760000000  0.4938150000000  0.5119660000000 1.0
C      1  0.4848270000000  0.5359540000000  0.4174020000000 1.0
C      1  0.5282710000000  0.5281790000000  0.4792910000000 1.0
C      1  0.5068880000000  0.4476990000000  0.4299960000000 1.0
C      1  0.5067280000000  0.4608180000000  0.4863050000000 1.0
C      1  0.5726120000000  0.4346470000000  0.5085330000000 1.0
C      1  0.4135080000000  0.4740190000000  0.5171800000000 1.0
C      1  0.4883100000000  0.4992790000000  0.5825730000000 1.0
C      1  0.4473840000000  0.5445840000000  0.5817580000000 1.0
C      1  0.5480340000000  0.5322940000000  0.5001310000000 1.0
C      1  0.5698810000000  0.5492500000000  0.4886620000000 1.0
C      1  0.5966300000000  0.4815760000000  0.5053730000000 1.0
C      1  0.4720370000000  0.4765630000000  0.4211360000000 1.0
C      1  0.5525820000000  0.4153970000000  0.4701190000000 1.0
C      1  0.4490660000000  0.4331990000000  0.5126460000000 1.0
C      1  0.4184700000000  0.4851420000000  0.5412580000000 1.0
C      1  0.4155900000000  0.4625860000000  0.4597340000000 1.0
C      1  0.5435890000000  0.5614400000000  0.4487300000000 1.0
C      1  0.5608800000000  0.5637330000000  0.5345840000000 1.0
C      1  0.4727690000000  0.4163220000000  0.5027570000000 1.0
C      1  0.4954150000000  0.5325310000000  0.5281300000000 1.0
C      1  0.4542990000000  0.4673310000000  0.5743330000000 1.0
C      1  0.4718830000000  0.5699880000000  0.4541480000000 1.0
C      1  0.5528740000000  0.5366470000000  0.4371160000000 1.0
C      1  0.4623240000000  0.4366400000000  0.4547970000000 1.0
C      1  0.4584920000000  0.5085600000000  0.5339580000000 1.0
C      1  0.4397040000000  0.5165420000000  0.5770560000000 1.0
C      1  0.4213390000000  0.5079490000000  0.4548250000000 1.0
C      1  0.4476000000000  0.5045880000000  0.5070460000000 1.0
C      1  0.5755810000000  0.4753650000000  0.4618710000000 1.0
C      1  0.4297210000000  0.5644780000000  0.4789010000000 1.0
C      1  0.5377970000000  0.4823590000000  0.5623840000000 1.0
C      1  0.5210590000000  0.4295160000000  0.4471360000000 1.0
C      1  0.5848770000000  0.5252390000000  0.4738230000000 1.0
C      1  0.5754730000000  0.4542750000000  0.5483680000000 1.0
C      1  0.5206420000000  0.4708170000000  0.4177070000000 1.0
C      1  0.5414400000000  0.4789630000000  0.5333240000000 1.0
C      1  0.5382450000000  0.5286180000000  0.5832590000000 1.0
C      1  0.5057000000000  0.4756470000000  0.5673330000000 1.0
C      1  0.4103540000000  0.4601250000000  0.4928950000000 1.0
C      1  0.4134300000000  0.5424030000000  0.4881180000000 1.0
C      1  0.5457060000000  0.4411540000000  0.4560130000000 1.0
C      1  0.4710900000000  0.5169270000000  0.4649370000000 1.0
C      1  0.4988910000000  0.5222660000000  0.5855800000000 1.0
C      1  0.4736960000000  0.4447040000000  0.5751730000000 1.0
C      1  0.4671080000000  0.4576500000000  0.5096410000000 1.0
C      1  0.5173220000000  0.5421030000000  0.5846360000000 1.0
C      1  0.5866070000000  0.4582270000000  0.5204090000000 1.0
C      1  0.4275350000000  0.5397090000000  0.5366980000000 1.0
C      1  0.4869810000000  0.4821360000000  0.4791490000000 1.0
C      1  0.4577160000000  0.4218640000000  0.5623760000000 1.0
C      1  0.4439640000000  0.5764710000000  0.5010360000000 1.0
C      1  0.5818140000000  0.5557950000000  0.5165890000000 1.0
C      1  0.5189040000000  0.5410780000000  0.5401400000000 1.0
C      1  0.5158760000000  0.5716010000000  0.4438760000000 1.0
C      1  0.5361770000000  0.5775970000000  0.5422310000000 1.0
C      1  0.5447550000000  0.5376520000000  0.5293990000000 1.0
C      1  0.5046150000000  0.4281640000000  0.4717480000000 1.0
C      1  0.4855760000000  0.5484690000000  0.4987730000000 1.0
C      1  0.5109960000000  0.4096070000000  0.4923450000000 1.0
C      1  0.4562720000000  0.5252480000000  0.4176510000000 1.0
C      1  0.5031070000000  0.4469260000000  0.5751040000000 1.0
C      1  0.5342880000000  0.4636560000000  0.4773370000000 1.0
C      1  0.5768870000000  0.4285630000000  0.4802180000000 1.0
C      1  0.4615680000000  0.4814920000000  0.4946060000000 1.0
C      1  0.4669160000000  0.5754510000000  0.5398030000000 1.0
C      1  0.5044650000000  0.5158120000000  0.4126480000000 1.0
C      1  0.5492260000000  0.5079250000000  0.5706960000000 1.0
C      1  0.4922540000000  0.4682450000000  0.5414300000000 1.0
C      1  0.5257960000000  0.4222300000000  0.5356270000000 1.0
C      1  0.4493410000000  0.4953420000000  0.4263170000000 1.0
C      1  0.5268000000000  0.4355020000000  0.5604290000000 1.0
C      1  0.4488340000000  0.5064710000000  0.4519330000000 1.0
C      1  0.5555140000000  0.4799710000000  0.4836910000000 1.0
C      1  0.4768540000000  0.4211330000000  0.4743590000000 1.0
C      1  0.4223770000000  0.5155550000000  0.5516530000000 1.0
C      1  0.5086360000000  0.5402990000000  0.4919920000000 1.0
C      1  0.4190440000000  0.4831580000000  0.4405120000000 1.0
C      1  0.4262580000000  0.4366500000000  0.4913360000000 1.0
C      1  0.5493970000000  0.5703630000000  0.4760180000000 1.0
C      1  0.5204600000000  0.5599700000000  0.5618850000000 1.0
C      1  0.5386390000000  0.4067860000000  0.4940010000000 1.0
C      1  0.4829790000000  0.5909530000000  0.4732930000000 1.0
C      1  0.5264860000000  0.4935710000000  0.5157910000000 1.0
C      1  0.4941790000000  0.5017460000000  0.4617850000000 1.0
C      1  0.4921630000000  0.5601690000000  0.4330200000000 1.0
C      1  0.4776220000000  0.4513600000000  0.4341730000000 1.0
C      1  0.4971850000000  0.4880090000000  0.4108960000000 1.0
C      1  0.4595580000000  0.4945560000000  0.5825860000000 1.0
C      1  0.5023480000000  0.5063210000000  0.5202580000000 1.0
C      1  0.5182970000000  0.5844940000000  0.5197110000000 1.0
C      1  0.5295290000000  0.5843270000000  0.4915660000000 1.0
C      1  0.5513620000000  0.4538150000000  0.5642120000000 1.0
C      1  0.4082590000000  0.5174700000000  0.4774060000000 1.0
C      1  0.5942010000000  0.5291130000000  0.5177180000000 1.0
C      1  0.4887180000000  0.5863400000000  0.5228220000000 1.0
C      1  0.4414110000000  0.5651970000000  0.5278680000000 1.0
C      1  0.5737580000000  0.5198660000000  0.4477360000000 1.0
C      1  0.4401370000000  0.4361940000000  0.5435560000000 1.0
C      1  0.4451080000000  0.5445650000000  0.4328820000000 1.0
C      1  0.4339160000000  0.4398090000000  0.4632180000000 1.0
C      1  0.4673870000000  0.5542250000000  0.5607490000000 1.0
C      1  0.5988240000000  0.5091930000000  0.4943550000000 1.0
C      1  0.5436050000000  0.4876550000000  0.4236470000000 1.0
END
