TITL C-884127-5181-469 -3.50533487375244 125000 -6591.48492702765 0 0 45 (C1) n - 1
REM
REM in /home/nfs/bkarasulu/CARBON/AIRSS/Generating-Clusters/ReaxFF-fromJPCA2015/Units_Real/with-SteepDescent/Only-C1/SD-CG/Try1-3A/FIRE-CG
REM
REM
REM
REM
REM
REM ./C.cell (11c1c37f851c82e70ff6c80c92926a4b)
REM
REM compiler GCC version 9.2.1 20190827 (Red Hat 9.2.1-1)
REM options -cpp -mtune=generic -march=x86-64 -g -O0 -fpre-include=/usr/include/finclude/math-vector-fortran.h
REM seed 1349226149 159260889 -1132193303 1573398762 167648004 -777251379 331994726 -690329089 -913362598 -536922126 1968974698 2074395620 -331348859 1123854438 1656530899 -397267655 -634266186 975756744 -1862082702 -54289664 173390196 1517777897 793350855 1427880611 401184612 1104012406 -1808886350 1434465853 1279073804 -1760831561 -212793835 208944422 740629095
REM
CELL 1.54180   50.00000   50.00000   50.00000   90.00000   90.00000   90.00000
LATT -1
SFAC C  
C      1  0.4915620000000  0.4686340000000  0.4329200000000 1.0
C      1  0.4842740000000  0.4600810000000  0.5562560000000 1.0
C      1  0.5348320000000  0.4867030000000  0.4779120000000 1.0
C      1  0.4938180000000  0.5117980000000  0.4887400000000 1.0
C      1  0.5559500000000  0.4804600000000  0.5133350000000 1.0
C      1  0.5286900000000  0.5298360000000  0.4535710000000 1.0
C      1  0.5438100000000  0.5154430000000  0.4753070000000 1.0
C      1  0.4437650000000  0.4845980000000  0.5037210000000 1.0
C      1  0.5340850000000  0.4724220000000  0.4510550000000 1.0
C      1  0.5324880000000  0.5489130000000  0.5370480000000 1.0
C      1  0.4736050000000  0.5225720000000  0.4667630000000 1.0
C      1  0.5493870000000  0.5267920000000  0.5014580000000 1.0
C      1  0.5098260000000  0.5136490000000  0.4359270000000 1.0
C      1  0.4555850000000  0.4767960000000  0.4534770000000 1.0
C      1  0.5159950000000  0.4853970000000  0.4321860000000 1.0
C      1  0.5535240000000  0.5069470000000  0.5228680000000 1.0
C      1  0.4777660000000  0.4509730000000  0.4786180000000 1.0
C      1  0.4589870000000  0.5064830000000  0.5194580000000 1.0
C      1  0.4766400000000  0.5449480000000  0.5581850000000 1.0
C      1  0.4690760000000  0.4883120000000  0.4318130000000 1.0
C      1  0.5105830000000  0.5575920000000  0.4961020000000 1.0
C      1  0.4733650000000  0.4865300000000  0.5647810000000 1.0
C      1  0.4543110000000  0.5389840000000  0.4791100000000 1.0
C      1  0.5242080000000  0.4456200000000  0.4582450000000 1.0
C      1  0.4974070000000  0.5341790000000  0.5736800000000 1.0
C      1  0.4949220000000  0.4493950000000  0.4547250000000 1.0
C      1  0.4600660000000  0.5541730000000  0.5384580000000 1.0
C      1  0.4810800000000  0.5145880000000  0.4385120000000 1.0
C      1  0.5209050000000  0.5500980000000  0.4711120000000 1.0
C      1  0.5527010000000  0.4581740000000  0.5008200000000 1.0
C      1  0.4522830000000  0.4658100000000  0.4780800000000 1.0
C      1  0.4926420000000  0.5356390000000  0.5052280000000 1.0
C      1  0.5255020000000  0.5341940000000  0.5590050000000 1.0
C      1  0.5107980000000  0.4647310000000  0.5458050000000 1.0
C      1  0.4836860000000  0.5096330000000  0.5780590000000 1.0
C      1  0.5334880000000  0.5088120000000  0.5456350000000 1.0
C      1  0.4627630000000  0.5355280000000  0.5107840000000 1.0
C      1  0.5100170000000  0.4929330000000  0.5387620000000 1.0
C      1  0.4805610000000  0.4998270000000  0.5383640000000 1.0
C      1  0.4908520000000  0.4512290000000  0.5288600000000 1.0
C      1  0.5409310000000  0.4451240000000  0.4815020000000 1.0
C      1  0.4933420000000  0.4619590000000  0.5016280000000 1.0
C      1  0.5376160000000  0.5534260000000  0.5096230000000 1.0
C      1  0.5075420000000  0.4863370000000  0.4922490000000 1.0
C      1  0.4247640000000  0.4837240000000  0.5202550000000 1.0
END
