TITL C-883735-9890-202 15.1460702942695 125000 -15311.9389351254 0 0 104 (C1) n - 1
REM
REM in /home/nfs/bkarasulu/CARBON/AIRSS/Generating-Clusters/ReaxFF-fromJPCA2015/Units_Real/with-SteepDescent/Only-C1/SD-CG/Try1-3A/FIRE-CG
REM
REM
REM
REM
REM
REM ./C.cell (11c1c37f851c82e70ff6c80c92926a4b)
REM
REM compiler GCC version 9.2.1 20190827 (Red Hat 9.2.1-1)
REM options -cpp -mtune=generic -march=x86-64 -g -O0 -fpre-include=/usr/include/finclude/math-vector-fortran.h
REM seed 278514184 -878020332 283953061 -252725405 -860456354 2040655227 1768177503 -1633248766 -540577072 420332513 -1333413443 -26379088 -83898197 -1318645105 -1259818069 -1208626881 525174707 -750072180 -859207929 1600707987 -1082835892 1900244830 2137055861 -169210473 -671210396 2005127257 463364782 -1997774184 473812905 444371013 -1403128312 -908851182 -658871547
REM
CELL 1.54180   50.00000   50.00000   50.00000   90.00000   90.00000   90.00000
LATT -1
SFAC C  
C      1  0.5278580000000  0.5729900000000  0.4877380000000 1.0
C      1  0.4331240000000  0.4676320000000  0.4895360000000 1.0
C      1  0.5549700000000  0.4737430000000  0.5041850000000 1.0
C      1  0.5403030000000  0.5641780000000  0.5497330000000 1.0
C      1  0.4862790000000  0.5403300000000  0.5461730000000 1.0
C      1  0.4729660000000  0.4518370000000  0.5691170000000 1.0
C      1  0.5625880000000  0.5490320000000  0.5386180000000 1.0
C      1  0.4090680000000  0.5421880000000  0.4770920000000 1.0
C      1  0.5569140000000  0.5736490000000  0.4926810000000 1.0
C      1  0.5429210000000  0.4394070000000  0.5313590000000 1.0
C      1  0.5799500000000  0.4843210000000  0.4656480000000 1.0
C      1  0.4812190000000  0.4998320000000  0.5699840000000 1.0
C      1  0.5683850000000  0.5498870000000  0.4830310000000 1.0
C      1  0.5213870000000  0.4931870000000  0.4751060000000 1.0
C      1  0.5676220000000  0.4419780000000  0.5419240000000 1.0
C      1  0.4987060000000  0.5371360000000  0.4640010000000 1.0
C      1  0.5893950000000  0.4880300000000  0.5304160000000 1.0
C      1  0.5366730000000  0.4392210000000  0.4479000000000 1.0
C      1  0.5148310000000  0.4324600000000  0.5581380000000 1.0
C      1  0.5848680000000  0.5071960000000  0.5087210000000 1.0
C      1  0.5560190000000  0.5033970000000  0.5028520000000 1.0
C      1  0.5400440000000  0.5413490000000  0.4371740000000 1.0
C      1  0.4857960000000  0.4398490000000  0.4389980000000 1.0
C      1  0.5068830000000  0.4849510000000  0.5766690000000 1.0
C      1  0.5183290000000  0.5483650000000  0.4207600000000 1.0
C      1  0.5076600000000  0.4436280000000  0.4846860000000 1.0
C      1  0.4908730000000  0.4613210000000  0.4191530000000 1.0
C      1  0.5027180000000  0.4204610000000  0.5331240000000 1.0
C      1  0.4987830000000  0.5684220000000  0.4281070000000 1.0
C      1  0.5088300000000  0.4327880000000  0.4556210000000 1.0
C      1  0.4571740000000  0.5431270000000  0.5772840000000 1.0
C      1  0.4457870000000  0.5563480000000  0.5585350000000 1.0
C      1  0.5140920000000  0.4197640000000  0.5052910000000 1.0
C      1  0.4570200000000  0.5455230000000  0.4901980000000 1.0
C      1  0.4814740000000  0.5809760000000  0.5155090000000 1.0
C      1  0.5774480000000  0.4997410000000  0.5552700000000 1.0
C      1  0.4761250000000  0.4154940000000  0.4714900000000 1.0
C      1  0.5014800000000  0.4559190000000  0.5715340000000 1.0
C      1  0.5080950000000  0.5079810000000  0.4984480000000 1.0
C      1  0.4417800000000  0.5163790000000  0.5280410000000 1.0
C      1  0.5030040000000  0.4672910000000  0.5221410000000 1.0
C      1  0.4901770000000  0.5691750000000  0.5410780000000 1.0
C      1  0.4563530000000  0.5672540000000  0.5093290000000 1.0
C      1  0.5357640000000  0.4624310000000  0.4853490000000 1.0
C      1  0.5488690000000  0.4371800000000  0.4747650000000 1.0
C      1  0.5105550000000  0.5846720000000  0.5081280000000 1.0
C      1  0.4286410000000  0.4675650000000  0.5185540000000 1.0
C      1  0.4379990000000  0.5649870000000  0.5331370000000 1.0
C      1  0.5724580000000  0.5546180000000  0.5110800000000 1.0
C      1  0.4261210000000  0.4913450000000  0.5365220000000 1.0
C      1  0.4716950000000  0.5236820000000  0.5904360000000 1.0
C      1  0.4961280000000  0.5155360000000  0.4440390000000 1.0
C      1  0.4113130000000  0.5436150000000  0.5024330000000 1.0
C      1  0.4751180000000  0.4216460000000  0.5257080000000 1.0
C      1  0.5590530000000  0.4855160000000  0.4466040000000 1.0
C      1  0.5295320000000  0.5474270000000  0.5714600000000 1.0
C      1  0.4535910000000  0.5278630000000  0.4208060000000 1.0
C      1  0.4466810000000  0.4423870000000  0.4807670000000 1.0
C      1  0.4357680000000  0.4960170000000  0.4817410000000 1.0
C      1  0.5745370000000  0.4633860000000  0.5235010000000 1.0
C      1  0.4747650000000  0.5531230000000  0.4686280000000 1.0
C      1  0.5389390000000  0.4180510000000  0.4933680000000 1.0
C      1  0.5036000000000  0.5200140000000  0.4147430000000 1.0
C      1  0.5476100000000  0.5348410000000  0.4617380000000 1.0
C      1  0.4345800000000  0.5455360000000  0.4313610000000 1.0
C      1  0.5673100000000  0.5266690000000  0.5577740000000 1.0
C      1  0.4608760000000  0.4328700000000  0.4552210000000 1.0
C      1  0.4743850000000  0.5727330000000  0.4452130000000 1.0
C      1  0.4574550000000  0.4732680000000  0.4411990000000 1.0
C      1  0.5102390000000  0.5301970000000  0.5577050000000 1.0
C      1  0.4143240000000  0.5346420000000  0.4510970000000 1.0
C      1  0.4611820000000  0.4378460000000  0.5456410000000 1.0
C      1  0.5332820000000  0.4972870000000  0.5837440000000 1.0
C      1  0.5426380000000  0.4637420000000  0.4340600000000 1.0
C      1  0.5552150000000  0.4848650000000  0.5681880000000 1.0
C      1  0.5919990000000  0.4894040000000  0.4882970000000 1.0
C      1  0.4633330000000  0.4224830000000  0.4961800000000 1.0
C      1  0.4467500000000  0.5732830000000  0.4347700000000 1.0
C      1  0.5264400000000  0.4635810000000  0.5321010000000 1.0
C      1  0.4999810000000  0.4912720000000  0.4567470000000 1.0
C      1  0.4546100000000  0.4606090000000  0.5288830000000 1.0
C      1  0.4192660000000  0.5053920000000  0.4574820000000 1.0
C      1  0.5441360000000  0.4308490000000  0.5568120000000 1.0
C      1  0.5181260000000  0.5780920000000  0.5361540000000 1.0
C      1  0.4720210000000  0.5107380000000  0.4105840000000 1.0
C      1  0.5307370000000  0.5156670000000  0.5128760000000 1.0
C      1  0.4697550000000  0.4808590000000  0.4151640000000 1.0
C      1  0.5426610000000  0.5069330000000  0.4588790000000 1.0
C      1  0.4784680000000  0.4766320000000  0.4636950000000 1.0
C      1  0.4836390000000  0.4603120000000  0.4869680000000 1.0
C      1  0.4731970000000  0.5154430000000  0.5390960000000 1.0
C      1  0.4353620000000  0.4895600000000  0.4415670000000 1.0
C      1  0.4522160000000  0.5159140000000  0.4983030000000 1.0
C      1  0.4815900000000  0.5043310000000  0.5114890000000 1.0
C      1  0.5254850000000  0.5122820000000  0.5409070000000 1.0
C      1  0.4605430000000  0.4780840000000  0.5737870000000 1.0
C      1  0.4219880000000  0.5408500000000  0.5283250000000 1.0
C      1  0.5202400000000  0.4710290000000  0.4155280000000 1.0
C      1  0.5236700000000  0.5475450000000  0.4742040000000 1.0
C      1  0.5458310000000  0.5243830000000  0.5783960000000 1.0
C      1  0.5375310000000  0.4868020000000  0.5445690000000 1.0
C      1  0.4796050000000  0.4729770000000  0.5126230000000 1.0
C      1  0.4327510000000  0.4839770000000  0.5645670000000 1.0
C      1  0.5218740000000  0.4974250000000  0.4039420000000 1.0
END
