TITL C-884134-5972-371 -7.00000083330177 125000 -10689.4471917579 0 0 71 (C1) n - 1
REM
REM in /home/nfs/bkarasulu/CARBON/AIRSS/Generating-Clusters/ReaxFF-fromJPCA2015/Units_Real/with-SteepDescent/Only-C1/SD-CG/Try1-3A/FIRE-CG
REM
REM
REM
REM
REM
REM ./C.cell (11c1c37f851c82e70ff6c80c92926a4b)
REM
REM compiler GCC version 9.2.1 20190827 (Red Hat 9.2.1-1)
REM options -cpp -mtune=generic -march=x86-64 -g -O0 -fpre-include=/usr/include/finclude/math-vector-fortran.h
REM seed 2085584278 185825361 1804271986 -2088238581 -1430943928 -1646676761 1674229129 547191046 1247773630 -350050151 -570661451 -605864629 1103474687 150798545 -637377990 205283239 382649404 1530789328 -1131829059 -840701569 1136626816 1869475556 623378007 -248585468 66807873 349267960 -374932052 -231995573 -977364983 1692443165 -1297467248 -53038845 276173313
REM
CELL 1.54180   50.00000   50.00000   50.00000   90.00000   90.00000   90.00000
LATT -1
SFAC C  
C      1  0.4682410000000  0.5266320000000  0.5568720000000 1.0
C      1  0.4729890000000  0.4592020000000  0.4325330000000 1.0
C      1  0.4470200000000  0.4591410000000  0.4440220000000 1.0
C      1  0.5456250000000  0.5694630000000  0.4856570000000 1.0
C      1  0.5529480000000  0.5236750000000  0.5602160000000 1.0
C      1  0.5291840000000  0.4723110000000  0.5657460000000 1.0
C      1  0.5540320000000  0.5184080000000  0.4562300000000 1.0
C      1  0.4354710000000  0.5143590000000  0.5216280000000 1.0
C      1  0.5068430000000  0.4530050000000  0.5222490000000 1.0
C      1  0.4469170000000  0.4725260000000  0.5535020000000 1.0
C      1  0.4914930000000  0.4324110000000  0.5054510000000 1.0
C      1  0.4875000000000  0.4979590000000  0.5794390000000 1.0
C      1  0.5001470000000  0.4681410000000  0.4296010000000 1.0
C      1  0.5028690000000  0.4315510000000  0.4786880000000 1.0
C      1  0.4332970000000  0.5153940000000  0.4928360000000 1.0
C      1  0.4239910000000  0.4664030000000  0.4956160000000 1.0
C      1  0.5487700000000  0.5245890000000  0.4997550000000 1.0
C      1  0.4641840000000  0.4395630000000  0.5138420000000 1.0
C      1  0.5024530000000  0.5049930000000  0.5140650000000 1.0
C      1  0.4413140000000  0.5410050000000  0.4807120000000 1.0
C      1  0.4901020000000  0.5520240000000  0.4574690000000 1.0
C      1  0.4917570000000  0.4786620000000  0.5088310000000 1.0
C      1  0.5692020000000  0.5314240000000  0.5188580000000 1.0
C      1  0.4448620000000  0.5059340000000  0.4372350000000 1.0
C      1  0.5257810000000  0.4604790000000  0.4443910000000 1.0
C      1  0.4533750000000  0.5348770000000  0.5346660000000 1.0
C      1  0.4203400000000  0.4755600000000  0.5220650000000 1.0
C      1  0.5685890000000  0.5010410000000  0.5581470000000 1.0
C      1  0.4914790000000  0.5203630000000  0.4913360000000 1.0
C      1  0.5779610000000  0.5056440000000  0.5303660000000 1.0
C      1  0.5004670000000  0.5441860000000  0.4301450000000 1.0
C      1  0.5467900000000  0.4518490000000  0.4892960000000 1.0
C      1  0.5218530000000  0.4872740000000  0.4811790000000 1.0
C      1  0.4922150000000  0.5279630000000  0.5703300000000 1.0
C      1  0.4313300000000  0.4851480000000  0.4505500000000 1.0
C      1  0.4925040000000  0.5624920000000  0.5341530000000 1.0
C      1  0.4930860000000  0.4966270000000  0.4267120000000 1.0
C      1  0.4558460000000  0.4423320000000  0.4665040000000 1.0
C      1  0.4926130000000  0.4539440000000  0.5494310000000 1.0
C      1  0.4899830000000  0.4749060000000  0.4804280000000 1.0
C      1  0.5527660000000  0.5754010000000  0.5124610000000 1.0
C      1  0.5124940000000  0.5182060000000  0.4235310000000 1.0
C      1  0.5033550000000  0.5755550000000  0.5138600000000 1.0
C      1  0.4773170000000  0.5002740000000  0.4753090000000 1.0
C      1  0.5073930000000  0.5395660000000  0.4769090000000 1.0
C      1  0.5405680000000  0.5091740000000  0.4327100000000 1.0
C      1  0.5658690000000  0.4744610000000  0.4874010000000 1.0
C      1  0.5251550000000  0.5851700000000  0.5001740000000 1.0
C      1  0.4622730000000  0.5556840000000  0.4673760000000 1.0
C      1  0.5087500000000  0.5459870000000  0.5546000000000 1.0
C      1  0.5637690000000  0.4913570000000  0.4630190000000 1.0
C      1  0.5273050000000  0.4442910000000  0.4684710000000 1.0
C      1  0.5389030000000  0.5407240000000  0.4763410000000 1.0
C      1  0.5740740000000  0.4808430000000  0.5144510000000 1.0
C      1  0.4634150000000  0.4882860000000  0.5699530000000 1.0
C      1  0.5552820000000  0.4731270000000  0.5599160000000 1.0
C      1  0.5028860000000  0.4714570000000  0.5715340000000 1.0
C      1  0.4835580000000  0.4478980000000  0.4694350000000 1.0
C      1  0.4671910000000  0.5564590000000  0.5199690000000 1.0
C      1  0.5466880000000  0.4806760000000  0.4406330000000 1.0
C      1  0.5380120000000  0.4500870000000  0.5165860000000 1.0
C      1  0.4443140000000  0.4450370000000  0.4933790000000 1.0
C      1  0.5589560000000  0.4621940000000  0.5318120000000 1.0
C      1  0.5580070000000  0.5552280000000  0.5326430000000 1.0
C      1  0.4279140000000  0.4910700000000  0.5373750000000 1.0
C      1  0.4654140000000  0.4520690000000  0.5408230000000 1.0
C      1  0.4559600000000  0.5611100000000  0.4939600000000 1.0
C      1  0.5381990000000  0.5469060000000  0.5548610000000 1.0
C      1  0.5308930000000  0.5015150000000  0.5045580000000 1.0
C      1  0.4715480000000  0.5059250000000  0.4461440000000 1.0
C      1  0.4263480000000  0.4908020000000  0.4790550000000 1.0
END
