TITL C-883735-9890-83 8.74248309769982 125000 -23389.3753626229 0 0 155 (C1) n - 1
REM
REM in /home/nfs/bkarasulu/CARBON/AIRSS/Generating-Clusters/ReaxFF-fromJPCA2015/Units_Real/with-SteepDescent/Only-C1/SD-CG/Try1-3A/FIRE-CG
REM
REM
REM
REM
REM
REM ./C.cell (11c1c37f851c82e70ff6c80c92926a4b)
REM
REM compiler GCC version 9.2.1 20190827 (Red Hat 9.2.1-1)
REM options -cpp -mtune=generic -march=x86-64 -g -O0 -fpre-include=/usr/include/finclude/math-vector-fortran.h
REM seed 864768224 821537812 2098067052 -1160048057 882827045 2073163497 585725592 -1600370637 -2025962924 -1734646980 1667567604 1602618087 684723995 -1227040632 1666872676 -122379098 524261461 1285170175 1057493527 -2005709283 -1916811719 -1714116756 -1637847062 294471428 -928865412 -1369300164 -1410643893 -201339410 -1882619632 -1181428834 113093166 -1701129685 1143133090
REM
CELL 1.54180   50.00000   50.00000   50.00000   90.00000   90.00000   90.00000
LATT -1
SFAC C  
C      1  0.4857250000000  0.4319700000000  0.4323350000000 1.0
C      1  0.5829220000000  0.5368230000000  0.4522720000000 1.0
C      1  0.5491600000000  0.4193520000000  0.4966750000000 1.0
C      1  0.5216640000000  0.5855100000000  0.5499470000000 1.0
C      1  0.4837390000000  0.5244010000000  0.5292370000000 1.0
C      1  0.5443780000000  0.3832060000000  0.4704550000000 1.0
C      1  0.4813280000000  0.5396940000000  0.5679870000000 1.0
C      1  0.4476640000000  0.4385820000000  0.4722390000000 1.0
C      1  0.5581990000000  0.5269640000000  0.5517670000000 1.0
C      1  0.5243640000000  0.4737540000000  0.4009960000000 1.0
C      1  0.5778240000000  0.5175150000000  0.4311640000000 1.0
C      1  0.5730590000000  0.5455690000000  0.5025090000000 1.0
C      1  0.4357520000000  0.5173920000000  0.4315450000000 1.0
C      1  0.5542620000000  0.5258780000000  0.5197910000000 1.0
C      1  0.5321750000000  0.5158100000000  0.4640520000000 1.0
C      1  0.4477660000000  0.5705770000000  0.5801520000000 1.0
C      1  0.5868910000000  0.4908550000000  0.4389880000000 1.0
C      1  0.5481320000000  0.3898940000000  0.5006150000000 1.0
C      1  0.4472540000000  0.4448640000000  0.4427300000000 1.0
C      1  0.5381660000000  0.4181280000000  0.5396450000000 1.0
C      1  0.5281600000000  0.3934840000000  0.5217710000000 1.0
C      1  0.5595960000000  0.4833430000000  0.4952490000000 1.0
C      1  0.5067980000000  0.6006160000000  0.4843740000000 1.0
C      1  0.4594090000000  0.4692510000000  0.5901800000000 1.0
C      1  0.4608040000000  0.4919930000000  0.5568180000000 1.0
C      1  0.5259930000000  0.4314550000000  0.5645520000000 1.0
C      1  0.5248070000000  0.4408210000000  0.5229670000000 1.0
C      1  0.4713450000000  0.5582750000000  0.5470800000000 1.0
C      1  0.4694170000000  0.4520450000000  0.4853220000000 1.0
C      1  0.4256280000000  0.4378680000000  0.4928110000000 1.0
C      1  0.4532330000000  0.4751190000000  0.4891440000000 1.0
C      1  0.5044660000000  0.3931800000000  0.4801370000000 1.0
C      1  0.5681770000000  0.4699850000000  0.4295410000000 1.0
C      1  0.4765880000000  0.5515150000000  0.4928210000000 1.0
C      1  0.5349720000000  0.5119470000000  0.5599620000000 1.0
C      1  0.4298490000000  0.4327660000000  0.5225240000000 1.0
C      1  0.5332640000000  0.5096390000000  0.5903190000000 1.0
C      1  0.4567670000000  0.5321780000000  0.4850970000000 1.0
C      1  0.4124540000000  0.5480350000000  0.4900910000000 1.0
C      1  0.5372180000000  0.5700090000000  0.5067550000000 1.0
C      1  0.5247500000000  0.5803850000000  0.4183500000000 1.0
C      1  0.5051780000000  0.4850240000000  0.5329540000000 1.0
C      1  0.3986340000000  0.4499120000000  0.4508820000000 1.0
C      1  0.4711940000000  0.5579000000000  0.4096030000000 1.0
C      1  0.4933510000000  0.5414820000000  0.5934780000000 1.0
C      1  0.4650330000000  0.6021970000000  0.5103420000000 1.0
C      1  0.5208750000000  0.5541920000000  0.5923430000000 1.0
C      1  0.4877430000000  0.5050580000000  0.4646860000000 1.0
C      1  0.5301390000000  0.4943730000000  0.5397340000000 1.0
C      1  0.5262070000000  0.4030240000000  0.4579500000000 1.0
C      1  0.5026200000000  0.3957560000000  0.5088930000000 1.0
C      1  0.5932910000000  0.4920860000000  0.5384770000000 1.0
C      1  0.4234060000000  0.5594560000000  0.4648580000000 1.0
C      1  0.4080450000000  0.4736850000000  0.4383500000000 1.0
C      1  0.4365040000000  0.4627000000000  0.5724380000000 1.0
C      1  0.5189460000000  0.5237160000000  0.4902140000000 1.0
C      1  0.4285230000000  0.5726240000000  0.5330710000000 1.0
C      1  0.5504130000000  0.4835180000000  0.4106740000000 1.0
C      1  0.4892600000000  0.5631510000000  0.4715380000000 1.0
C      1  0.4314690000000  0.5060480000000  0.5186230000000 1.0
C      1  0.5465940000000  0.4467720000000  0.5775200000000 1.0
C      1  0.4975150000000  0.4429150000000  0.4785280000000 1.0
C      1  0.5549130000000  0.5125290000000  0.4127200000000 1.0
C      1  0.5486170000000  0.5795440000000  0.4323770000000 1.0
C      1  0.5001070000000  0.4898180000000  0.4019710000000 1.0
C      1  0.5155760000000  0.4301050000000  0.4280620000000 1.0
C      1  0.4400000000000  0.5496340000000  0.5471560000000 1.0
C      1  0.5825870000000  0.4444910000000  0.5198960000000 1.0
C      1  0.4443200000000  0.4917270000000  0.4675050000000 1.0
C      1  0.6007930000000  0.5238130000000  0.4708420000000 1.0
C      1  0.3881730000000  0.4555000000000  0.4992960000000 1.0
C      1  0.4586040000000  0.5976950000000  0.4825210000000 1.0
C      1  0.4599280000000  0.4999880000000  0.5981080000000 1.0
C      1  0.5331190000000  0.5876540000000  0.4829450000000 1.0
C      1  0.4630220000000  0.4091380000000  0.4996710000000 1.0
C      1  0.5299920000000  0.5415980000000  0.5099080000000 1.0
C      1  0.5372400000000  0.5423660000000  0.4585090000000 1.0
C      1  0.5749390000000  0.4869000000000  0.5791810000000 1.0
C      1  0.4390870000000  0.5159520000000  0.5876400000000 1.0
C      1  0.4744050000000  0.4821830000000  0.4132640000000 1.0
C      1  0.5778020000000  0.4471100000000  0.4686140000000 1.0
C      1  0.4123440000000  0.5889870000000  0.4915730000000 1.0
C      1  0.5715220000000  0.4601160000000  0.5671950000000 1.0
C      1  0.4836050000000  0.5912820000000  0.4685390000000 1.0
C      1  0.5075900000000  0.4978250000000  0.6038200000000 1.0
C      1  0.4862190000000  0.4556510000000  0.5886490000000 1.0
C      1  0.5504860000000  0.4942000000000  0.4713350000000 1.0
C      1  0.4782570000000  0.5295860000000  0.4094470000000 1.0
C      1  0.6016720000000  0.4953020000000  0.4638750000000 1.0
C      1  0.4204010000000  0.4496290000000  0.4335990000000 1.0
C      1  0.4815730000000  0.4400800000000  0.5422160000000 1.0
C      1  0.4558860000000  0.4869070000000  0.5142800000000 1.0
C      1  0.5629970000000  0.5527020000000  0.4690130000000 1.0
C      1  0.4151160000000  0.5044250000000  0.5427760000000 1.0
C      1  0.5811920000000  0.5074170000000  0.5593620000000 1.0
C      1  0.4489480000000  0.5939060000000  0.5336060000000 1.0
C      1  0.4781510000000  0.5148580000000  0.5547290000000 1.0
C      1  0.5968060000000  0.5283570000000  0.4997880000000 1.0
C      1  0.5164000000000  0.4574630000000  0.4213530000000 1.0
C      1  0.5641490000000  0.4449680000000  0.4453920000000 1.0
C      1  0.5617690000000  0.5663190000000  0.5224750000000 1.0
C      1  0.5114770000000  0.5557860000000  0.4560430000000 1.0
C      1  0.4491370000000  0.5657540000000  0.4263330000000 1.0
C      1  0.5337830000000  0.5314770000000  0.4089960000000 1.0
C      1  0.5082150000000  0.5026110000000  0.4438460000000 1.0
C      1  0.4948160000000  0.6057400000000  0.5108230000000 1.0
C      1  0.5528440000000  0.4878200000000  0.5980600000000 1.0
C      1  0.4472420000000  0.4094650000000  0.5233450000000 1.0
C      1  0.5995230000000  0.4816890000000  0.4899010000000 1.0
C      1  0.4604400000000  0.5856710000000  0.5596250000000 1.0
C      1  0.5227860000000  0.4328290000000  0.4972950000000 1.0
C      1  0.5201910000000  0.4584050000000  0.4659930000000 1.0
C      1  0.6001930000000  0.5018990000000  0.5117290000000 1.0
C      1  0.4599740000000  0.4684330000000  0.5383440000000 1.0
C      1  0.5094170000000  0.5966140000000  0.5334820000000 1.0
C      1  0.4337230000000  0.5454090000000  0.4410790000000 1.0
C      1  0.5482050000000  0.4968160000000  0.5178760000000 1.0
C      1  0.4688770000000  0.4555250000000  0.4262390000000 1.0
C      1  0.4981990000000  0.5064530000000  0.4906730000000 1.0
C      1  0.5915450000000  0.4527810000000  0.4920580000000 1.0
C      1  0.3855570000000  0.4720780000000  0.5170340000000 1.0
C      1  0.5551170000000  0.5585330000000  0.5501720000000 1.0
C      1  0.5398210000000  0.5385180000000  0.6059020000000 1.0
C      1  0.4832880000000  0.5507240000000  0.5204740000000 1.0
C      1  0.5350720000000  0.5691800000000  0.5674420000000 1.0
C      1  0.5136010000000  0.4737370000000  0.4432280000000 1.0
C      1  0.5519920000000  0.5801710000000  0.4613390000000 1.0
C      1  0.5061830000000  0.5176660000000  0.4125990000000 1.0
C      1  0.5079310000000  0.4691030000000  0.6030570000000 1.0
C      1  0.5638420000000  0.4230520000000  0.5219800000000 1.0
C      1  0.3997610000000  0.4404420000000  0.4791730000000 1.0
C      1  0.4844090000000  0.4233640000000  0.4601230000000 1.0
C      1  0.4619210000000  0.5126020000000  0.4658380000000 1.0
C      1  0.4974450000000  0.4382980000000  0.5676260000000 1.0
C      1  0.4081880000000  0.5692360000000  0.5110420000000 1.0
C      1  0.4311250000000  0.5272820000000  0.4995070000000 1.0
C      1  0.4315760000000  0.4946040000000  0.5678870000000 1.0
C      1  0.4369180000000  0.5448890000000  0.5765010000000 1.0
C      1  0.4753290000000  0.5793690000000  0.4303240000000 1.0
C      1  0.4765760000000  0.3991170000000  0.4748830000000 1.0
C      1  0.4596650000000  0.5086540000000  0.4164570000000 1.0
C      1  0.4243890000000  0.4955080000000  0.4477380000000 1.0
C      1  0.5852020000000  0.4630770000000  0.5421570000000 1.0
C      1  0.5369500000000  0.4638040000000  0.5992760000000 1.0
C      1  0.5040890000000  0.5742330000000  0.4357030000000 1.0
C      1  0.4849730000000  0.5147070000000  0.6042490000000 1.0
C      1  0.4781750000000  0.4112700000000  0.5250190000000 1.0
C      1  0.4357400000000  0.4523640000000  0.5449230000000 1.0
C      1  0.5415680000000  0.5590730000000  0.4118950000000 1.0
C      1  0.5352380000000  0.4313540000000  0.4501400000000 1.0
C      1  0.3956400000000  0.4891100000000  0.5317180000000 1.0
C      1  0.5347150000000  0.4745340000000  0.4860730000000 1.0
C      1  0.4858200000000  0.5001180000000  0.5155900000000 1.0
C      1  0.4322230000000  0.5880150000000  0.4717550000000 1.0
C      1  0.5020150000000  0.4570730000000  0.5300990000000 1.0
END
