TITL C-883739-1268-141 3.19368561534737 125000 -21381.1434129725 0 0 142 (C1) n - 1
REM
REM in /home/nfs/bkarasulu/CARBON/AIRSS/Generating-Clusters/ReaxFF-fromJPCA2015/Units_Real/with-SteepDescent/Only-C1/SD-CG/Try1-3A/FIRE-CG
REM
REM
REM
REM
REM
REM ./C.cell (11c1c37f851c82e70ff6c80c92926a4b)
REM
REM compiler GCC version 9.2.1 20190827 (Red Hat 9.2.1-1)
REM options -cpp -mtune=generic -march=x86-64 -g -O0 -fpre-include=/usr/include/finclude/math-vector-fortran.h
REM seed 658910015 343246091 -2142392797 648059479 1359483281 -45806386 -985399382 -166391121 565051891 1630317091 610339841 -1139916068 2011929850 649705513 -1575892614 316609792 -156354052 1404956576 -1748122084 -1175276840 189706846 1969529259 -2098004317 -1771613988 -1841335867 482420418 687014946 -38980354 316309473 -1470861270 254346480 282869861 785548500
REM
CELL 1.54180   50.00000   50.00000   50.00000   90.00000   90.00000   90.00000
LATT -1
SFAC C  
C      1  0.5964920000000  0.4941090000000  0.4962940000000 1.0
C      1  0.5889520000000  0.5022530000000  0.5410220000000 1.0
C      1  0.5594580000000  0.4831010000000  0.5713850000000 1.0
C      1  0.4943090000000  0.4493250000000  0.5940110000000 1.0
C      1  0.4071830000000  0.4856650000000  0.5447540000000 1.0
C      1  0.5346990000000  0.4403080000000  0.5595190000000 1.0
C      1  0.4816910000000  0.5582070000000  0.5369590000000 1.0
C      1  0.4417720000000  0.4248440000000  0.5316130000000 1.0
C      1  0.4619830000000  0.4782390000000  0.5104160000000 1.0
C      1  0.5921930000000  0.4954880000000  0.4500890000000 1.0
C      1  0.5011930000000  0.5556700000000  0.5157710000000 1.0
C      1  0.4978300000000  0.4605090000000  0.4366390000000 1.0
C      1  0.5304100000000  0.5907280000000  0.5453510000000 1.0
C      1  0.4122670000000  0.4760150000000  0.4163820000000 1.0
C      1  0.4633460000000  0.5445380000000  0.4831590000000 1.0
C      1  0.5124420000000  0.5519140000000  0.4705530000000 1.0
C      1  0.4756700000000  0.4960590000000  0.4744880000000 1.0
C      1  0.5763670000000  0.4479430000000  0.4357140000000 1.0
C      1  0.5141820000000  0.4052260000000  0.5361980000000 1.0
C      1  0.5753990000000  0.5487760000000  0.4846750000000 1.0
C      1  0.5390390000000  0.4467070000000  0.4079660000000 1.0
C      1  0.5058860000000  0.4876580000000  0.4288890000000 1.0
C      1  0.5025510000000  0.5573040000000  0.5799860000000 1.0
C      1  0.4186480000000  0.4578970000000  0.4373910000000 1.0
C      1  0.5726720000000  0.4803040000000  0.4919920000000 1.0
C      1  0.4672510000000  0.4690690000000  0.4836990000000 1.0
C      1  0.5012440000000  0.4982410000000  0.4900980000000 1.0
C      1  0.4666080000000  0.4183030000000  0.5452770000000 1.0
C      1  0.4403040000000  0.4206570000000  0.5014250000000 1.0
C      1  0.4583870000000  0.5033320000000  0.4162200000000 1.0
C      1  0.4518590000000  0.5042120000000  0.5457480000000 1.0
C      1  0.5840560000000  0.4294530000000  0.5259740000000 1.0
C      1  0.5159300000000  0.5211560000000  0.6140670000000 1.0
C      1  0.4485090000000  0.5190290000000  0.4397590000000 1.0
C      1  0.4242700000000  0.5096080000000  0.5494470000000 1.0
C      1  0.5439620000000  0.4140700000000  0.4676960000000 1.0
C      1  0.5260310000000  0.4603620000000  0.5377360000000 1.0
C      1  0.5363890000000  0.4272670000000  0.4290790000000 1.0
C      1  0.4540270000000  0.5613430000000  0.5391750000000 1.0
C      1  0.5171610000000  0.5025480000000  0.4508740000000 1.0
C      1  0.5380540000000  0.4829400000000  0.5232160000000 1.0
C      1  0.5660240000000  0.4547690000000  0.4103510000000 1.0
C      1  0.3979690000000  0.4992870000000  0.4932030000000 1.0
C      1  0.5085030000000  0.4580010000000  0.4633380000000 1.0
C      1  0.4688980000000  0.5289950000000  0.4050660000000 1.0
C      1  0.4711390000000  0.5302620000000  0.5998870000000 1.0
C      1  0.4017670000000  0.4806490000000  0.5139380000000 1.0
C      1  0.5145520000000  0.4081250000000  0.5076080000000 1.0
C      1  0.4953190000000  0.4064790000000  0.4621060000000 1.0
C      1  0.5584610000000  0.4141680000000  0.5213170000000 1.0
C      1  0.5331740000000  0.5351550000000  0.4838900000000 1.0
C      1  0.4984160000000  0.4620960000000  0.5338610000000 1.0
C      1  0.5258640000000  0.5690400000000  0.5664560000000 1.0
C      1  0.6089970000000  0.5044700000000  0.4722950000000 1.0
C      1  0.4886930000000  0.5599640000000  0.4896200000000 1.0
C      1  0.5687420000000  0.5137040000000  0.4478170000000 1.0
C      1  0.3925130000000  0.5200500000000  0.4761840000000 1.0
C      1  0.5593180000000  0.5271310000000  0.4727750000000 1.0
C      1  0.4562050000000  0.5995390000000  0.5096150000000 1.0
C      1  0.4774190000000  0.4640560000000  0.5520860000000 1.0
C      1  0.5409300000000  0.4120350000000  0.4970960000000 1.0
C      1  0.5841880000000  0.4577410000000  0.4800180000000 1.0
C      1  0.5293370000000  0.5553370000000  0.5221420000000 1.0
C      1  0.5141440000000  0.6042830000000  0.5276160000000 1.0
C      1  0.4765420000000  0.6031510000000  0.4615270000000 1.0
C      1  0.4539890000000  0.4726910000000  0.5367050000000 1.0
C      1  0.5457650000000  0.5798340000000  0.5211620000000 1.0
C      1  0.4483760000000  0.5173570000000  0.5909420000000 1.0
C      1  0.5244420000000  0.4828430000000  0.4737700000000 1.0
C      1  0.4965180000000  0.5041510000000  0.5372660000000 1.0
C      1  0.5587520000000  0.4277570000000  0.4462030000000 1.0
C      1  0.3981190000000  0.5577480000000  0.5123900000000 1.0
C      1  0.4312370000000  0.4508050000000  0.5402660000000 1.0
C      1  0.3858140000000  0.5476290000000  0.4896590000000 1.0
C      1  0.4401620000000  0.5611170000000  0.4855590000000 1.0
C      1  0.5112840000000  0.4701580000000  0.6092600000000 1.0
C      1  0.5499980000000  0.5897330000000  0.4933740000000 1.0
C      1  0.4531940000000  0.4869480000000  0.5897860000000 1.0
C      1  0.4956030000000  0.5421370000000  0.6050820000000 1.0
C      1  0.5546670000000  0.5221850000000  0.4236790000000 1.0
C      1  0.5867580000000  0.4388220000000  0.5004940000000 1.0
C      1  0.4336970000000  0.5816450000000  0.5080240000000 1.0
C      1  0.5232910000000  0.5079680000000  0.5274930000000 1.0
C      1  0.5403930000000  0.4143900000000  0.5440260000000 1.0
C      1  0.5609580000000  0.5309710000000  0.5550020000000 1.0
C      1  0.4655460000000  0.5889890000000  0.4385840000000 1.0
C      1  0.5619850000000  0.5722300000000  0.4725260000000 1.0
C      1  0.5852270000000  0.4503370000000  0.5494400000000 1.0
C      1  0.4607320000000  0.5196160000000  0.4670850000000 1.0
C      1  0.5378840000000  0.5483550000000  0.5496440000000 1.0
C      1  0.4323470000000  0.4745010000000  0.5773420000000 1.0
C      1  0.4577400000000  0.4625310000000  0.4111350000000 1.0
C      1  0.5459760000000  0.4820070000000  0.4953060000000 1.0
C      1  0.4299040000000  0.4398700000000  0.4539990000000 1.0
C      1  0.4119790000000  0.4607630000000  0.4971120000000 1.0
C      1  0.5414120000000  0.5019750000000  0.4063580000000 1.0
C      1  0.4518570000000  0.5442310000000  0.4247770000000 1.0
C      1  0.4296240000000  0.5295940000000  0.5703910000000 1.0
C      1  0.5123500000000  0.5031200000000  0.4039310000000 1.0
C      1  0.4005300000000  0.5469910000000  0.4645570000000 1.0
C      1  0.5423020000000  0.5490230000000  0.4274560000000 1.0
C      1  0.5828530000000  0.5287000000000  0.5356100000000 1.0
C      1  0.4804100000000  0.5940510000000  0.4908830000000 1.0
C      1  0.4834450000000  0.5443350000000  0.5624510000000 1.0
C      1  0.4885760000000  0.4848310000000  0.5168470000000 1.0
C      1  0.5128930000000  0.4848590000000  0.5841600000000 1.0
C      1  0.5078560000000  0.4328810000000  0.5746640000000 1.0
C      1  0.5483340000000  0.4739780000000  0.4022280000000 1.0
C      1  0.5094110000000  0.5304460000000  0.4496460000000 1.0
C      1  0.4886470000000  0.4491740000000  0.4819970000000 1.0
C      1  0.4442720000000  0.5683900000000  0.4383810000000 1.0
C      1  0.5061240000000  0.6085830000000  0.5010170000000 1.0
C      1  0.4948320000000  0.5929080000000  0.4424030000000 1.0
C      1  0.5629770000000  0.4561010000000  0.5672600000000 1.0
C      1  0.4736380000000  0.4454320000000  0.4262760000000 1.0
C      1  0.4904290000000  0.4186970000000  0.4904070000000 1.0
C      1  0.5262070000000  0.5102510000000  0.5880240000000 1.0
C      1  0.5264530000000  0.6007610000000  0.4816340000000 1.0
C      1  0.4663320000000  0.4068790000000  0.4581730000000 1.0
C      1  0.4238630000000  0.4392070000000  0.4849570000000 1.0
C      1  0.5926160000000  0.4769840000000  0.5460940000000 1.0
C      1  0.4800730000000  0.4722160000000  0.5797780000000 1.0
C      1  0.5542760000000  0.5098850000000  0.5754830000000 1.0
C      1  0.4133210000000  0.4617670000000  0.5606210000000 1.0
C      1  0.4765960000000  0.5179720000000  0.5508010000000 1.0
C      1  0.5209420000000  0.4114630000000  0.4495810000000 1.0
C      1  0.4409340000000  0.4827150000000  0.4039120000000 1.0
C      1  0.5132470000000  0.5441960000000  0.4237780000000 1.0
C      1  0.5906510000000  0.4661960000000  0.4519710000000 1.0
C      1  0.4250230000000  0.5624190000000  0.4605460000000 1.0
C      1  0.5105520000000  0.4950400000000  0.6232720000000 1.0
C      1  0.5903600000000  0.5409670000000  0.5087530000000 1.0
C      1  0.4549530000000  0.4290030000000  0.4431820000000 1.0
C      1  0.4614480000000  0.4072960000000  0.4873980000000 1.0
C      1  0.4983850000000  0.5289690000000  0.4034460000000 1.0
C      1  0.5172670000000  0.5199420000000  0.5019470000000 1.0
C      1  0.6077180000000  0.5211860000000  0.4969400000000 1.0
C      1  0.4316870000000  0.5544090000000  0.5531630000000 1.0
C      1  0.4147440000000  0.5690850000000  0.5307780000000 1.0
C      1  0.5203410000000  0.5832310000000  0.4570630000000 1.0
C      1  0.5459840000000  0.5697850000000  0.4479010000000 1.0
C      1  0.4931230000000  0.4149190000000  0.5562730000000 1.0
END
