TITL C-883730-8503-427 1.60422457842757 125000 -4360.44347286323 0 0 31 (C1) n - 1
REM
REM in /home/nfs/bkarasulu/CARBON/AIRSS/Generating-Clusters/ReaxFF-fromJPCA2015/Units_Real/with-SteepDescent/Only-C1/SD-CG/Try1-3A/FIRE-CG
REM
REM
REM
REM
REM
REM ./C.cell (11c1c37f851c82e70ff6c80c92926a4b)
REM
REM compiler GCC version 9.2.1 20190827 (Red Hat 9.2.1-1)
REM options -cpp -mtune=generic -march=x86-64 -g -O0 -fpre-include=/usr/include/finclude/math-vector-fortran.h
REM seed -527915779 787168387 289034273 1714680743 153961640 1677011051 -581979290 -204010741 -672784616 -503528953 1919100177 -183977524 1608626902 1851753376 -1844844117 -1129271954 665702109 1046241859 1107542708 -405362120 789631394 -219828315 -1746577811 246875303 2005925189 100256436 801468003 -1334956484 -1340376146 -633878628 1236792599 1128544424 -1265419598
REM
CELL 1.54180   50.00000   50.00000   50.00000   90.00000   90.00000   90.00000
LATT -1
SFAC C  
C      1  0.5269200000000  0.4532830000000  0.5460040000000 1.0
C      1  0.5159760000000  0.5591700000000  0.4848930000000 1.0
C      1  0.5070300000000  0.4779940000000  0.4616580000000 1.0
C      1  0.4652190000000  0.5366170000000  0.4442320000000 1.0
C      1  0.5324870000000  0.4817920000000  0.4769850000000 1.0
C      1  0.4580890000000  0.4649670000000  0.5318980000000 1.0
C      1  0.4753070000000  0.5136120000000  0.4475380000000 1.0
C      1  0.4576430000000  0.4812580000000  0.4805110000000 1.0
C      1  0.4819880000000  0.5153960000000  0.4978120000000 1.0
C      1  0.5428600000000  0.5262360000000  0.4490720000000 1.0
C      1  0.5245080000000  0.5130610000000  0.4281620000000 1.0
C      1  0.5023280000000  0.4975470000000  0.4404000000000 1.0
C      1  0.4835650000000  0.4671020000000  0.4753170000000 1.0
C      1  0.4875430000000  0.5708280000000  0.5436470000000 1.0
C      1  0.4740350000000  0.4883790000000  0.5405990000000 1.0
C      1  0.5035010000000  0.4425820000000  0.5361400000000 1.0
C      1  0.4860560000000  0.4911760000000  0.5139770000000 1.0
C      1  0.4636190000000  0.5105400000000  0.4762500000000 1.0
C      1  0.4793350000000  0.4444960000000  0.5230730000000 1.0
C      1  0.4453590000000  0.4724040000000  0.5061010000000 1.0
C      1  0.5328500000000  0.5516900000000  0.4637950000000 1.0
C      1  0.4913570000000  0.4632490000000  0.5030210000000 1.0
C      1  0.5424820000000  0.5043740000000  0.4658880000000 1.0
C      1  0.4973230000000  0.5246780000000  0.5578240000000 1.0
C      1  0.5228480000000  0.5155590000000  0.5074720000000 1.0
C      1  0.4966940000000  0.4956880000000  0.5586380000000 1.0
C      1  0.5047530000000  0.5377370000000  0.5061480000000 1.0
C      1  0.5397160000000  0.4775830000000  0.5328870000000 1.0
C      1  0.5380700000000  0.4919120000000  0.5062340000000 1.0
C      1  0.5233080000000  0.4815740000000  0.5556500000000 1.0
C      1  0.4972290000000  0.5475140000000  0.5381710000000 1.0
END
