TITL C-884128-4793-57 1826199.98137777 125000 -29119.5780395753 0 0 194 (C1) n - 1
REM
REM in /home/nfs/bkarasulu/CARBON/AIRSS/Generating-Clusters/ReaxFF-fromJPCA2015/Units_Real/with-SteepDescent/Only-C1/SD-CG/Try1-3A/FIRE-CG
REM
REM
REM
REM
REM
REM ./C.cell (11c1c37f851c82e70ff6c80c92926a4b)
REM
REM compiler GCC version 9.2.1 20190827 (Red Hat 9.2.1-1)
REM options -cpp -mtune=generic -march=x86-64 -g -O0 -fpre-include=/usr/include/finclude/math-vector-fortran.h
REM seed -1420717093 -1363038715 -2068292185 1380674053 115815605 -1711454674 1872755137 -2121086356 -1137484058 -1889899918 1675019932 424328861 1816162705 -2050849135 -588776156 1722409484 -1224255560 597154429 205085867 1876826269 -1552407661 1045239307 1068296031 1372271854 307029122 -1188191621 2014889848 1666407272 -538105363 578532703 478448501 485536584 -319073830
REM
CELL 1.54180   50.00000   50.00000   50.00000   90.00000   90.00000   90.00000
LATT -1
SFAC C  
C      1  0.5053010000000  0.5851140000000  0.5740010000000 1.0
C      1  0.5083460000000  0.5308940000000  0.5762690000000 1.0
C      1  0.4924370000000  0.5467230000000  0.6120580000000 1.0
C      1  0.5990010000000  0.5293830000000  0.5575900000000 1.0
C      1  0.4826900000000  0.5889530000000  0.5112740000000 1.0
C      1  0.4749560000000  0.5151850000000  0.6077880000000 1.0
C      1  0.4928260000000  0.4463460000000  0.4204540000000 1.0
C      1  0.5539530000000  0.5372030000000  0.5779860000000 1.0
C      1  0.4445310000000  0.5528200000000  0.4944920000000 1.0
C      1  0.4994880000000  0.4739430000000  0.4983310000000 1.0
C      1  0.5496470000000  0.5285440000000  0.4627260000000 1.0
C      1  0.5634930000000  0.4363530000000  0.4404650000000 1.0
C      1  0.4283060000000  0.4160180000000  0.4775770000000 1.0
C      1  0.5725910000000  0.5737430000000  0.5474800000000 1.0
C      1  0.4382920000000  0.4623370000000  0.4875770000000 1.0
C      1  0.4784120000000  0.4815640000000  0.3872240000000 1.0
C      1  0.5045240000000  0.5512480000000  0.4825580000000 1.0
C      1  0.4028910000000  0.5623210000000  0.4640760000000 1.0
C      1  0.4868430000000  0.4600720000000  0.4780130000000 1.0
C      1  0.5208000000000  0.3758490000000  0.4800740000000 1.0
C      1  0.6149660000000  0.5095050000000  0.4880830000000 1.0
C      1  0.5527950000000  0.5635030000000  0.5681630000000 1.0
C      1  0.5569260000000  0.4802260000000  0.4884720000000 1.0
C      1  0.5197480000000  0.4955190000000  0.4583460000000 1.0
C      1  0.5047560000000  0.4996250000000  0.4883510000000 1.0
C      1  0.5276750000000  0.6117160000000  0.4850940000000 1.0
C      1  0.4903660000000  0.4045550000000  0.5635790000000 1.0
C      1  0.4998310000000  0.4941920000000  0.4390220000000 1.0
C      1  0.4518090000000  0.4430110000000  0.5050640000000 1.0
C      1  0.5565690000000  0.3999330000000  0.4626570000000 1.0
C      1  0.5388660000000  0.4282960000000  0.4264020000000 1.0
C      1  0.4333790000000  0.4978890000000  0.4083430000000 1.0
C      1  0.5703490000000  0.5253690000000  0.5084770000000 1.0
C      1  0.6110400000000  0.5373000000000  0.4789570000000 1.0
C      1  0.5047560000000  0.4904910000000  0.3844840000000 1.0
C      1  0.5318600000000  0.5247750000000  0.5933530000000 1.0
C      1  0.4389640000000  0.5255290000000  0.3998170000000 1.0
C      1  0.5002950000000  0.4183980000000  0.4974230000000 1.0
C      1  0.5768970000000  0.5674830000000  0.4575920000000 1.0
C      1  0.5148260000000  0.3847470000000  0.4526560000000 1.0
C      1  0.4664470000000  0.5178830000000  0.4575160000000 1.0
C      1  0.5706370000000  0.5008010000000  0.4066180000000 1.0
C      1  0.4466910000000  0.5728300000000  0.4313360000000 1.0
C      1  0.5790290000000  0.5775290000000  0.4845440000000 1.0
C      1  0.5182750000000  0.5404390000000  0.6205040000000 1.0
C      1  0.4174220000000  0.5207340000000  0.4450940000000 1.0
C      1  0.6075740000000  0.5079450000000  0.5412380000000 1.0
C      1  0.4531910000000  0.4767380000000  0.3985450000000 1.0
C      1  0.4659110000000  0.5255890000000  0.3893360000000 1.0
C      1  0.5712710000000  0.4571860000000  0.5033220000000 1.0
C      1  0.5711190000000  0.4221960000000  0.5442280000000 1.0
C      1  0.6117510000000  0.4870830000000  0.4695460000000 1.0
C      1  0.4966430000000  0.5993940000000  0.5497960000000 1.0
C      1  0.6100250000000  0.4957850000000  0.5159140000000 1.0
C      1  0.5146030000000  0.4772590000000  0.5941810000000 1.0
C      1  0.4489270000000  0.5706150000000  0.5609260000000 1.0
C      1  0.6065700000000  0.4609680000000  0.4772370000000 1.0
C      1  0.4832790000000  0.5156440000000  0.4101680000000 1.0
C      1  0.4374070000000  0.5515780000000  0.4148310000000 1.0
C      1  0.5810080000000  0.4932710000000  0.5706300000000 1.0
C      1  0.4132930000000  0.4127950000000  0.5232790000000 1.0
C      1  0.4673000000000  0.5587240000000  0.5804100000000 1.0
C      1  0.4208820000000  0.4717830000000  0.4389010000000 1.0
C      1  0.4038950000000  0.4914050000000  0.5546880000000 1.0
C      1  0.5546420000000  0.5461220000000  0.4156300000000 1.0
C      1  0.5423870000000  0.4983880000000  0.4020280000000 1.0
C      1  0.5900400000000  0.5492830000000  0.5178460000000 1.0
C      1  0.5009460000000  0.3911800000000  0.5413430000000 1.0
C      1  0.4984220000000  0.4329190000000  0.4452670000000 1.0
C      1  0.4595620000000  0.4722340000000  0.4698690000000 1.0
C      1  0.4991520000000  0.4853010000000  0.5711760000000 1.0
C      1  0.5257180000000  0.4386140000000  0.5574220000000 1.0
C      1  0.5928570000000  0.4735180000000  0.5234950000000 1.0
C      1  0.3835290000000  0.5235230000000  0.5403660000000 1.0
C      1  0.4358120000000  0.4127380000000  0.5433360000000 1.0
C      1  0.4634740000000  0.4607290000000  0.5243160000000 1.0
C      1  0.3984350000000  0.4326900000000  0.5051830000000 1.0
C      1  0.5748630000000  0.4145770000000  0.5157280000000 1.0
C      1  0.5886790000000  0.4705190000000  0.5520140000000 1.0
C      1  0.4258300000000  0.5789710000000  0.4605140000000 1.0
C      1  0.4282810000000  0.5951420000000  0.4895230000000 1.0
C      1  0.4806560000000  0.4236220000000  0.5827160000000 1.0
C      1  0.4697930000000  0.6003690000000  0.5347490000000 1.0
C      1  0.5369450000000  0.4957490000000  0.5968510000000 1.0
C      1  0.4022280000000  0.5645790000000  0.5210050000000 1.0
C      1  0.4101000000000  0.5193590000000  0.5056460000000 1.0
C      1  0.4756310000000  0.5792840000000  0.4253850000000 1.0
C      1  0.5297110000000  0.4530070000000  0.5836800000000 1.0
C      1  0.5433850000000  0.4954440000000  0.5167000000000 1.0
C      1  0.4997880000000  0.4426420000000  0.5427020000000 1.0
C      1  0.4838860000000  0.5399720000000  0.5019580000000 1.0
C      1  0.4756880000000  0.4135500000000  0.4501520000000 1.0
C      1  0.5471970000000  0.3849470000000  0.4868450000000 1.0
C      1  0.4955460000000  0.3904630000000  0.4917200000000 1.0
C      1  0.4697800000000  0.5351790000000  0.5313190000000 1.0
C      1  0.3970930000000  0.5480890000000  0.5454030000000 1.0
C      1  0.5981970000000  0.5283420000000  0.4324030000000 1.0
C      1  0.5025530000000  0.5714170000000  0.4388680000000 1.0
C      1  0.5663190000000  0.5651150000000  0.5232040000000 1.0
C      1  0.4550570000000  0.4228230000000  0.4685510000000 1.0
C      1  0.5946160000000  0.5012800000000  0.4439960000000 1.0
C      1  0.4872880000000  0.3891670000000  0.4602480000000 1.0
C      1  0.5791480000000  0.4825740000000  0.4271120000000 1.0
C      1  0.4778170000000  0.5134670000000  0.4845710000000 1.0
C      1  0.4550710000000  0.5021020000000  0.4973790000000 1.0
C      1  0.4356750000000  0.4869660000000  0.5969970000000 1.0
C      1  0.3934220000000  0.4882110000000  0.4742790000000 1.0
C      1  0.5303960000000  0.5817980000000  0.4423020000000 1.0
C      1  0.5254590000000  0.5694710000000  0.5594720000000 1.0
C      1  0.5099860000000  0.5933070000000  0.5235290000000 1.0
C      1  0.5104540000000  0.5204720000000  0.5336580000000 1.0
C      1  0.4735600000000  0.4726990000000  0.5685960000000 1.0
C      1  0.4549630000000  0.4362990000000  0.5925400000000 1.0
C      1  0.5623430000000  0.5862340000000  0.5097540000000 1.0
C      1  0.4277890000000  0.4863170000000  0.5682940000000 1.0
C      1  0.5737090000000  0.5040690000000  0.4880790000000 1.0
C      1  0.4603710000000  0.4691890000000  0.5992630000000 1.0
C      1  0.4472080000000  0.6146970000000  0.4848680000000 1.0
C      1  0.4427980000000  0.5901580000000  0.5392240000000 1.0
C      1  0.5257220000000  0.4746490000000  0.3977180000000 1.0
C      1  0.5320340000000  0.5259750000000  0.4125940000000 1.0
C      1  0.4552070000000  0.4910700000000  0.5525180000000 1.0
C      1  0.5601760000000  0.4656870000000  0.4412440000000 1.0
C      1  0.5833520000000  0.4311550000000  0.4922140000000 1.0
C      1  0.4068550000000  0.4375630000000  0.4775530000000 1.0
C      1  0.4808510000000  0.3895390000000  0.5196690000000 1.0
C      1  0.3939150000000  0.5138910000000  0.4604750000000 1.0
C      1  0.5157690000000  0.4477380000000  0.4654850000000 1.0
C      1  0.4828500000000  0.4870120000000  0.6080600000000 1.0
C      1  0.3857940000000  0.4962150000000  0.5341620000000 1.0
C      1  0.4743190000000  0.6267840000000  0.4759110000000 1.0
C      1  0.5738420000000  0.4226220000000  0.4655630000000 1.0
C      1  0.5601900000000  0.5129660000000  0.5315360000000 1.0
C      1  0.4731410000000  0.5148690000000  0.5509850000000 1.0
C      1  0.5322610000000  0.4801290000000  0.5356640000000 1.0
C      1  0.4227620000000  0.5374710000000  0.5595420000000 1.0
C      1  0.5065280000000  0.5221820000000  0.3940470000000 1.0
C      1  0.5991740000000  0.5475710000000  0.4538070000000 1.0
C      1  0.4238220000000  0.4733390000000  0.5096290000000 1.0
C      1  0.5757260000000  0.4457970000000  0.5612430000000 1.0
C      1  0.4920740000000  0.4633620000000  0.5241860000000 1.0
C      1  0.5616120000000  0.4832910000000  0.5898660000000 1.0
C      1  0.5119650000000  0.5438570000000  0.5510460000000 1.0
C      1  0.5322680000000  0.3936170000000  0.5360450000000 1.0
C      1  0.6009640000000  0.5607310000000  0.4932170000000 1.0
C      1  0.5448380000000  0.4122920000000  0.5524230000000 1.0
C      1  0.4883670000000  0.5711380000000  0.5946130000000 1.0
C      1  0.4423730000000  0.5324900000000  0.4544380000000 1.0
C      1  0.4532270000000  0.3986860000000  0.5229550000000 1.0
C      1  0.5779790000000  0.5294280000000  0.4120720000000 1.0
C      1  0.4768160000000  0.4337020000000  0.4886960000000 1.0
C      1  0.4008160000000  0.4913450000000  0.5050660000000 1.0
C      1  0.5727450000000  0.5128090000000  0.4616850000000 1.0
C      1  0.4755900000000  0.5040020000000  0.4346320000000 1.0
C      1  0.5299380000000  0.5629460000000  0.4889650000000 1.0
C      1  0.5354350000000  0.5863140000000  0.4710240000000 1.0
C      1  0.5686200000000  0.5183980000000  0.5595430000000 1.0
C      1  0.4802490000000  0.4452460000000  0.5623320000000 1.0
C      1  0.4402070000000  0.4258070000000  0.5701580000000 1.0
C      1  0.5225000000000  0.5153570000000  0.5064060000000 1.0
C      1  0.5357450000000  0.4033860000000  0.4414160000000 1.0
C      1  0.4041310000000  0.4645550000000  0.4622050000000 1.0
C      1  0.5431170000000  0.5362640000000  0.4907750000000 1.0
C      1  0.3922290000000  0.5427480000000  0.5036120000000 1.0
C      1  0.5525320000000  0.3949740000000  0.5140550000000 1.0
C      1  0.4435910000000  0.5136590000000  0.6054760000000 1.0
C      1  0.5435190000000  0.4446700000000  0.5089950000000 1.0
C      1  0.4495300000000  0.4653010000000  0.4434030000000 1.0
C      1  0.4450170000000  0.5572730000000  0.4679230000000 1.0
C      1  0.5133380000000  0.4954700000000  0.5484700000000 1.0
C      1  0.5359420000000  0.6003870000000  0.5109560000000 1.0
C      1  0.4143240000000  0.4979350000000  0.4290000000000 1.0
C      1  0.5968370000000  0.5560490000000  0.5463380000000 1.0
C      1  0.4231610000000  0.5848700000000  0.5168510000000 1.0
C      1  0.4794870000000  0.5283540000000  0.5774830000000 1.0
C      1  0.4824070000000  0.5649270000000  0.4032220000000 1.0
C      1  0.4290080000000  0.5261440000000  0.5849890000000 1.0
C      1  0.4872320000000  0.5452650000000  0.3839580000000 1.0
C      1  0.5551300000000  0.5668770000000  0.4363880000000 1.0
C      1  0.4489910000000  0.4847820000000  0.5211060000000 1.0
C      1  0.4691970000000  0.5652560000000  0.4986750000000 1.0
C      1  0.5206420000000  0.4489370000000  0.4126830000000 1.0
C      1  0.5395060000000  0.4715730000000  0.4619090000000 1.0
C      1  0.4651850000000  0.4595020000000  0.4193120000000 1.0
C      1  0.5578380000000  0.4547970000000  0.5833120000000 1.0
C      1  0.5014970000000  0.6203770000000  0.4800020000000 1.0
C      1  0.4369780000000  0.5248250000000  0.5005370000000 1.0
C      1  0.4459420000000  0.5475100000000  0.5422650000000 1.0
C      1  0.5264330000000  0.5266990000000  0.4451600000000 1.0
C      1  0.5381540000000  0.4537640000000  0.5356830000000 1.0
C      1  0.5049010000000  0.5462470000000  0.4537000000000 1.0
C      1  0.4306420000000  0.4006490000000  0.5032660000000 1.0
C      1  0.3874340000000  0.5416640000000  0.4732890000000 1.0
C      1  0.5241000000000  0.4335450000000  0.4903920000000 1.0
END
