TITL C-883736-9678-60 -9.9432519061389 125000 -30217.3325987801 0 0 200 (C1) n - 1
REM
REM in /home/nfs/bkarasulu/CARBON/AIRSS/Generating-Clusters/ReaxFF-fromJPCA2015/Units_Real/with-SteepDescent/Only-C1/SD-CG/Try1-3A/FIRE-CG
REM
REM
REM
REM
REM
REM ./C.cell (11c1c37f851c82e70ff6c80c92926a4b)
REM
REM compiler GCC version 9.2.1 20190827 (Red Hat 9.2.1-1)
REM options -cpp -mtune=generic -march=x86-64 -g -O0 -fpre-include=/usr/include/finclude/math-vector-fortran.h
REM seed -1090603138 829241085 -1349308207 -428380177 -602792342 -2001029679 1282801865 -1234731020 2032569687 -1232635699 896439900 -53508732 1313309470 -513136457 2039198167 2081011583 92747219 1310342201 714241637 1541383381 -2041231725 1447251995 1611828900 474874876 -253939222 -1538475347 -1991249434 -715887549 1434279340 1312248065 -1779493259 -111605469 -1566419057
REM
CELL 1.54180   50.00000   50.00000   50.00000   90.00000   90.00000   90.00000
LATT -1
SFAC C  
C      1  0.4032870000000  0.4616910000000  0.4884180000000 1.0
C      1  0.5076190000000  0.4085550000000  0.5506490000000 1.0
C      1  0.4777050000000  0.4421730000000  0.4452110000000 1.0
C      1  0.4855900000000  0.3934290000000  0.5193140000000 1.0
C      1  0.4780330000000  0.5942140000000  0.4426550000000 1.0
C      1  0.4086050000000  0.5151160000000  0.5016730000000 1.0
C      1  0.5276090000000  0.4991650000000  0.5701520000000 1.0
C      1  0.4068420000000  0.4438890000000  0.5250430000000 1.0
C      1  0.5765670000000  0.5799290000000  0.5066850000000 1.0
C      1  0.4083000000000  0.5447290000000  0.5418860000000 1.0
C      1  0.5253000000000  0.4327440000000  0.5218850000000 1.0
C      1  0.5167800000000  0.4552990000000  0.5952610000000 1.0
C      1  0.5721690000000  0.4243640000000  0.4536290000000 1.0
C      1  0.4518280000000  0.4405720000000  0.5810420000000 1.0
C      1  0.5445470000000  0.4508170000000  0.5936380000000 1.0
C      1  0.4553770000000  0.5350090000000  0.5300310000000 1.0
C      1  0.4048800000000  0.5267260000000  0.4723150000000 1.0
C      1  0.4919690000000  0.4142600000000  0.4844510000000 1.0
C      1  0.5607130000000  0.5805390000000  0.4564590000000 1.0
C      1  0.3966030000000  0.5011210000000  0.5734680000000 1.0
C      1  0.4815160000000  0.4696450000000  0.5184820000000 1.0
C      1  0.5445860000000  0.5251720000000  0.6062880000000 1.0
C      1  0.4684090000000  0.4062100000000  0.5491660000000 1.0
C      1  0.5058890000000  0.5402930000000  0.5472020000000 1.0
C      1  0.4498500000000  0.3910920000000  0.4767620000000 1.0
C      1  0.6011320000000  0.4888320000000  0.5331640000000 1.0
C      1  0.4925860000000  0.4621320000000  0.4301770000000 1.0
C      1  0.4572030000000  0.5115050000000  0.5129500000000 1.0
C      1  0.5458890000000  0.6057370000000  0.4625090000000 1.0
C      1  0.4522580000000  0.5958500000000  0.5377720000000 1.0
C      1  0.5516000000000  0.5047450000000  0.4713100000000 1.0
C      1  0.5428660000000  0.4961600000000  0.6106260000000 1.0
C      1  0.4989890000000  0.6153520000000  0.5377520000000 1.0
C      1  0.5276800000000  0.5213530000000  0.5521050000000 1.0
C      1  0.4440900000000  0.4870500000000  0.5841880000000 1.0
C      1  0.4751700000000  0.4890150000000  0.4329630000000 1.0
C      1  0.5866070000000  0.5139400000000  0.5758570000000 1.0
C      1  0.5341400000000  0.6053580000000  0.4913410000000 1.0
C      1  0.4897800000000  0.5769890000000  0.4221990000000 1.0
C      1  0.5256460000000  0.4744270000000  0.5374970000000 1.0
C      1  0.5003850000000  0.4587560000000  0.5034030000000 1.0
C      1  0.4084330000000  0.4499600000000  0.5532530000000 1.0
C      1  0.4669080000000  0.5774360000000  0.5046280000000 1.0
C      1  0.5852010000000  0.5128550000000  0.4146730000000 1.0
C      1  0.5452140000000  0.4129600000000  0.4625010000000 1.0
C      1  0.5762530000000  0.5390260000000  0.4213060000000 1.0
C      1  0.4996930000000  0.4860220000000  0.5336720000000 1.0
C      1  0.4555330000000  0.5386510000000  0.4700120000000 1.0
C      1  0.4477220000000  0.4816300000000  0.4344310000000 1.0
C      1  0.5858980000000  0.4609400000000  0.4933330000000 1.0
C      1  0.5458050000000  0.5118460000000  0.3880000000000 1.0
C      1  0.5792510000000  0.5727760000000  0.4785350000000 1.0
C      1  0.4548560000000  0.5536870000000  0.4937580000000 1.0
C      1  0.5868390000000  0.4934220000000  0.4395140000000 1.0
C      1  0.4522480000000  0.5882810000000  0.5649070000000 1.0
C      1  0.5660860000000  0.5637920000000  0.4275160000000 1.0
C      1  0.4785980000000  0.4756800000000  0.3879370000000 1.0
C      1  0.4979120000000  0.5480970000000  0.4906220000000 1.0
C      1  0.5335510000000  0.5228690000000  0.5064950000000 1.0
C      1  0.4994800000000  0.4306090000000  0.5341020000000 1.0
C      1  0.5477040000000  0.5154760000000  0.5299570000000 1.0
C      1  0.5679880000000  0.5346430000000  0.5884010000000 1.0
C      1  0.5149680000000  0.4771460000000  0.4692510000000 1.0
C      1  0.4020040000000  0.4747140000000  0.4237470000000 1.0
C      1  0.5222170000000  0.4677560000000  0.4429960000000 1.0
C      1  0.5019170000000  0.6003810000000  0.5638940000000 1.0
C      1  0.4118420000000  0.5587450000000  0.4639850000000 1.0
C      1  0.4804960000000  0.4143570000000  0.4382780000000 1.0
C      1  0.5992140000000  0.5150590000000  0.5498650000000 1.0
C      1  0.6018820000000  0.5014090000000  0.4649590000000 1.0
C      1  0.4400080000000  0.4121710000000  0.5454960000000 1.0
C      1  0.5199070000000  0.5786440000000  0.4271170000000 1.0
C      1  0.4145760000000  0.5217830000000  0.5824280000000 1.0
C      1  0.5338310000000  0.4578520000000  0.3968520000000 1.0
C      1  0.5389950000000  0.4822550000000  0.4822830000000 1.0
C      1  0.5847040000000  0.4516450000000  0.4071560000000 1.0
C      1  0.4258000000000  0.4198150000000  0.5191240000000 1.0
C      1  0.5360210000000  0.4348690000000  0.4779750000000 1.0
C      1  0.5489560000000  0.4268220000000  0.5760810000000 1.0
C      1  0.4617340000000  0.5315070000000  0.5822750000000 1.0
C      1  0.6000870000000  0.4410740000000  0.5113520000000 1.0
C      1  0.5030360000000  0.5310250000000  0.4495010000000 1.0
C      1  0.4568830000000  0.3998000000000  0.4495520000000 1.0
C      1  0.5851900000000  0.4151250000000  0.5080600000000 1.0
C      1  0.4267840000000  0.5954040000000  0.4985250000000 1.0
C      1  0.5291470000000  0.5680810000000  0.4583960000000 1.0
C      1  0.5434600000000  0.4785460000000  0.5581900000000 1.0
C      1  0.4917940000000  0.4519620000000  0.4014620000000 1.0
C      1  0.4231090000000  0.4025510000000  0.4902070000000 1.0
C      1  0.5468180000000  0.5780160000000  0.5639170000000 1.0
C      1  0.4371680000000  0.5256650000000  0.4270740000000 1.0
C      1  0.4281700000000  0.4311600000000  0.5642450000000 1.0
C      1  0.4337030000000  0.4157570000000  0.4391370000000 1.0
C      1  0.5686090000000  0.4947720000000  0.5272240000000 1.0
C      1  0.5134620000000  0.3895190000000  0.5074540000000 1.0
C      1  0.5082780000000  0.3923150000000  0.4772060000000 1.0
C      1  0.4476830000000  0.4644200000000  0.6023670000000 1.0
C      1  0.4705090000000  0.6177290000000  0.5295040000000 1.0
C      1  0.5063130000000  0.6165660000000  0.5088420000000 1.0
C      1  0.5279710000000  0.5399610000000  0.4601940000000 1.0
C      1  0.4784930000000  0.6191510000000  0.5015980000000 1.0
C      1  0.4490390000000  0.5135320000000  0.4029260000000 1.0
C      1  0.4355280000000  0.5185960000000  0.4567860000000 1.0
C      1  0.5343030000000  0.4895670000000  0.4282300000000 1.0
C      1  0.5826710000000  0.5522280000000  0.5150600000000 1.0
C      1  0.4696200000000  0.5590710000000  0.4112310000000 1.0
C      1  0.6147650000000  0.4954690000000  0.5091760000000 1.0
C      1  0.5669830000000  0.4225760000000  0.5534650000000 1.0
C      1  0.5137320000000  0.5378590000000  0.3838440000000 1.0
C      1  0.4311030000000  0.4663040000000  0.4151570000000 1.0
C      1  0.4457490000000  0.4362540000000  0.4799040000000 1.0
C      1  0.5613420000000  0.4750200000000  0.6032690000000 1.0
C      1  0.4323570000000  0.5547930000000  0.5281150000000 1.0
C      1  0.6024180000000  0.5358650000000  0.5289850000000 1.0
C      1  0.3885950000000  0.4997200000000  0.5468010000000 1.0
C      1  0.5137190000000  0.5855990000000  0.4779970000000 1.0
C      1  0.6055590000000  0.4824440000000  0.4861300000000 1.0
C      1  0.4877650000000  0.4915300000000  0.4764390000000 1.0
C      1  0.5084360000000  0.4142820000000  0.4286420000000 1.0
C      1  0.4405480000000  0.5140190000000  0.5886090000000 1.0
C      1  0.5012520000000  0.6043080000000  0.4578690000000 1.0
C      1  0.5825400000000  0.4186180000000  0.4800350000000 1.0
C      1  0.4714850000000  0.4450940000000  0.5310680000000 1.0
C      1  0.5595980000000  0.4508790000000  0.4474070000000 1.0
C      1  0.5226620000000  0.4138090000000  0.5748980000000 1.0
C      1  0.3904640000000  0.5051540000000  0.4594960000000 1.0
C      1  0.4338240000000  0.5708910000000  0.4476750000000 1.0
C      1  0.3977110000000  0.5206940000000  0.5281420000000 1.0
C      1  0.5017960000000  0.4319830000000  0.5855620000000 1.0
C      1  0.5712350000000  0.4710530000000  0.5631670000000 1.0
C      1  0.5540150000000  0.4576920000000  0.4761870000000 1.0
C      1  0.4388350000000  0.4922280000000  0.4717730000000 1.0
C      1  0.4830870000000  0.5075200000000  0.5023860000000 1.0
C      1  0.5186250000000  0.5380090000000  0.6076510000000 1.0
C      1  0.5047360000000  0.5257970000000  0.5072640000000 1.0
C      1  0.5563240000000  0.5013470000000  0.4428120000000 1.0
C      1  0.5081340000000  0.4388770000000  0.4856290000000 1.0
C      1  0.5593600000000  0.5564350000000  0.5752200000000 1.0
C      1  0.4666060000000  0.3874130000000  0.4992210000000 1.0
C      1  0.4985650000000  0.4962120000000  0.3849930000000 1.0
C      1  0.5642790000000  0.4704250000000  0.5134880000000 1.0
C      1  0.4757610000000  0.4209760000000  0.5735970000000 1.0
C      1  0.6023720000000  0.4569330000000  0.5352260000000 1.0
C      1  0.5819390000000  0.4865060000000  0.5855760000000 1.0
C      1  0.4161270000000  0.5477600000000  0.5695650000000 1.0
C      1  0.4768600000000  0.5296950000000  0.5538620000000 1.0
C      1  0.5254880000000  0.6059650000000  0.4424660000000 1.0
C      1  0.4554750000000  0.5998940000000  0.4862700000000 1.0
C      1  0.4815180000000  0.4979740000000  0.6208290000000 1.0
C      1  0.4309500000000  0.4961280000000  0.5011650000000 1.0
C      1  0.4535040000000  0.5902520000000  0.4575740000000 1.0
C      1  0.5424700000000  0.5639750000000  0.4121670000000 1.0
C      1  0.5215850000000  0.4005200000000  0.4504140000000 1.0
C      1  0.4819870000000  0.5002060000000  0.5524510000000 1.0
C      1  0.5037150000000  0.5122900000000  0.6128650000000 1.0
C      1  0.5095700000000  0.5639700000000  0.5968810000000 1.0
C      1  0.4452600000000  0.4414350000000  0.5084670000000 1.0
C      1  0.4633420000000  0.4512690000000  0.4662060000000 1.0
C      1  0.5391430000000  0.5422450000000  0.3911410000000 1.0
C      1  0.5374640000000  0.5774480000000  0.5345540000000 1.0
C      1  0.5632550000000  0.4086390000000  0.5278390000000 1.0
C      1  0.5686930000000  0.4972960000000  0.3950680000000 1.0
C      1  0.4884390000000  0.5068730000000  0.4512020000000 1.0
C      1  0.5125140000000  0.5634690000000  0.5314270000000 1.0
C      1  0.4631770000000  0.4794810000000  0.6191850000000 1.0
C      1  0.5463840000000  0.5302790000000  0.4814200000000 1.0
C      1  0.5852080000000  0.4460430000000  0.5549630000000 1.0
C      1  0.4602010000000  0.4557160000000  0.5559590000000 1.0
C      1  0.5209650000000  0.5832650000000  0.5776250000000 1.0
C      1  0.5382920000000  0.4582580000000  0.5180790000000 1.0
C      1  0.5504700000000  0.5916360000000  0.5126730000000 1.0
C      1  0.6148890000000  0.5228350000000  0.5056080000000 1.0
C      1  0.4634700000000  0.4770800000000  0.4733730000000 1.0
C      1  0.4836150000000  0.5455090000000  0.4656070000000 1.0
C      1  0.4775130000000  0.5931040000000  0.5776110000000 1.0
C      1  0.5791720000000  0.5434390000000  0.4855420000000 1.0
C      1  0.5156080000000  0.4367750000000  0.4067670000000 1.0
C      1  0.4517420000000  0.4855680000000  0.3948490000000 1.0
C      1  0.4436550000000  0.5538210000000  0.4251590000000 1.0
C      1  0.4136470000000  0.5766460000000  0.4831520000000 1.0
C      1  0.5258730000000  0.4905530000000  0.3970610000000 1.0
C      1  0.5836950000000  0.4614700000000  0.4354110000000 1.0
C      1  0.3926650000000  0.4763320000000  0.4506550000000 1.0
C      1  0.5616590000000  0.4672510000000  0.3952120000000 1.0
C      1  0.4904410000000  0.5241940000000  0.3785430000000 1.0
C      1  0.4208620000000  0.4254600000000  0.4672400000000 1.0
C      1  0.4616450000000  0.4828390000000  0.5617280000000 1.0
C      1  0.4308430000000  0.5843660000000  0.5246490000000 1.0
C      1  0.4673460000000  0.5353020000000  0.3943790000000 1.0
C      1  0.3980740000000  0.4761910000000  0.5603690000000 1.0
C      1  0.4006350000000  0.4501680000000  0.4683410000000 1.0
C      1  0.4384790000000  0.5656670000000  0.5779340000000 1.0
C      1  0.4199550000000  0.4630790000000  0.5100790000000 1.0
C      1  0.4589700000000  0.5556700000000  0.5947000000000 1.0
C      1  0.4345450000000  0.4346370000000  0.4194000000000 1.0
C      1  0.5362650000000  0.4064210000000  0.5169380000000 1.0
C      1  0.4817340000000  0.5720430000000  0.5971550000000 1.0
C      1  0.5170050000000  0.4883910000000  0.5959260000000 1.0
C      1  0.4975900000000  0.5732550000000  0.5050190000000 1.0
C      1  0.6034140000000  0.5262310000000  0.4792680000000 1.0
END
