TITL C-883737-113-349 -2.13427798778191 125000 -9545.10698879373 0 0 65 (C1) n - 1
REM
REM in /home/nfs/bkarasulu/CARBON/AIRSS/Generating-Clusters/ReaxFF-fromJPCA2015/Units_Real/with-SteepDescent/Only-C1/SD-CG/Try1-3A/FIRE-CG
REM
REM
REM
REM
REM
REM ./C.cell (11c1c37f851c82e70ff6c80c92926a4b)
REM
REM compiler GCC version 9.2.1 20190827 (Red Hat 9.2.1-1)
REM options -cpp -mtune=generic -march=x86-64 -g -O0 -fpre-include=/usr/include/finclude/math-vector-fortran.h
REM seed 1812335735 -2045834338 -2080714005 1962601965 -1575571509 -1489509960 621764921 2045020938 -1277735207 -2095329475 1629663988 1729850181 -1176182809 -302994129 -1193174510 1490076670 -746495201 1993266355 1071770336 -2104590679 929319063 -1835766903 -1639260672 -1562015124 -1484428500 -2064322905 -1152217609 327824179 659107629 -479463746 -722017838 257408718 -309683079
REM
CELL 1.54180   50.00000   50.00000   50.00000   90.00000   90.00000   90.00000
LATT -1
SFAC C  
C      1  0.4974760000000  0.4971180000000  0.5771170000000 1.0
C      1  0.5509980000000  0.5188000000000  0.4337740000000 1.0
C      1  0.4677480000000  0.5111850000000  0.5418510000000 1.0
C      1  0.4857110000000  0.4126010000000  0.5056960000000 1.0
C      1  0.5406510000000  0.5445870000000  0.4416800000000 1.0
C      1  0.4876990000000  0.4998990000000  0.5234930000000 1.0
C      1  0.4400250000000  0.5047520000000  0.5353440000000 1.0
C      1  0.4787010000000  0.5167330000000  0.4294480000000 1.0
C      1  0.5255350000000  0.5161860000000  0.4889540000000 1.0
C      1  0.4282040000000  0.5425760000000  0.5003330000000 1.0
C      1  0.4982780000000  0.4249040000000  0.5299480000000 1.0
C      1  0.4819540000000  0.5588710000000  0.5506780000000 1.0
C      1  0.5495300000000  0.5203350000000  0.5568900000000 1.0
C      1  0.4499620000000  0.4783590000000  0.4869650000000 1.0
C      1  0.5433870000000  0.5565530000000  0.4699820000000 1.0
C      1  0.5514670000000  0.4719170000000  0.5432530000000 1.0
C      1  0.5403950000000  0.4525780000000  0.4723610000000 1.0
C      1  0.5467800000000  0.5012970000000  0.4800210000000 1.0
C      1  0.5183470000000  0.4492930000000  0.4579380000000 1.0
C      1  0.5041700000000  0.4759220000000  0.5266690000000 1.0
C      1  0.4524090000000  0.5044000000000  0.4368550000000 1.0
C      1  0.5431560000000  0.4443140000000  0.5017930000000 1.0
C      1  0.5611040000000  0.4605390000000  0.5187970000000 1.0
C      1  0.5586480000000  0.4926580000000  0.4329790000000 1.0
C      1  0.5493980000000  0.5863340000000  0.4749380000000 1.0
C      1  0.4845300000000  0.4398640000000  0.4911710000000 1.0
C      1  0.5329690000000  0.5434310000000  0.4924660000000 1.0
C      1  0.4936000000000  0.5256110000000  0.4552600000000 1.0
C      1  0.4860040000000  0.4600200000000  0.5659700000000 1.0
C      1  0.5015470000000  0.5238110000000  0.5769370000000 1.0
C      1  0.4342930000000  0.4761680000000  0.5361700000000 1.0
C      1  0.4344090000000  0.5041060000000  0.4832810000000 1.0
C      1  0.5654980000000  0.4987570000000  0.5492910000000 1.0
C      1  0.4734730000000  0.4412080000000  0.4637580000000 1.0
C      1  0.5404130000000  0.5833840000000  0.5028880000000 1.0
C      1  0.5233280000000  0.4681940000000  0.5486160000000 1.0
C      1  0.4132960000000  0.5671500000000  0.4555670000000 1.0
C      1  0.4958930000000  0.4656930000000  0.5006510000000 1.0
C      1  0.4397250000000  0.4624690000000  0.5114570000000 1.0
C      1  0.4880900000000  0.4919020000000  0.4193530000000 1.0
C      1  0.4501930000000  0.4503520000000  0.5354490000000 1.0
C      1  0.4823860000000  0.4919540000000  0.4940520000000 1.0
C      1  0.4374990000000  0.5179220000000  0.4582450000000 1.0
C      1  0.5303170000000  0.5350860000000  0.5672590000000 1.0
C      1  0.4813520000000  0.4655030000000  0.4247420000000 1.0
C      1  0.4778560000000  0.5316630000000  0.5614640000000 1.0
C      1  0.5218450000000  0.4336180000000  0.5166330000000 1.0
C      1  0.4549900000000  0.4747320000000  0.4364040000000 1.0
C      1  0.5143390000000  0.5352930000000  0.4395650000000 1.0
C      1  0.5000200000000  0.5107170000000  0.4793450000000 1.0
C      1  0.5329200000000  0.5579270000000  0.5496910000000 1.0
C      1  0.5080130000000  0.5726370000000  0.5545620000000 1.0
C      1  0.4978510000000  0.5681300000000  0.5279860000000 1.0
C      1  0.4266960000000  0.5633940000000  0.4838120000000 1.0
C      1  0.5562220000000  0.4788100000000  0.4636000000000 1.0
C      1  0.5098250000000  0.4715550000000  0.5759070000000 1.0
C      1  0.5812740000000  0.4801230000000  0.5088050000000 1.0
C      1  0.4354240000000  0.5481240000000  0.4580470000000 1.0
C      1  0.5262710000000  0.5599810000000  0.5181810000000 1.0
C      1  0.5725910000000  0.4917420000000  0.4836420000000 1.0
C      1  0.4529380000000  0.4613480000000  0.4621540000000 1.0
C      1  0.4949940000000  0.4456760000000  0.4438040000000 1.0
C      1  0.4294720000000  0.5169800000000  0.5096280000000 1.0
C      1  0.5891590000000  0.4994840000000  0.5301930000000 1.0
C      1  0.4767520000000  0.4427680000000  0.5462350000000 1.0
END
