TITL C-883731-9874-373 12.7274411513419 125000 -7079.86235478103 0 0 49 (C1) n - 1
REM
REM in /home/nfs/bkarasulu/CARBON/AIRSS/Generating-Clusters/ReaxFF-fromJPCA2015/Units_Real/with-SteepDescent/Only-C1/SD-CG/Try1-3A/FIRE-CG
REM
REM
REM
REM
REM
REM ./C.cell (11c1c37f851c82e70ff6c80c92926a4b)
REM
REM compiler GCC version 9.2.1 20190827 (Red Hat 9.2.1-1)
REM options -cpp -mtune=generic -march=x86-64 -g -O0 -fpre-include=/usr/include/finclude/math-vector-fortran.h
REM seed 721418302 -73984462 1275403020 -169990912 -955195898 -18892899 139057066 -1703422203 -1990299266 1198678799 -1191372222 -49156876 -1805907028 -1998047474 365472132 -768971036 -960779432 -490674611 -825482344 -1272535009 950054753 -1775720278 463694350 711372761 1200220130 1420268423 -953265862 -673870533 106027541 -1334881320 -419311473 112941153 1325314812
REM
CELL 1.54180   50.00000   50.00000   50.00000   90.00000   90.00000   90.00000
LATT -1
SFAC C  
C      1  0.5575510000000  0.4932110000000  0.4949870000000 1.0
C      1  0.4971160000000  0.5594790000000  0.4746260000000 1.0
C      1  0.4305690000000  0.5470280000000  0.4953820000000 1.0
C      1  0.4510600000000  0.5628140000000  0.5062710000000 1.0
C      1  0.5001380000000  0.5713940000000  0.5013000000000 1.0
C      1  0.5227650000000  0.4481390000000  0.4532010000000 1.0
C      1  0.4826100000000  0.5147940000000  0.5330700000000 1.0
C      1  0.5348900000000  0.4831310000000  0.5058170000000 1.0
C      1  0.4586460000000  0.4763060000000  0.5429160000000 1.0
C      1  0.5154270000000  0.5355740000000  0.4337380000000 1.0
C      1  0.5603970000000  0.5173000000000  0.4593620000000 1.0
C      1  0.5425130000000  0.4415890000000  0.5014870000000 1.0
C      1  0.4495980000000  0.4484000000000  0.4843840000000 1.0
C      1  0.4451800000000  0.4768860000000  0.4781270000000 1.0
C      1  0.5114120000000  0.5544560000000  0.5229510000000 1.0
C      1  0.4538630000000  0.5269810000000  0.4837800000000 1.0
C      1  0.4873560000000  0.5605200000000  0.5393680000000 1.0
C      1  0.4514130000000  0.4787020000000  0.4479040000000 1.0
C      1  0.5445250000000  0.5402680000000  0.4610080000000 1.0
C      1  0.4914580000000  0.4614400000000  0.5634390000000 1.0
C      1  0.4543070000000  0.4996360000000  0.4954080000000 1.0
C      1  0.5189320000000  0.5081030000000  0.4289630000000 1.0
C      1  0.4643270000000  0.4960900000000  0.5221400000000 1.0
C      1  0.4893440000000  0.4415980000000  0.5025990000000 1.0
C      1  0.5386490000000  0.4411030000000  0.4757940000000 1.0
C      1  0.4617580000000  0.4903650000000  0.5694860000000 1.0
C      1  0.5001020000000  0.4448640000000  0.5260250000000 1.0
C      1  0.4754510000000  0.4512650000000  0.5428710000000 1.0
C      1  0.5022380000000  0.5060860000000  0.5511730000000 1.0
C      1  0.4748850000000  0.5750780000000  0.5169790000000 1.0
C      1  0.5314960000000  0.4566820000000  0.5238630000000 1.0
C      1  0.4802630000000  0.4744860000000  0.4444290000000 1.0
C      1  0.4922390000000  0.4883870000000  0.5729110000000 1.0
C      1  0.4704780000000  0.5373870000000  0.5483850000000 1.0
C      1  0.5285080000000  0.5140030000000  0.5450260000000 1.0
C      1  0.5241650000000  0.5283520000000  0.5199450000000 1.0
C      1  0.5438110000000  0.4964760000000  0.4412310000000 1.0
C      1  0.5487250000000  0.4644260000000  0.5496000000000 1.0
C      1  0.5377530000000  0.4714810000000  0.4492790000000 1.0
C      1  0.5745210000000  0.5056750000000  0.4818350000000 1.0
C      1  0.5162210000000  0.5064270000000  0.5002640000000 1.0
C      1  0.4779080000000  0.4381270000000  0.4776970000000 1.0
C      1  0.4964900000000  0.5015340000000  0.4486510000000 1.0
C      1  0.5496700000000  0.4929020000000  0.5526440000000 1.0
C      1  0.5059000000000  0.5045640000000  0.4742420000000 1.0
C      1  0.4635400000000  0.5188420000000  0.5684500000000 1.0
C      1  0.4760060000000  0.5424180000000  0.4775980000000 1.0
C      1  0.5212960000000  0.5545750000000  0.4542580000000 1.0
C      1  0.4925320000000  0.4506550000000  0.4551380000000 1.0
END
