TITL C-883732-77-389 26.392800014664 125000 -26185.9232709967 0 0 175 (C1) n - 1
REM
REM in /home/nfs/bkarasulu/CARBON/AIRSS/Generating-Clusters/ReaxFF-fromJPCA2015/Units_Real/with-SteepDescent/Only-C1/SD-CG/Try1-3A/FIRE-CG
REM
REM
REM
REM
REM
REM ./C.cell (11c1c37f851c82e70ff6c80c92926a4b)
REM
REM compiler GCC version 9.2.1 20190827 (Red Hat 9.2.1-1)
REM options -cpp -mtune=generic -march=x86-64 -g -O0 -fpre-include=/usr/include/finclude/math-vector-fortran.h
REM seed 2144533390 -1560465663 141851742 -394014869 1359404055 -727409245 -188491477 -164389738 -1196791936 494894263 1911032694 904236562 1691502878 1904150662 1012477320 1589550279 -182893337 -1012636574 1227249807 -1528006448 849636845 760706951 994532397 -545918513 -1991223182 817425010 289533642 1771059067 1574305972 -2104477227 -459236202 -1341317492 -1643152144
REM
CELL 1.54180   50.00000   50.00000   50.00000   90.00000   90.00000   90.00000
LATT -1
SFAC C  
C      1  0.4944350000000  0.4263890000000  0.5210980000000 1.0
C      1  0.5050360000000  0.5384570000000  0.5761610000000 1.0
C      1  0.4859210000000  0.3952230000000  0.4888690000000 1.0
C      1  0.4598080000000  0.4615740000000  0.5718970000000 1.0
C      1  0.4604940000000  0.5543020000000  0.5813590000000 1.0
C      1  0.6095570000000  0.5258680000000  0.4890580000000 1.0
C      1  0.4956740000000  0.4841710000000  0.4573010000000 1.0
C      1  0.5472010000000  0.5178410000000  0.5248070000000 1.0
C      1  0.5815080000000  0.4563290000000  0.5292550000000 1.0
C      1  0.4452530000000  0.5330980000000  0.4175440000000 1.0
C      1  0.4887150000000  0.5515920000000  0.3944460000000 1.0
C      1  0.4121190000000  0.5221750000000  0.4536060000000 1.0
C      1  0.5327670000000  0.4794280000000  0.5280960000000 1.0
C      1  0.4548920000000  0.4102320000000  0.4542990000000 1.0
C      1  0.4030480000000  0.5051270000000  0.5054740000000 1.0
C      1  0.4145520000000  0.4661580000000  0.5859400000000 1.0
C      1  0.6235310000000  0.5047360000000  0.5522180000000 1.0
C      1  0.5025360000000  0.5082280000000  0.4722430000000 1.0
C      1  0.5176290000000  0.4835880000000  0.5057790000000 1.0
C      1  0.5140140000000  0.4064110000000  0.5238490000000 1.0
C      1  0.5207470000000  0.4393030000000  0.4068450000000 1.0
C      1  0.4403320000000  0.5028350000000  0.4551870000000 1.0
C      1  0.5317640000000  0.5139290000000  0.6030410000000 1.0
C      1  0.4832210000000  0.5220030000000  0.3947380000000 1.0
C      1  0.6230780000000  0.4772960000000  0.4851810000000 1.0
C      1  0.4791160000000  0.5447690000000  0.4729550000000 1.0
C      1  0.4556750000000  0.5294640000000  0.5965600000000 1.0
C      1  0.5435030000000  0.5913620000000  0.5141390000000 1.0
C      1  0.4481940000000  0.4754970000000  0.5273740000000 1.0
C      1  0.4477280000000  0.4979180000000  0.4844260000000 1.0
C      1  0.4375420000000  0.4804230000000  0.4358390000000 1.0
C      1  0.4728570000000  0.5723750000000  0.4647380000000 1.0
C      1  0.5050610000000  0.4353470000000  0.4679630000000 1.0
C      1  0.4629990000000  0.5224590000000  0.4395600000000 1.0
C      1  0.5432510000000  0.4231540000000  0.5588730000000 1.0
C      1  0.4445490000000  0.5629100000000  0.5584410000000 1.0
C      1  0.3908010000000  0.4978020000000  0.4558490000000 1.0
C      1  0.4149460000000  0.4419240000000  0.5693920000000 1.0
C      1  0.4760450000000  0.5154760000000  0.4866510000000 1.0
C      1  0.4797960000000  0.5169660000000  0.6082900000000 1.0
C      1  0.5043800000000  0.4686000000000  0.6057280000000 1.0
C      1  0.5461680000000  0.5911090000000  0.4620200000000 1.0
C      1  0.5558780000000  0.4270880000000  0.4440220000000 1.0
C      1  0.4642650000000  0.5711120000000  0.5381050000000 1.0
C      1  0.4414070000000  0.4617090000000  0.5961940000000 1.0
C      1  0.4315980000000  0.5665390000000  0.5042880000000 1.0
C      1  0.4089420000000  0.5013720000000  0.5517590000000 1.0
C      1  0.5590650000000  0.4857310000000  0.4839440000000 1.0
C      1  0.5128150000000  0.5198620000000  0.4305180000000 1.0
C      1  0.5810290000000  0.4775540000000  0.4218850000000 1.0
C      1  0.5676650000000  0.5274470000000  0.5442100000000 1.0
C      1  0.5276660000000  0.4994660000000  0.5491310000000 1.0
C      1  0.4554580000000  0.5129620000000  0.3989060000000 1.0
C      1  0.5524180000000  0.5271820000000  0.5864200000000 1.0
C      1  0.5379500000000  0.5633210000000  0.4170410000000 1.0
C      1  0.4570410000000  0.4375700000000  0.4926650000000 1.0
C      1  0.4998750000000  0.6013470000000  0.5417650000000 1.0
C      1  0.5456030000000  0.5361770000000  0.4119480000000 1.0
C      1  0.6151010000000  0.4952620000000  0.5304870000000 1.0
C      1  0.4884690000000  0.5626840000000  0.5769780000000 1.0
C      1  0.4944520000000  0.5864210000000  0.4498910000000 1.0
C      1  0.5532050000000  0.4618570000000  0.5704260000000 1.0
C      1  0.4136470000000  0.4615530000000  0.4916690000000 1.0
C      1  0.4926930000000  0.5859020000000  0.4199060000000 1.0
C      1  0.5340290000000  0.5755730000000  0.5638800000000 1.0
C      1  0.4948400000000  0.6029200000000  0.4969240000000 1.0
C      1  0.5063460000000  0.4124990000000  0.4480670000000 1.0
C      1  0.5822290000000  0.5264560000000  0.5003960000000 1.0
C      1  0.5760580000000  0.4703730000000  0.4670960000000 1.0
C      1  0.5943330000000  0.4760150000000  0.5463940000000 1.0
C      1  0.4365940000000  0.4199110000000  0.5709160000000 1.0
C      1  0.4693090000000  0.4881400000000  0.5672050000000 1.0
C      1  0.4395260000000  0.5924110000000  0.4924910000000 1.0
C      1  0.5174960000000  0.5884310000000  0.4667620000000 1.0
C      1  0.5387610000000  0.3972270000000  0.4852560000000 1.0
C      1  0.5401840000000  0.4381770000000  0.5819510000000 1.0
C      1  0.4445520000000  0.5836000000000  0.4643330000000 1.0
C      1  0.4992120000000  0.4252750000000  0.4198860000000 1.0
C      1  0.4309930000000  0.5184490000000  0.5397500000000 1.0
C      1  0.5502780000000  0.5770900000000  0.5392380000000 1.0
C      1  0.4694770000000  0.5730530000000  0.4038980000000 1.0
C      1  0.4893750000000  0.4534030000000  0.5312970000000 1.0
C      1  0.4504260000000  0.4861820000000  0.6094470000000 1.0
C      1  0.5369170000000  0.4929820000000  0.3961430000000 1.0
C      1  0.5058730000000  0.5197860000000  0.5535720000000 1.0
C      1  0.5631870000000  0.5886250000000  0.4862350000000 1.0
C      1  0.5654470000000  0.5033100000000  0.5062200000000 1.0
C      1  0.5653150000000  0.5476780000000  0.4882710000000 1.0
C      1  0.4602660000000  0.4550890000000  0.5435180000000 1.0
C      1  0.4910050000000  0.4785000000000  0.5080910000000 1.0
C      1  0.4122220000000  0.4381910000000  0.5403040000000 1.0
C      1  0.5480180000000  0.4421800000000  0.4988580000000 1.0
C      1  0.4353840000000  0.5080650000000  0.5968170000000 1.0
C      1  0.4486870000000  0.5430660000000  0.5020930000000 1.0
C      1  0.6032630000000  0.4648600000000  0.4694290000000 1.0
C      1  0.4302900000000  0.4127740000000  0.5427460000000 1.0
C      1  0.5528540000000  0.4592410000000  0.5222170000000 1.0
C      1  0.3962770000000  0.4881180000000  0.4824290000000 1.0
C      1  0.4539050000000  0.4984870000000  0.5453830000000 1.0
C      1  0.5411440000000  0.4077720000000  0.5350960000000 1.0
C      1  0.5390570000000  0.4757480000000  0.4370660000000 1.0
C      1  0.5458910000000  0.5424410000000  0.4625700000000 1.0
C      1  0.4324460000000  0.4522770000000  0.4434000000000 1.0
C      1  0.5238740000000  0.5280610000000  0.4785950000000 1.0
C      1  0.6005110000000  0.5425900000000  0.4663630000000 1.0
C      1  0.4814580000000  0.3994030000000  0.4610820000000 1.0
C      1  0.5227640000000  0.6105630000000  0.5251660000000 1.0
C      1  0.4568200000000  0.6094450000000  0.5088600000000 1.0
C      1  0.5356770000000  0.5032780000000  0.4418910000000 1.0
C      1  0.4712120000000  0.5985970000000  0.5324890000000 1.0
C      1  0.4728230000000  0.4376710000000  0.4163340000000 1.0
C      1  0.4503550000000  0.4853960000000  0.4096860000000 1.0
C      1  0.4863320000000  0.5238720000000  0.5331890000000 1.0
C      1  0.5383110000000  0.4088590000000  0.4583250000000 1.0
C      1  0.4435570000000  0.4701610000000  0.4985280000000 1.0
C      1  0.5524050000000  0.5546910000000  0.5753840000000 1.0
C      1  0.4764420000000  0.5499200000000  0.5196160000000 1.0
C      1  0.5245440000000  0.5194030000000  0.4016220000000 1.0
C      1  0.4782800000000  0.4441770000000  0.4735990000000 1.0
C      1  0.3997170000000  0.4863090000000  0.5282760000000 1.0
C      1  0.5685420000000  0.5560950000000  0.5505930000000 1.0
C      1  0.4839690000000  0.4713860000000  0.4791440000000 1.0
C      1  0.5258050000000  0.5350500000000  0.5068460000000 1.0
C      1  0.6206420000000  0.5014610000000  0.5002170000000 1.0
C      1  0.5904260000000  0.5022760000000  0.4312710000000 1.0
C      1  0.5056190000000  0.5554130000000  0.5089430000000 1.0
C      1  0.4505460000000  0.4307960000000  0.4339890000000 1.0
C      1  0.4892110000000  0.5076890000000  0.4206770000000 1.0
C      1  0.5721930000000  0.4239390000000  0.4977250000000 1.0
C      1  0.4720530000000  0.4660700000000  0.4096750000000 1.0
C      1  0.4200450000000  0.4430350000000  0.4681380000000 1.0
C      1  0.4222510000000  0.5438200000000  0.4326300000000 1.0
C      1  0.5267290000000  0.4763150000000  0.5684170000000 1.0
C      1  0.5114970000000  0.5693000000000  0.4053270000000 1.0
C      1  0.3913940000000  0.5442710000000  0.5037260000000 1.0
C      1  0.5694340000000  0.5112020000000  0.5687440000000 1.0
C      1  0.5893690000000  0.5265530000000  0.4444470000000 1.0
C      1  0.4720970000000  0.4156120000000  0.5087950000000 1.0
C      1  0.5030260000000  0.4547700000000  0.5579620000000 1.0
C      1  0.4783810000000  0.6258920000000  0.4976350000000 1.0
C      1  0.5257820000000  0.4857010000000  0.5983200000000 1.0
C      1  0.4045830000000  0.4581160000000  0.5210690000000 1.0
C      1  0.5113630000000  0.4417620000000  0.5958910000000 1.0
C      1  0.5634640000000  0.4599490000000  0.4432710000000 1.0
C      1  0.3989270000000  0.5351230000000  0.4764870000000 1.0
C      1  0.5283310000000  0.4497870000000  0.4779920000000 1.0
C      1  0.4590130000000  0.4085770000000  0.5379820000000 1.0
C      1  0.5302110000000  0.4792730000000  0.4806050000000 1.0
C      1  0.5149060000000  0.5814940000000  0.4964660000000 1.0
C      1  0.5407580000000  0.4256520000000  0.4208200000000 1.0
C      1  0.4871540000000  0.5375730000000  0.4465860000000 1.0
C      1  0.5126600000000  0.3913180000000  0.4985520000000 1.0
C      1  0.5751640000000  0.4818720000000  0.5672890000000 1.0
C      1  0.4659140000000  0.4177670000000  0.5645470000000 1.0
C      1  0.5064670000000  0.5284830000000  0.6038670000000 1.0
C      1  0.4792780000000  0.4881050000000  0.6002480000000 1.0
C      1  0.4147380000000  0.4949950000000  0.5793410000000 1.0
C      1  0.6137220000000  0.4505310000000  0.4908980000000 1.0
C      1  0.5067300000000  0.6274630000000  0.5075680000000 1.0
C      1  0.5632290000000  0.4892210000000  0.4046130000000 1.0
C      1  0.5562070000000  0.5248990000000  0.4387270000000 1.0
C      1  0.5054090000000  0.5828530000000  0.5637580000000 1.0
C      1  0.4942750000000  0.4790970000000  0.4250580000000 1.0
C      1  0.5459380000000  0.5675180000000  0.4450140000000 1.0
C      1  0.4828960000000  0.5054900000000  0.5129380000000 1.0
C      1  0.4334810000000  0.5181090000000  0.5043400000000 1.0
C      1  0.4231650000000  0.5472760000000  0.5461900000000 1.0
C      1  0.4930910000000  0.4344690000000  0.5736920000000 1.0
C      1  0.5225320000000  0.4701220000000  0.4129170000000 1.0
C      1  0.4381860000000  0.4220190000000  0.4753970000000 1.0
C      1  0.5834470000000  0.5685190000000  0.4809860000000 1.0
C      1  0.4101800000000  0.5592420000000  0.5234740000000 1.0
C      1  0.5564280000000  0.4022320000000  0.5087340000000 1.0
C      1  0.4312750000000  0.5647910000000  0.4481130000000 1.0
C      1  0.5946280000000  0.4389250000000  0.5094560000000 1.0
END
