TITL C-884127-5181-17 -662166.486210744 125000 -10853.8145831567 0 0 73 (C1) n - 1
REM
REM in /home/nfs/bkarasulu/CARBON/AIRSS/Generating-Clusters/ReaxFF-fromJPCA2015/Units_Real/with-SteepDescent/Only-C1/SD-CG/Try1-3A/FIRE-CG
REM
REM
REM
REM
REM
REM ./C.cell (11c1c37f851c82e70ff6c80c92926a4b)
REM
REM compiler GCC version 9.2.1 20190827 (Red Hat 9.2.1-1)
REM options -cpp -mtune=generic -march=x86-64 -g -O0 -fpre-include=/usr/include/finclude/math-vector-fortran.h
REM seed 297520568 1392421875 -2068767574 785515194 624366690 108379470 -286691822 966560980 2063183175 1735956136 -39811147 -1345567614 1899407963 -415979212 1189743142 -402655109 1494837571 -236201344 -65495741 -1928262453 -572334632 -422739646 867366468 -1043040886 1573259654 -183581854 48785405 1818886239 1356601963 -1128604794 -347374335 1488374106 -1875470607
REM
CELL 1.54180   50.00000   50.00000   50.00000   90.00000   90.00000   90.00000
LATT -1
SFAC C  
C      1  0.4568300000000  0.4393670000000  0.4794700000000 1.0
C      1  0.4258890000000  0.5353150000000  0.4817300000000 1.0
C      1  0.4840660000000  0.4858440000000  0.4749160000000 1.0
C      1  0.5296460000000  0.4339390000000  0.5112830000000 1.0
C      1  0.5416140000000  0.4738900000000  0.5556710000000 1.0
C      1  0.5254610000000  0.4987090000000  0.4729660000000 1.0
C      1  0.4369970000000  0.5094250000000  0.5244830000000 1.0
C      1  0.4383850000000  0.5332050000000  0.5080910000000 1.0
C      1  0.4509580000000  0.4904680000000  0.5687210000000 1.0
C      1  0.5075690000000  0.5255130000000  0.4754320000000 1.0
C      1  0.4685370000000  0.5131800000000  0.4323460000000 1.0
C      1  0.5030500000000  0.4242420000000  0.5485550000000 1.0
C      1  0.4664760000000  0.5430390000000  0.5078580000000 1.0
C      1  0.4504620000000  0.5143240000000  0.5508680000000 1.0
C      1  0.5115300000000  0.4850530000000  0.5163820000000 1.0
C      1  0.4344420000000  0.4849780000000  0.4803900000000 1.0
C      1  0.5648380000000  0.5743600000000  0.5035640000000 1.0
C      1  0.5397570000000  0.5641070000000  0.4919680000000 1.0
C      1  0.5593770000000  0.4567390000000  0.5391870000000 1.0
C      1  0.4961280000000  0.5282030000000  0.5693500000000 1.0
C      1  0.5485940000000  0.5321010000000  0.5629110000000 1.0
C      1  0.4716360000000  0.5350380000000  0.5543940000000 1.0
C      1  0.5648740000000  0.4632570000000  0.4482340000000 1.0
C      1  0.5221320000000  0.5450560000000  0.5632120000000 1.0
C      1  0.4702120000000  0.4680480000000  0.5648390000000 1.0
C      1  0.5552240000000  0.5096150000000  0.4632110000000 1.0
C      1  0.4878420000000  0.5249080000000  0.4975950000000 1.0
C      1  0.4406170000000  0.4346250000000  0.5037810000000 1.0
C      1  0.4745530000000  0.5553030000000  0.5336620000000 1.0
C      1  0.5188520000000  0.5234510000000  0.4323140000000 1.0
C      1  0.5428370000000  0.4889180000000  0.4261060000000 1.0
C      1  0.5284560000000  0.4942310000000  0.5386240000000 1.0
C      1  0.5278570000000  0.4786870000000  0.4935600000000 1.0
C      1  0.4304110000000  0.5106320000000  0.4668450000000 1.0
C      1  0.4358280000000  0.4842910000000  0.5098990000000 1.0
C      1  0.5037780000000  0.4784250000000  0.4530250000000 1.0
C      1  0.4914770000000  0.5313510000000  0.4444870000000 1.0
C      1  0.4425630000000  0.4584700000000  0.5225880000000 1.0
C      1  0.4474370000000  0.5505760000000  0.4448470000000 1.0
C      1  0.5257930000000  0.4315280000000  0.5629290000000 1.0
C      1  0.5234050000000  0.4595160000000  0.5727380000000 1.0
C      1  0.5025950000000  0.4478540000000  0.4581110000000 1.0
C      1  0.5676980000000  0.5193670000000  0.5141770000000 1.0
C      1  0.5679030000000  0.4661800000000  0.5134170000000 1.0
C      1  0.4761300000000  0.5559280000000  0.4505500000000 1.0
C      1  0.5477180000000  0.5163780000000  0.5361350000000 1.0
C      1  0.4868030000000  0.4958720000000  0.5025350000000 1.0
C      1  0.5778640000000  0.4927490000000  0.5072010000000 1.0
C      1  0.4489990000000  0.4618610000000  0.4349510000000 1.0
C      1  0.5712760000000  0.5111920000000  0.4875180000000 1.0
C      1  0.5605410000000  0.4433890000000  0.4659880000000 1.0
C      1  0.4433370000000  0.4614310000000  0.4658960000000 1.0
C      1  0.4979670000000  0.4741130000000  0.5774850000000 1.0
C      1  0.4422100000000  0.5208990000000  0.4420490000000 1.0
C      1  0.5160330000000  0.4947910000000  0.4273700000000 1.0
C      1  0.5423790000000  0.4325320000000  0.5373910000000 1.0
C      1  0.5011860000000  0.4311700000000  0.5067050000000 1.0
C      1  0.4620570000000  0.4869770000000  0.4302100000000 1.0
C      1  0.5663710000000  0.4899570000000  0.4406760000000 1.0
C      1  0.4511340000000  0.5740620000000  0.4770620000000 1.0
C      1  0.4825850000000  0.4302570000000  0.5309660000000 1.0
C      1  0.5280930000000  0.5474630000000  0.4705160000000 1.0
C      1  0.5406240000000  0.5327470000000  0.4493520000000 1.0
C      1  0.4879740000000  0.4363180000000  0.4802530000000 1.0
C      1  0.4777220000000  0.5751930000000  0.4748000000000 1.0
C      1  0.4990190000000  0.5717590000000  0.5276140000000 1.0
C      1  0.4646170000000  0.4522730000000  0.5408030000000 1.0
C      1  0.5478450000000  0.5549360000000  0.5210830000000 1.0
C      1  0.5251870000000  0.5610650000000  0.5390380000000 1.0
C      1  0.5470900000000  0.4536080000000  0.4951120000000 1.0
C      1  0.4973820000000  0.5011910000000  0.5737070000000 1.0
C      1  0.4336730000000  0.5584850000000  0.4674000000000 1.0
C      1  0.4915950000000  0.5760730000000  0.5008980000000 1.0
END
