TITL C-883733-4178-27 1041410.68388115 125000 -21071.4028984011 0 0 142 (C1) n - 1
REM
REM in /home/nfs/bkarasulu/CARBON/AIRSS/Generating-Clusters/ReaxFF-fromJPCA2015/Units_Real/with-SteepDescent/Only-C1/SD-CG/Try1-3A/FIRE-CG
REM
REM
REM
REM
REM
REM ./C.cell (11c1c37f851c82e70ff6c80c92926a4b)
REM
REM compiler GCC version 9.2.1 20190827 (Red Hat 9.2.1-1)
REM options -cpp -mtune=generic -march=x86-64 -g -O0 -fpre-include=/usr/include/finclude/math-vector-fortran.h
REM seed -964139110 548818327 1209700495 1426650004 -2050716049 -1590946683 -395954217 860017368 976946073 850745668 -38457161 819513540 2004895961 -857414508 -67122853 1263739871 -1662678415 -2091348855 -330909614 -1871694180 -1546194400 966359718 92630434 1888884726 -2079616581 -1301771572 -1574545260 330199497 779344734 -881679960 1806755747 152104616 -1165978299
REM
CELL 1.54180   50.00000   50.00000   50.00000   90.00000   90.00000   90.00000
LATT -1
SFAC C  
C      1  0.4443760000000  0.4359500000000  0.5317150000000 1.0
C      1  0.5735920000000  0.5055780000000  0.4343850000000 1.0
C      1  0.5163380000000  0.4550230000000  0.5791060000000 1.0
C      1  0.5535600000000  0.4956320000000  0.5757500000000 1.0
C      1  0.4453710000000  0.4809570000000  0.5750880000000 1.0
C      1  0.4224510000000  0.5107310000000  0.5070660000000 1.0
C      1  0.4785600000000  0.4089630000000  0.4626100000000 1.0
C      1  0.4682060000000  0.5267530000000  0.4651570000000 1.0
C      1  0.4144740000000  0.5066060000000  0.5503410000000 1.0
C      1  0.5453070000000  0.4726020000000  0.4704520000000 1.0
C      1  0.5226240000000  0.5299470000000  0.5947970000000 1.0
C      1  0.5054410000000  0.4674410000000  0.4044660000000 1.0
C      1  0.5044820000000  0.4770340000000  0.5168360000000 1.0
C      1  0.5890900000000  0.4679700000000  0.4867100000000 1.0
C      1  0.5521920000000  0.4244050000000  0.5119970000000 1.0
C      1  0.5518190000000  0.4400990000000  0.5603330000000 1.0
C      1  0.4565830000000  0.4221900000000  0.4548220000000 1.0
C      1  0.4852620000000  0.4107990000000  0.5511890000000 1.0
C      1  0.5597810000000  0.5681000000000  0.4553850000000 1.0
C      1  0.5080000000000  0.5838770000000  0.4444810000000 1.0
C      1  0.5539470000000  0.5384530000000  0.5070740000000 1.0
C      1  0.4679190000000  0.4794990000000  0.5565820000000 1.0
C      1  0.5448020000000  0.5012650000000  0.5258950000000 1.0
C      1  0.5036080000000  0.5282800000000  0.5366340000000 1.0
C      1  0.4092160000000  0.4606590000000  0.5098940000000 1.0
C      1  0.4506100000000  0.4593070000000  0.4313350000000 1.0
C      1  0.5355920000000  0.5141680000000  0.5006900000000 1.0
C      1  0.4243460000000  0.4569860000000  0.5345910000000 1.0
C      1  0.4693700000000  0.5741690000000  0.4634330000000 1.0
C      1  0.4677870000000  0.5568260000000  0.5988980000000 1.0
C      1  0.4368820000000  0.5608830000000  0.5532460000000 1.0
C      1  0.5313850000000  0.5516380000000  0.5765380000000 1.0
C      1  0.5085190000000  0.5095710000000  0.5550670000000 1.0
C      1  0.4960840000000  0.3982040000000  0.4780380000000 1.0
C      1  0.4297930000000  0.4748770000000  0.4678530000000 1.0
C      1  0.5953690000000  0.4884960000000  0.5271660000000 1.0
C      1  0.5657810000000  0.4384560000000  0.5336660000000 1.0
C      1  0.5261830000000  0.4274210000000  0.5677040000000 1.0
C      1  0.5091310000000  0.5764350000000  0.5357800000000 1.0
C      1  0.5391250000000  0.4162300000000  0.4602840000000 1.0
C      1  0.4550970000000  0.4769620000000  0.4538940000000 1.0
C      1  0.4178580000000  0.5378610000000  0.5037160000000 1.0
C      1  0.5011010000000  0.4293470000000  0.5172410000000 1.0
C      1  0.5793670000000  0.4647190000000  0.5344020000000 1.0
C      1  0.4556920000000  0.5004150000000  0.5945930000000 1.0
C      1  0.3995350000000  0.5072240000000  0.5256090000000 1.0
C      1  0.5111120000000  0.5390780000000  0.4703500000000 1.0
C      1  0.5309330000000  0.5094640000000  0.4091750000000 1.0
C      1  0.5285500000000  0.5933410000000  0.4887310000000 1.0
C      1  0.5718360000000  0.4519330000000  0.4757850000000 1.0
C      1  0.5112090000000  0.5683930000000  0.5649070000000 1.0
C      1  0.4855070000000  0.5497530000000  0.4621250000000 1.0
C      1  0.5310270000000  0.4650520000000  0.5136930000000 1.0
C      1  0.5039930000000  0.5190360000000  0.4044970000000 1.0
C      1  0.4518380000000  0.5289590000000  0.5868700000000 1.0
C      1  0.5516210000000  0.4657320000000  0.4201290000000 1.0
C      1  0.4529050000000  0.5667290000000  0.4397100000000 1.0
C      1  0.5235970000000  0.5135270000000  0.4564970000000 1.0
C      1  0.3905370000000  0.4840190000000  0.5075660000000 1.0
C      1  0.5255500000000  0.4587950000000  0.4875140000000 1.0
C      1  0.5905220000000  0.5145680000000  0.5405900000000 1.0
C      1  0.5361150000000  0.3879320000000  0.4719670000000 1.0
C      1  0.5328900000000  0.5861180000000  0.5164040000000 1.0
C      1  0.4629420000000  0.5133170000000  0.4196110000000 1.0
C      1  0.5418830000000  0.5102070000000  0.6016700000000 1.0
C      1  0.4922110000000  0.4841980000000  0.4912670000000 1.0
C      1  0.4725840000000  0.5031150000000  0.4481410000000 1.0
C      1  0.5902320000000  0.5193830000000  0.4565580000000 1.0
C      1  0.4842810000000  0.5619470000000  0.5766440000000 1.0
C      1  0.5547230000000  0.5839330000000  0.4808330000000 1.0
C      1  0.6047540000000  0.5128530000000  0.4806880000000 1.0
C      1  0.4978760000000  0.5480460000000  0.5184190000000 1.0
C      1  0.4699950000000  0.4419570000000  0.5731690000000 1.0
C      1  0.5403060000000  0.5008790000000  0.4755820000000 1.0
C      1  0.4376450000000  0.4810690000000  0.4148140000000 1.0
C      1  0.4968610000000  0.5147130000000  0.5826630000000 1.0
C      1  0.4692390000000  0.4367370000000  0.4329050000000 1.0
C      1  0.4649250000000  0.5425280000000  0.5149430000000 1.0
C      1  0.4189070000000  0.5662770000000  0.4999790000000 1.0
C      1  0.4627930000000  0.4979130000000  0.5353150000000 1.0
C      1  0.4057610000000  0.4877770000000  0.4545350000000 1.0
C      1  0.4614710000000  0.5244920000000  0.4911600000000 1.0
C      1  0.4209470000000  0.4512490000000  0.4840370000000 1.0
C      1  0.4609500000000  0.4925590000000  0.3999740000000 1.0
C      1  0.6037500000000  0.4881900000000  0.4980390000000 1.0
C      1  0.4937160000000  0.4656020000000  0.6000290000000 1.0
C      1  0.4484210000000  0.5676700000000  0.5116720000000 1.0
C      1  0.5459790000000  0.5168800000000  0.4324240000000 1.0
C      1  0.5523150000000  0.5434740000000  0.5342310000000 1.0
C      1  0.4837950000000  0.4345280000000  0.4956550000000 1.0
C      1  0.4993540000000  0.4443520000000  0.4273890000000 1.0
C      1  0.4232940000000  0.4799700000000  0.5555260000000 1.0
C      1  0.5849940000000  0.5658530000000  0.5224330000000 1.0
C      1  0.4679640000000  0.5547360000000  0.4170210000000 1.0
C      1  0.3926890000000  0.4883440000000  0.4795460000000 1.0
C      1  0.4955710000000  0.5457410000000  0.4127910000000 1.0
C      1  0.4331040000000  0.5320830000000  0.5601990000000 1.0
C      1  0.4933670000000  0.4537040000000  0.5303410000000 1.0
C      1  0.4606250000000  0.5260350000000  0.5420690000000 1.0
C      1  0.5749360000000  0.5450610000000  0.4888880000000 1.0
C      1  0.4973630000000  0.4571950000000  0.4792600000000 1.0
C      1  0.4593000000000  0.4216830000000  0.5534720000000 1.0
C      1  0.5565400000000  0.5431480000000  0.5620020000000 1.0
C      1  0.4734310000000  0.4460190000000  0.5998500000000 1.0
C      1  0.4772230000000  0.5982480000000  0.4791230000000 1.0
C      1  0.5210680000000  0.4267050000000  0.4406030000000 1.0
C      1  0.5616250000000  0.5790190000000  0.5104340000000 1.0
C      1  0.4658910000000  0.4963060000000  0.4926990000000 1.0
C      1  0.4522120000000  0.5806980000000  0.5378870000000 1.0
C      1  0.4460220000000  0.4931760000000  0.5125430000000 1.0
C      1  0.5354400000000  0.4645480000000  0.4450900000000 1.0
C      1  0.4750240000000  0.5314620000000  0.5689700000000 1.0
C      1  0.5760690000000  0.4793190000000  0.4240780000000 1.0
C      1  0.5570330000000  0.4765400000000  0.5200470000000 1.0
C      1  0.5352030000000  0.5011640000000  0.5521780000000 1.0
C      1  0.6024190000000  0.5372270000000  0.4970750000000 1.0
C      1  0.4216470000000  0.5283950000000  0.4268810000000 1.0
C      1  0.4908680000000  0.4913400000000  0.3978830000000 1.0
C      1  0.4558450000000  0.4312910000000  0.5042720000000 1.0
C      1  0.5144010000000  0.5680360000000  0.4227370000000 1.0
C      1  0.5692260000000  0.5394010000000  0.4604800000000 1.0
C      1  0.5723360000000  0.5178940000000  0.5625120000000 1.0
C      1  0.5133960000000  0.5344560000000  0.4971360000000 1.0
C      1  0.5073460000000  0.4673920000000  0.4475730000000 1.0
C      1  0.4821580000000  0.5903280000000  0.5332500000000 1.0
C      1  0.4402780000000  0.4304160000000  0.4800190000000 1.0
C      1  0.5130440000000  0.4078380000000  0.5502090000000 1.0
C      1  0.5437490000000  0.4644200000000  0.5747080000000 1.0
C      1  0.5049530000000  0.5974910000000  0.4684550000000 1.0
C      1  0.4192570000000  0.4992410000000  0.4302350000000 1.0
C      1  0.5573290000000  0.4281550000000  0.4839980000000 1.0
C      1  0.4758930000000  0.5982100000000  0.5074960000000 1.0
C      1  0.5441030000000  0.5686980000000  0.4305740000000 1.0
C      1  0.5004860000000  0.4944100000000  0.4520920000000 1.0
C      1  0.5987720000000  0.5405500000000  0.5260860000000 1.0
C      1  0.5311060000000  0.4792840000000  0.4026260000000 1.0
C      1  0.4876470000000  0.4592320000000  0.5575090000000 1.0
C      1  0.4832830000000  0.4928700000000  0.5990190000000 1.0
C      1  0.5168880000000  0.3913640000000  0.4952620000000 1.0
C      1  0.4263440000000  0.5522010000000  0.4442010000000 1.0
C      1  0.5246700000000  0.4101960000000  0.5188580000000 1.0
C      1  0.4466020000000  0.5356250000000  0.4104410000000 1.0
END
