TITL C-883728-9229-208 47.4930848845894 125000 -24520.1610818651 0 0 165 (C1) n - 1
REM
REM in /home/nfs/bkarasulu/CARBON/AIRSS/Generating-Clusters/ReaxFF-fromJPCA2015/Units_Real/with-SteepDescent/Only-C1/SD-CG/Try1-3A/FIRE-CG
REM
REM
REM
REM
REM
REM ./C.cell (11c1c37f851c82e70ff6c80c92926a4b)
REM
REM compiler GCC version 9.2.1 20190827 (Red Hat 9.2.1-1)
REM options -cpp -mtune=generic -march=x86-64 -g -O0 -fpre-include=/usr/include/finclude/math-vector-fortran.h
REM seed 2067700172 2042508058 1311728863 410082020 -1779458734 -1103416688 1353451071 1029427288 801195559 -1838471195 -958797823 92621233 -709366234 1309549436 -896465907 -1312214496 -535107438 1325897246 527529623 1471815247 -1691076263 -379878954 -1575444828 -1161116861 -1059748586 -483845155 395841258 1178138499 817445544 1281289869 -667701116 574983156 -1420483723
REM
CELL 1.54180   50.00000   50.00000   50.00000   90.00000   90.00000   90.00000
LATT -1
SFAC C  
C      1  0.4758930000000  0.6025220000000  0.5135560000000 1.0
C      1  0.4384800000000  0.4991990000000  0.4850060000000 1.0
C      1  0.4360210000000  0.4961600000000  0.4379830000000 1.0
C      1  0.4811970000000  0.5489490000000  0.4226780000000 1.0
C      1  0.5132210000000  0.4503860000000  0.4322310000000 1.0
C      1  0.4929310000000  0.4562100000000  0.5992850000000 1.0
C      1  0.5370420000000  0.4779350000000  0.5985550000000 1.0
C      1  0.5600990000000  0.5705910000000  0.4598780000000 1.0
C      1  0.4489560000000  0.4557190000000  0.5886230000000 1.0
C      1  0.4662610000000  0.4673230000000  0.5073230000000 1.0
C      1  0.6005020000000  0.5135450000000  0.5621530000000 1.0
C      1  0.4109890000000  0.4442860000000  0.4610410000000 1.0
C      1  0.4874920000000  0.4884180000000  0.4987060000000 1.0
C      1  0.4789910000000  0.5495890000000  0.5747780000000 1.0
C      1  0.4504100000000  0.4397420000000  0.4284620000000 1.0
C      1  0.4697710000000  0.4725520000000  0.6014530000000 1.0
C      1  0.5526600000000  0.4586150000000  0.5836850000000 1.0
C      1  0.5239500000000  0.6002640000000  0.4886890000000 1.0
C      1  0.5034610000000  0.4965550000000  0.5222140000000 1.0
C      1  0.4569840000000  0.5101550000000  0.3975980000000 1.0
C      1  0.5572230000000  0.5121700000000  0.5064720000000 1.0
C      1  0.5355500000000  0.5642050000000  0.5539050000000 1.0
C      1  0.5575420000000  0.4236470000000  0.4417140000000 1.0
C      1  0.4988700000000  0.3929730000000  0.4871650000000 1.0
C      1  0.3992750000000  0.4831530000000  0.4729330000000 1.0
C      1  0.4539140000000  0.4610630000000  0.4073970000000 1.0
C      1  0.5338560000000  0.5873590000000  0.4645060000000 1.0
C      1  0.4235020000000  0.5355220000000  0.5652340000000 1.0
C      1  0.4435950000000  0.5742910000000  0.5400000000000 1.0
C      1  0.4693010000000  0.5389230000000  0.4490400000000 1.0
C      1  0.4307830000000  0.5703550000000  0.4669960000000 1.0
C      1  0.5543420000000  0.5660020000000  0.4271420000000 1.0
C      1  0.5771750000000  0.4380420000000  0.4555980000000 1.0
C      1  0.4922220000000  0.4398310000000  0.5743720000000 1.0
C      1  0.5995580000000  0.4646790000000  0.4801320000000 1.0
C      1  0.5793930000000  0.5241740000000  0.4496450000000 1.0
C      1  0.5702150000000  0.5171140000000  0.5328420000000 1.0
C      1  0.5680510000000  0.4693500000000  0.4309040000000 1.0
C      1  0.4951840000000  0.6110470000000  0.4927240000000 1.0
C      1  0.5250430000000  0.4420900000000  0.4585240000000 1.0
C      1  0.5992860000000  0.5076080000000  0.5311740000000 1.0
C      1  0.4600450000000  0.4763970000000  0.5538090000000 1.0
C      1  0.4080810000000  0.4991940000000  0.4498860000000 1.0
C      1  0.4014430000000  0.4553900000000  0.4846580000000 1.0
C      1  0.5736480000000  0.5177750000000  0.4206680000000 1.0
C      1  0.5268320000000  0.5584820000000  0.5812930000000 1.0
C      1  0.5401480000000  0.4733550000000  0.5328020000000 1.0
C      1  0.4849260000000  0.5303130000000  0.4770040000000 1.0
C      1  0.5559560000000  0.4457130000000  0.4218220000000 1.0
C      1  0.4467600000000  0.5057410000000  0.5280700000000 1.0
C      1  0.4639650000000  0.5060860000000  0.5516970000000 1.0
C      1  0.5390770000000  0.4120730000000  0.4950280000000 1.0
C      1  0.5777050000000  0.5463170000000  0.5486120000000 1.0
C      1  0.5312450000000  0.5290830000000  0.5830660000000 1.0
C      1  0.5238300000000  0.5403080000000  0.5383950000000 1.0
C      1  0.5912170000000  0.5385590000000  0.5705130000000 1.0
C      1  0.5138190000000  0.5362920000000  0.4832140000000 1.0
C      1  0.5468620000000  0.5862490000000  0.5387920000000 1.0
C      1  0.5743300000000  0.5675880000000  0.5089600000000 1.0
C      1  0.4473590000000  0.5693270000000  0.4916330000000 1.0
C      1  0.4675070000000  0.5267010000000  0.5932870000000 1.0
C      1  0.4787050000000  0.4303380000000  0.5314630000000 1.0
C      1  0.5142010000000  0.4802870000000  0.4862790000000 1.0
C      1  0.4816850000000  0.4521320000000  0.4683870000000 1.0
C      1  0.4100590000000  0.5491700000000  0.4703950000000 1.0
C      1  0.5250190000000  0.5649600000000  0.4233850000000 1.0
C      1  0.4033730000000  0.5146130000000  0.5623680000000 1.0
C      1  0.5282230000000  0.5338700000000  0.4587240000000 1.0
C      1  0.5145390000000  0.5826080000000  0.4441130000000 1.0
C      1  0.5331950000000  0.4150270000000  0.4637160000000 1.0
C      1  0.4876620000000  0.5879060000000  0.5602840000000 1.0
C      1  0.5500840000000  0.4833340000000  0.5069070000000 1.0
C      1  0.4032540000000  0.5443060000000  0.5219590000000 1.0
C      1  0.5277150000000  0.4903110000000  0.4623100000000 1.0
C      1  0.4918440000000  0.5122790000000  0.5437770000000 1.0
C      1  0.4660300000000  0.5465010000000  0.5001890000000 1.0
C      1  0.4544730000000  0.5610470000000  0.4157980000000 1.0
C      1  0.5105780000000  0.5131630000000  0.4137350000000 1.0
C      1  0.5069500000000  0.4158190000000  0.5355120000000 1.0
C      1  0.4813890000000  0.4724110000000  0.4054980000000 1.0
C      1  0.5829110000000  0.5104530000000  0.4900270000000 1.0
C      1  0.4881200000000  0.4580360000000  0.5495870000000 1.0
C      1  0.5515160000000  0.4456050000000  0.5274240000000 1.0
C      1  0.6047150000000  0.5463860000000  0.4859680000000 1.0
C      1  0.5341570000000  0.4845060000000  0.4032920000000 1.0
C      1  0.5086030000000  0.4531610000000  0.4788770000000 1.0
C      1  0.6016200000000  0.4684410000000  0.5069300000000 1.0
C      1  0.4106130000000  0.4529490000000  0.5380500000000 1.0
C      1  0.4086240000000  0.4858580000000  0.5661030000000 1.0
C      1  0.4420020000000  0.4868630000000  0.4080080000000 1.0
C      1  0.3914560000000  0.5209980000000  0.5361210000000 1.0
C      1  0.4761210000000  0.4788140000000  0.4569410000000 1.0
C      1  0.5873680000000  0.4900610000000  0.4698700000000 1.0
C      1  0.4889060000000  0.5828470000000  0.5309750000000 1.0
C      1  0.4363290000000  0.4198860000000  0.4825370000000 1.0
C      1  0.4676440000000  0.5671810000000  0.4546990000000 1.0
C      1  0.4826640000000  0.5560540000000  0.5230620000000 1.0
C      1  0.4146100000000  0.5277280000000  0.4503990000000 1.0
C      1  0.5625400000000  0.4915940000000  0.4135720000000 1.0
C      1  0.5543410000000  0.4672520000000  0.4840820000000 1.0
C      1  0.6062140000000  0.5355680000000  0.4582600000000 1.0
C      1  0.5566920000000  0.5411620000000  0.4603870000000 1.0
C      1  0.4684080000000  0.4221770000000  0.4398750000000 1.0
C      1  0.5597150000000  0.4268530000000  0.5075930000000 1.0
C      1  0.5886680000000  0.4567810000000  0.5521240000000 1.0
C      1  0.4998410000000  0.5699300000000  0.5812960000000 1.0
C      1  0.4485870000000  0.3951190000000  0.4898200000000 1.0
C      1  0.4929840000000  0.4724550000000  0.4320650000000 1.0
C      1  0.6017370000000  0.4746750000000  0.5323170000000 1.0
C      1  0.5159890000000  0.4040370000000  0.5099010000000 1.0
C      1  0.4351330000000  0.4744430000000  0.5716320000000 1.0
C      1  0.4492860000000  0.5188970000000  0.5031820000000 1.0
C      1  0.3920700000000  0.4969800000000  0.5208560000000 1.0
C      1  0.5313760000000  0.4541330000000  0.4111080000000 1.0
C      1  0.5448330000000  0.4350450000000  0.5678470000000 1.0
C      1  0.4723260000000  0.4404380000000  0.5059280000000 1.0
C      1  0.4940000000000  0.5398180000000  0.5438640000000 1.0
C      1  0.4193080000000  0.4355960000000  0.5005800000000 1.0
C      1  0.4036300000000  0.5352370000000  0.4945390000000 1.0
C      1  0.5075520000000  0.4012990000000  0.4607260000000 1.0
C      1  0.5472330000000  0.5615880000000  0.4995950000000 1.0
C      1  0.5324910000000  0.5363580000000  0.5062800000000 1.0
C      1  0.4348770000000  0.4535450000000  0.4496560000000 1.0
C      1  0.5669770000000  0.5453110000000  0.4103950000000 1.0
C      1  0.5178950000000  0.4259790000000  0.5599680000000 1.0
C      1  0.4917100000000  0.4101280000000  0.4385070000000 1.0
C      1  0.4471770000000  0.5212060000000  0.5742910000000 1.0
C      1  0.5734380000000  0.5737960000000  0.5380220000000 1.0
C      1  0.4053560000000  0.5032930000000  0.4944610000000 1.0
C      1  0.4775760000000  0.5017580000000  0.4760370000000 1.0
C      1  0.5364090000000  0.5865500000000  0.5110480000000 1.0
C      1  0.5754670000000  0.4439910000000  0.4842780000000 1.0
C      1  0.4659330000000  0.4307440000000  0.4799500000000 1.0
C      1  0.4853160000000  0.6037820000000  0.4732350000000 1.0
C      1  0.5098280000000  0.4723230000000  0.5366820000000 1.0
C      1  0.4624420000000  0.5736050000000  0.5628040000000 1.0
C      1  0.4492010000000  0.4779840000000  0.5270440000000 1.0
C      1  0.5681640000000  0.4351920000000  0.5483750000000 1.0
C      1  0.5299290000000  0.5178450000000  0.5563530000000 1.0
C      1  0.6045840000000  0.5221480000000  0.5046760000000 1.0
C      1  0.4606940000000  0.4336720000000  0.5723920000000 1.0
C      1  0.4417760000000  0.5239680000000  0.4443790000000 1.0
C      1  0.4501280000000  0.5878250000000  0.5138380000000 1.0
C      1  0.4777010000000  0.5013100000000  0.6040050000000 1.0
C      1  0.5538920000000  0.5010840000000  0.5513730000000 1.0
C      1  0.4231390000000  0.5540310000000  0.5418170000000 1.0
C      1  0.4263780000000  0.4326360000000  0.5304220000000 1.0
C      1  0.4523280000000  0.4263570000000  0.5465050000000 1.0
C      1  0.4469770000000  0.4803320000000  0.4604260000000 1.0
C      1  0.5305480000000  0.5069590000000  0.6022570000000 1.0
C      1  0.3949760000000  0.4754770000000  0.5411890000000 1.0
C      1  0.5598950000000  0.4808910000000  0.4583240000000 1.0
C      1  0.4487410000000  0.5371800000000  0.4023150000000 1.0
C      1  0.4854930000000  0.5012060000000  0.4022200000000 1.0
C      1  0.4848070000000  0.5881530000000  0.4494990000000 1.0
C      1  0.4464600000000  0.5754510000000  0.4419810000000 1.0
C      1  0.5049230000000  0.4990870000000  0.6142690000000 1.0
C      1  0.5184240000000  0.5103690000000  0.4434750000000 1.0
C      1  0.5782800000000  0.4704300000000  0.5754060000000 1.0
C      1  0.5765350000000  0.4994690000000  0.5717260000000 1.0
C      1  0.5843730000000  0.5679070000000  0.4824410000000 1.0
C      1  0.4709200000000  0.3885280000000  0.4904600000000 1.0
C      1  0.5129670000000  0.4714970000000  0.6110560000000 1.0
C      1  0.5035850000000  0.4273170000000  0.4230640000000 1.0
C      1  0.5079230000000  0.5430890000000  0.4127530000000 1.0
END
