TITL C-883732-77-27 -3032310.52596631 125000 -24101.0626255843 0 0 159 (C1) n - 1
REM
REM in /home/nfs/bkarasulu/CARBON/AIRSS/Generating-Clusters/ReaxFF-fromJPCA2015/Units_Real/with-SteepDescent/Only-C1/SD-CG/Try1-3A/FIRE-CG
REM
REM
REM
REM
REM
REM ./C.cell (11c1c37f851c82e70ff6c80c92926a4b)
REM
REM compiler GCC version 9.2.1 20190827 (Red Hat 9.2.1-1)
REM options -cpp -mtune=generic -march=x86-64 -g -O0 -fpre-include=/usr/include/finclude/math-vector-fortran.h
REM seed 1126304170 -644655866 1591160831 718970992 572365169 -739055105 -793798422 -2022774277 1289623269 -648320107 355440864 -1620322805 -811236869 -1516138515 1106596923 1654294979 -1687204877 -1257303463 -1544493384 1768238809 -267404591 836213974 685180725 -1351685378 761868112 -1876753546 -53147450 393980169 1605403339 431786180 225925921 21812903 1713149217
REM
CELL 1.54180   50.00000   50.00000   50.00000   90.00000   90.00000   90.00000
LATT -1
SFAC C  
C      1  0.5055440000000  0.4947540000000  0.5593540000000 1.0
C      1  0.4322840000000  0.5122490000000  0.4335750000000 1.0
C      1  0.4334810000000  0.4854090000000  0.5130070000000 1.0
C      1  0.4433960000000  0.4393110000000  0.5039140000000 1.0
C      1  0.5691330000000  0.4358420000000  0.5041580000000 1.0
C      1  0.5089060000000  0.5988810000000  0.4469440000000 1.0
C      1  0.4971430000000  0.4771660000000  0.6065920000000 1.0
C      1  0.4799210000000  0.5800240000000  0.4900100000000 1.0
C      1  0.5766630000000  0.5636250000000  0.5365040000000 1.0
C      1  0.4013810000000  0.5233050000000  0.5363770000000 1.0
C      1  0.4951450000000  0.4621730000000  0.4872580000000 1.0
C      1  0.4485150000000  0.5502140000000  0.4989830000000 1.0
C      1  0.4406160000000  0.4141020000000  0.4859900000000 1.0
C      1  0.4376670000000  0.5228460000000  0.5575020000000 1.0
C      1  0.4718840000000  0.5079960000000  0.4878560000000 1.0
C      1  0.5343670000000  0.5570050000000  0.5050010000000 1.0
C      1  0.5697040000000  0.5560490000000  0.4515610000000 1.0
C      1  0.3984620000000  0.5338120000000  0.4685880000000 1.0
C      1  0.5418390000000  0.5030170000000  0.6010620000000 1.0
C      1  0.4895400000000  0.4339640000000  0.5794530000000 1.0
C      1  0.5994020000000  0.5424450000000  0.5086540000000 1.0
C      1  0.4013820000000  0.4527760000000  0.4600870000000 1.0
C      1  0.4649950000000  0.4695670000000  0.5417140000000 1.0
C      1  0.5337200000000  0.4787410000000  0.4220290000000 1.0
C      1  0.4712550000000  0.4824570000000  0.4721080000000 1.0
C      1  0.4718390000000  0.5111270000000  0.3943640000000 1.0
C      1  0.5169150000000  0.4702480000000  0.5499080000000 1.0
C      1  0.4969300000000  0.5563900000000  0.5815420000000 1.0
C      1  0.5994250000000  0.4690150000000  0.5303120000000 1.0
C      1  0.6041460000000  0.4542220000000  0.4787770000000 1.0
C      1  0.5666600000000  0.4449340000000  0.5622460000000 1.0
C      1  0.5302400000000  0.4218800000000  0.5389720000000 1.0
C      1  0.4387540000000  0.5765440000000  0.4616230000000 1.0
C      1  0.5366250000000  0.5322110000000  0.5237190000000 1.0
C      1  0.4906460000000  0.4404910000000  0.5084960000000 1.0
C      1  0.4790970000000  0.5920930000000  0.5546170000000 1.0
C      1  0.4437120000000  0.4761800000000  0.4680730000000 1.0
C      1  0.5336560000000  0.5556990000000  0.4110730000000 1.0
C      1  0.4291390000000  0.4673560000000  0.4906870000000 1.0
C      1  0.4474830000000  0.4278640000000  0.5526550000000 1.0
C      1  0.5096380000000  0.4869770000000  0.5038740000000 1.0
C      1  0.4936850000000  0.5835020000000  0.5772000000000 1.0
C      1  0.5712290000000  0.5082740000000  0.4627390000000 1.0
C      1  0.5562300000000  0.4613570000000  0.5029980000000 1.0
C      1  0.5175540000000  0.5139720000000  0.3892530000000 1.0
C      1  0.3973510000000  0.4932030000000  0.5304650000000 1.0
C      1  0.4941340000000  0.5295170000000  0.3908710000000 1.0
C      1  0.5266860000000  0.4761290000000  0.6088900000000 1.0
C      1  0.5667110000000  0.4437730000000  0.4267920000000 1.0
C      1  0.5538420000000  0.5085430000000  0.5282040000000 1.0
C      1  0.4830520000000  0.6073330000000  0.4997680000000 1.0
C      1  0.4753030000000  0.4183950000000  0.5591330000000 1.0
C      1  0.4515140000000  0.4656740000000  0.5847170000000 1.0
C      1  0.5163130000000  0.5145350000000  0.4614800000000 1.0
C      1  0.4558110000000  0.6082770000000  0.5122400000000 1.0
C      1  0.4678440000000  0.4508240000000  0.5206070000000 1.0
C      1  0.5126570000000  0.3952250000000  0.5046030000000 1.0
C      1  0.5060350000000  0.4859240000000  0.3889240000000 1.0
C      1  0.4326250000000  0.5900530000000  0.5153610000000 1.0
C      1  0.4660270000000  0.4087980000000  0.4478750000000 1.0
C      1  0.5391960000000  0.4502460000000  0.4164580000000 1.0
C      1  0.5167930000000  0.4521380000000  0.4705590000000 1.0
C      1  0.5135240000000  0.4244580000000  0.4632280000000 1.0
C      1  0.4013410000000  0.5115590000000  0.4895120000000 1.0
C      1  0.4975390000000  0.5437580000000  0.4379330000000 1.0
C      1  0.5207700000000  0.5415000000000  0.5737780000000 1.0
C      1  0.5283110000000  0.4070550000000  0.4831320000000 1.0
C      1  0.5547350000000  0.5737470000000  0.5533700000000 1.0
C      1  0.4439010000000  0.5116670000000  0.6052870000000 1.0
C      1  0.4948300000000  0.5065940000000  0.6062880000000 1.0
C      1  0.5621370000000  0.5169000000000  0.4179780000000 1.0
C      1  0.4626180000000  0.5734470000000  0.5393380000000 1.0
C      1  0.4765290000000  0.5716150000000  0.4157760000000 1.0
C      1  0.5709740000000  0.5349600000000  0.5739660000000 1.0
C      1  0.6088240000000  0.4954960000000  0.5224960000000 1.0
C      1  0.4404230000000  0.4201940000000  0.4573430000000 1.0
C      1  0.5144450000000  0.5353620000000  0.5420150000000 1.0
C      1  0.5634280000000  0.5084380000000  0.5823270000000 1.0
C      1  0.3886710000000  0.4883750000000  0.5011230000000 1.0
C      1  0.5575050000000  0.4137070000000  0.4860790000000 1.0
C      1  0.5501290000000  0.5681080000000  0.4307980000000 1.0
C      1  0.4680980000000  0.5221650000000  0.5540870000000 1.0
C      1  0.5775970000000  0.5615400000000  0.4785260000000 1.0
C      1  0.4646330000000  0.4612240000000  0.4125740000000 1.0
C      1  0.5960530000000  0.4482200000000  0.5064400000000 1.0
C      1  0.5266160000000  0.5614790000000  0.4779990000000 1.0
C      1  0.6047360000000  0.5245440000000  0.5296530000000 1.0
C      1  0.4787280000000  0.4581390000000  0.5919140000000 1.0
C      1  0.5454440000000  0.4636760000000  0.4742640000000 1.0
C      1  0.5628000000000  0.4879860000000  0.4206960000000 1.0
C      1  0.4329350000000  0.5589440000000  0.4389660000000 1.0
C      1  0.4407550000000  0.4592580000000  0.5572440000000 1.0
C      1  0.4702210000000  0.5221750000000  0.6029070000000 1.0
C      1  0.5207240000000  0.4695570000000  0.5239700000000 1.0
C      1  0.5991690000000  0.4719920000000  0.4556580000000 1.0
C      1  0.5193420000000  0.5190550000000  0.5967590000000 1.0
C      1  0.5317830000000  0.5896120000000  0.5434710000000 1.0
C      1  0.5649450000000  0.4892340000000  0.5096930000000 1.0
C      1  0.4390620000000  0.4224480000000  0.5265830000000 1.0
C      1  0.5076710000000  0.5979540000000  0.5575710000000 1.0
C      1  0.3982120000000  0.5582170000000  0.4831880000000 1.0
C      1  0.5060900000000  0.4981310000000  0.4401830000000 1.0
C      1  0.5399930000000  0.5284950000000  0.4026720000000 1.0
C      1  0.5319940000000  0.4848050000000  0.5633740000000 1.0
C      1  0.4314120000000  0.4841690000000  0.4424920000000 1.0
C      1  0.4784390000000  0.4933530000000  0.5523990000000 1.0
C      1  0.5953770000000  0.4974340000000  0.4694630000000 1.0
C      1  0.5487520000000  0.4932750000000  0.4699140000000 1.0
C      1  0.4540830000000  0.5540560000000  0.4199210000000 1.0
C      1  0.4212910000000  0.5429710000000  0.5437070000000 1.0
C      1  0.4840360000000  0.4532740000000  0.4331660000000 1.0
C      1  0.5131370000000  0.6030140000000  0.4983900000000 1.0
C      1  0.5709090000000  0.5278590000000  0.4434030000000 1.0
C      1  0.4380270000000  0.4611570000000  0.4250840000000 1.0
C      1  0.4880290000000  0.4013100000000  0.5388070000000 1.0
C      1  0.4917560000000  0.5117890000000  0.5066340000000 1.0
C      1  0.5793790000000  0.4682120000000  0.5514780000000 1.0
C      1  0.5295360000000  0.4516980000000  0.5969110000000 1.0
C      1  0.4355930000000  0.4870830000000  0.5958450000000 1.0
C      1  0.4271190000000  0.5703670000000  0.4892180000000 1.0
C      1  0.5169500000000  0.4419790000000  0.5222720000000 1.0
C      1  0.4889750000000  0.5327110000000  0.5281030000000 1.0
C      1  0.4772950000000  0.4827350000000  0.3955010000000 1.0
C      1  0.4845500000000  0.4060070000000  0.5086210000000 1.0
C      1  0.4249310000000  0.4420580000000  0.4441590000000 1.0
C      1  0.5214620000000  0.5906320000000  0.4728220000000 1.0
C      1  0.5489770000000  0.5535510000000  0.5733500000000 1.0
C      1  0.4616690000000  0.3944790000000  0.4903980000000 1.0
C      1  0.4818330000000  0.5897060000000  0.4389080000000 1.0
C      1  0.5278690000000  0.5835470000000  0.5153790000000 1.0
C      1  0.4746990000000  0.5382170000000  0.5793930000000 1.0
C      1  0.4662130000000  0.5834080000000  0.4637690000000 1.0
C      1  0.5008560000000  0.5541240000000  0.4090020000000 1.0
C      1  0.5652070000000  0.4186540000000  0.4593780000000 1.0
C      1  0.3980310000000  0.4646750000000  0.4862320000000 1.0
C      1  0.5921130000000  0.4956360000000  0.4985910000000 1.0
C      1  0.4273250000000  0.5093600000000  0.4994310000000 1.0
C      1  0.4337040000000  0.5715450000000  0.5378510000000 1.0
C      1  0.4182900000000  0.5337140000000  0.4450140000000 1.0
C      1  0.5585310000000  0.4934840000000  0.5558670000000 1.0
C      1  0.4699020000000  0.3832300000000  0.4640720000000 1.0
C      1  0.4277960000000  0.5114400000000  0.5822910000000 1.0
C      1  0.4207880000000  0.4773730000000  0.5371480000000 1.0
C      1  0.5855390000000  0.5662580000000  0.5051840000000 1.0
C      1  0.4581120000000  0.5231770000000  0.4198110000000 1.0
C      1  0.4486420000000  0.5233030000000  0.4895040000000 1.0
C      1  0.5189780000000  0.4300390000000  0.5846890000000 1.0
C      1  0.4723710000000  0.5597310000000  0.5133240000000 1.0
C      1  0.5878040000000  0.5408470000000  0.5491130000000 1.0
C      1  0.5268730000000  0.5040840000000  0.4855310000000 1.0
C      1  0.5174330000000  0.5418420000000  0.4585550000000 1.0
C      1  0.4892990000000  0.4271230000000  0.4461640000000 1.0
C      1  0.5166790000000  0.3965410000000  0.5340850000000 1.0
C      1  0.5423840000000  0.4274110000000  0.5653180000000 1.0
C      1  0.5820110000000  0.4687520000000  0.4306970000000 1.0
C      1  0.4850970000000  0.5184690000000  0.4365470000000 1.0
C      1  0.4864820000000  0.4789100000000  0.4471470000000 1.0
C      1  0.5613200000000  0.4422640000000  0.4556980000000 1.0
C      1  0.5260510000000  0.4655220000000  0.3957360000000 1.0
END
