TITL C-884138-6203-132 7.02288057747787 125000 -24461.4117572858 0 0 162 (C1) n - 1
REM
REM in /home/nfs/bkarasulu/CARBON/AIRSS/Generating-Clusters/ReaxFF-fromJPCA2015/Units_Real/with-SteepDescent/Only-C1/SD-CG/Try1-3A/FIRE-CG
REM
REM
REM
REM
REM
REM ./C.cell (11c1c37f851c82e70ff6c80c92926a4b)
REM
REM compiler GCC version 9.2.1 20190827 (Red Hat 9.2.1-1)
REM options -cpp -mtune=generic -march=x86-64 -g -O0 -fpre-include=/usr/include/finclude/math-vector-fortran.h
REM seed -809573571 38169119 615145893 -1778608932 -350549095 -362142606 143485572 1115743966 655327607 16757909 -1801628060 889454654 769414620 2008968816 -575486804 1754332089 1915854688 92415843 691854364 285004891 243139394 -685160895 886444769 146855305 -1394682912 -1741291700 632471729 244381638 975250807 -1811206916 1694639502 -1856582023 -2074797790
REM
CELL 1.54180   50.00000   50.00000   50.00000   90.00000   90.00000   90.00000
LATT -1
SFAC C  
C      1  0.4192190000000  0.5448400000000  0.5097120000000 1.0
C      1  0.4508400000000  0.5848270000000  0.4795970000000 1.0
C      1  0.4946090000000  0.5401410000000  0.5522860000000 1.0
C      1  0.4011220000000  0.5523580000000  0.4500000000000 1.0
C      1  0.4857210000000  0.4356340000000  0.5361590000000 1.0
C      1  0.5607320000000  0.5258010000000  0.5122260000000 1.0
C      1  0.4828010000000  0.5679540000000  0.5529210000000 1.0
C      1  0.5767730000000  0.5167760000000  0.5368760000000 1.0
C      1  0.3842470000000  0.4970300000000  0.5448680000000 1.0
C      1  0.5762290000000  0.4578060000000  0.5727870000000 1.0
C      1  0.6142080000000  0.5165980000000  0.4741500000000 1.0
C      1  0.4133160000000  0.4803720000000  0.4578740000000 1.0
C      1  0.5633340000000  0.4811590000000  0.5826350000000 1.0
C      1  0.6018430000000  0.5165570000000  0.5195610000000 1.0
C      1  0.4916960000000  0.4922400000000  0.5829490000000 1.0
C      1  0.5688630000000  0.4430900000000  0.5056520000000 1.0
C      1  0.5437350000000  0.5684210000000  0.4346410000000 1.0
C      1  0.6079790000000  0.4373890000000  0.4728830000000 1.0
C      1  0.4935550000000  0.5666390000000  0.4185920000000 1.0
C      1  0.5218910000000  0.6107520000000  0.5021880000000 1.0
C      1  0.5361400000000  0.4737100000000  0.4667300000000 1.0
C      1  0.5025640000000  0.4706890000000  0.3981230000000 1.0
C      1  0.5661050000000  0.4893060000000  0.5353680000000 1.0
C      1  0.4409730000000  0.4358070000000  0.4496280000000 1.0
C      1  0.4176310000000  0.5505650000000  0.4239070000000 1.0
C      1  0.4928570000000  0.4043090000000  0.4434000000000 1.0
C      1  0.5865890000000  0.5644420000000  0.4957840000000 1.0
C      1  0.3965750000000  0.5223600000000  0.4491740000000 1.0
C      1  0.4915800000000  0.4452540000000  0.6017920000000 1.0
C      1  0.5685610000000  0.5076330000000  0.5714620000000 1.0
C      1  0.5606160000000  0.5766460000000  0.5119520000000 1.0
C      1  0.5357010000000  0.4485870000000  0.4816590000000 1.0
C      1  0.4852780000000  0.4497710000000  0.4098970000000 1.0
C      1  0.4437450000000  0.5821360000000  0.5260800000000 1.0
C      1  0.4768870000000  0.5045160000000  0.6054920000000 1.0
C      1  0.4758950000000  0.5078760000000  0.4324360000000 1.0
C      1  0.4736550000000  0.4013040000000  0.4649680000000 1.0
C      1  0.5232540000000  0.4760100000000  0.4187730000000 1.0
C      1  0.4622100000000  0.4599620000000  0.4230910000000 1.0
C      1  0.6113230000000  0.4658430000000  0.4637290000000 1.0
C      1  0.5393780000000  0.4951310000000  0.5308830000000 1.0
C      1  0.5617260000000  0.4411920000000  0.5559920000000 1.0
C      1  0.4558440000000  0.4965900000000  0.5145020000000 1.0
C      1  0.4149880000000  0.4277990000000  0.5296140000000 1.0
C      1  0.5183200000000  0.5508000000000  0.4253600000000 1.0
C      1  0.5201370000000  0.4960080000000  0.5774140000000 1.0
C      1  0.4531790000000  0.4905390000000  0.4274730000000 1.0
C      1  0.4446860000000  0.4795710000000  0.5611090000000 1.0
C      1  0.5317980000000  0.5490290000000  0.4816430000000 1.0
C      1  0.5439770000000  0.5538220000000  0.5484400000000 1.0
C      1  0.4698510000000  0.5182370000000  0.5213340000000 1.0
C      1  0.4521490000000  0.5676910000000  0.5506160000000 1.0
C      1  0.5275780000000  0.5256980000000  0.4674850000000 1.0
C      1  0.5164140000000  0.4625640000000  0.5295470000000 1.0
C      1  0.4338020000000  0.5679470000000  0.5030190000000 1.0
C      1  0.4141990000000  0.5405030000000  0.5385020000000 1.0
C      1  0.4957480000000  0.5048220000000  0.4456950000000 1.0
C      1  0.5353100000000  0.4408360000000  0.5405230000000 1.0
C      1  0.4534480000000  0.4598490000000  0.4932170000000 1.0
C      1  0.4639980000000  0.6012450000000  0.5163440000000 1.0
C      1  0.5145570000000  0.4001480000000  0.4591490000000 1.0
C      1  0.5476910000000  0.5501020000000  0.5053740000000 1.0
C      1  0.5593280000000  0.5951320000000  0.4700690000000 1.0
C      1  0.5062330000000  0.4419900000000  0.4842410000000 1.0
C      1  0.5033530000000  0.4970960000000  0.4943810000000 1.0
C      1  0.4800860000000  0.4017760000000  0.4978010000000 1.0
C      1  0.5664970000000  0.4630880000000  0.4278950000000 1.0
C      1  0.5163340000000  0.4670740000000  0.4459070000000 1.0
C      1  0.5087980000000  0.5280650000000  0.4470890000000 1.0
C      1  0.5276760000000  0.4311280000000  0.4254280000000 1.0
C      1  0.5052120000000  0.5812490000000  0.5705620000000 1.0
C      1  0.5400740000000  0.5348260000000  0.4077990000000 1.0
C      1  0.5153930000000  0.5635010000000  0.5915600000000 1.0
C      1  0.5833540000000  0.4683170000000  0.5228040000000 1.0
C      1  0.4006680000000  0.5030850000000  0.4712410000000 1.0
C      1  0.4923840000000  0.5489180000000  0.5951310000000 1.0
C      1  0.4706990000000  0.6057710000000  0.4887900000000 1.0
C      1  0.4242350000000  0.4794190000000  0.5375940000000 1.0
C      1  0.4670380000000  0.4717320000000  0.5155270000000 1.0
C      1  0.5596460000000  0.5649200000000  0.5683750000000 1.0
C      1  0.4454040000000  0.5535270000000  0.4154320000000 1.0
C      1  0.4464820000000  0.4103540000000  0.4631420000000 1.0
C      1  0.4610740000000  0.5368870000000  0.4760330000000 1.0
C      1  0.4581480000000  0.5787000000000  0.4546310000000 1.0
C      1  0.5682590000000  0.5574210000000  0.4454890000000 1.0
C      1  0.5654200000000  0.5099280000000  0.4880470000000 1.0
C      1  0.5741020000000  0.5293830000000  0.4410800000000 1.0
C      1  0.4598390000000  0.4309950000000  0.5508490000000 1.0
C      1  0.4171890000000  0.5162620000000  0.4949320000000 1.0
C      1  0.4400080000000  0.4995950000000  0.5840780000000 1.0
C      1  0.4415430000000  0.4158580000000  0.5341200000000 1.0
C      1  0.5273600000000  0.5084410000000  0.5519430000000 1.0
C      1  0.4874400000000  0.4922760000000  0.4697500000000 1.0
C      1  0.5989970000000  0.5404620000000  0.5036090000000 1.0
C      1  0.5100230000000  0.3989740000000  0.5395100000000 1.0
C      1  0.5006510000000  0.4266720000000  0.4210010000000 1.0
C      1  0.5845370000000  0.5179050000000  0.4661290000000 1.0
C      1  0.5107260000000  0.5696360000000  0.4782640000000 1.0
C      1  0.5567300000000  0.5280230000000  0.5852650000000 1.0
C      1  0.4695340000000  0.5329190000000  0.5987970000000 1.0
C      1  0.5359400000000  0.4757560000000  0.5905030000000 1.0
C      1  0.4335010000000  0.4048390000000  0.4896740000000 1.0
C      1  0.4151790000000  0.4251660000000  0.5009730000000 1.0
C      1  0.5410230000000  0.5015550000000  0.4746290000000 1.0
C      1  0.5094920000000  0.4289250000000  0.5861790000000 1.0
C      1  0.4769680000000  0.4893240000000  0.5572150000000 1.0
C      1  0.4879050000000  0.4647760000000  0.5350800000000 1.0
C      1  0.5453470000000  0.5528850000000  0.5907960000000 1.0
C      1  0.5339380000000  0.4036380000000  0.5022420000000 1.0
C      1  0.5507790000000  0.4852690000000  0.4175640000000 1.0
C      1  0.4651160000000  0.4572990000000  0.5951460000000 1.0
C      1  0.5210240000000  0.4516560000000  0.5995750000000 1.0
C      1  0.5227620000000  0.4829990000000  0.5113110000000 1.0
C      1  0.4362880000000  0.5458590000000  0.5591730000000 1.0
C      1  0.5087980000000  0.3915620000000  0.5128490000000 1.0
C      1  0.4522470000000  0.4010780000000  0.5108110000000 1.0
C      1  0.5383560000000  0.5925220000000  0.4491260000000 1.0
C      1  0.4938280000000  0.5210510000000  0.5072880000000 1.0
C      1  0.4900240000000  0.4952230000000  0.3918750000000 1.0
C      1  0.5798620000000  0.4319290000000  0.4816660000000 1.0
C      1  0.4409600000000  0.4919100000000  0.4563030000000 1.0
C      1  0.4065720000000  0.4552070000000  0.5389330000000 1.0
C      1  0.5783080000000  0.5731080000000  0.4690620000000 1.0
C      1  0.5112680000000  0.4226540000000  0.5554260000000 1.0
C      1  0.4454070000000  0.5280740000000  0.5809300000000 1.0
C      1  0.4772930000000  0.5172340000000  0.5479640000000 1.0
C      1  0.5487650000000  0.5992380000000  0.4967700000000 1.0
C      1  0.5573000000000  0.5154600000000  0.4197760000000 1.0
C      1  0.4662790000000  0.5718830000000  0.4268530000000 1.0
C      1  0.4518090000000  0.4510880000000  0.5705450000000 1.0
C      1  0.4287160000000  0.4961400000000  0.5145420000000 1.0
C      1  0.6044840000000  0.4886640000000  0.5109060000000 1.0
C      1  0.5860720000000  0.4526510000000  0.5475420000000 1.0
C      1  0.6157970000000  0.4878320000000  0.4850330000000 1.0
C      1  0.4111100000000  0.5217470000000  0.4223010000000 1.0
C      1  0.4555780000000  0.4845910000000  0.6040400000000 1.0
C      1  0.5223500000000  0.5361970000000  0.5494050000000 1.0
C      1  0.5527590000000  0.4366840000000  0.4346330000000 1.0
C      1  0.5499260000000  0.5809140000000  0.5451870000000 1.0
C      1  0.4852410000000  0.5431120000000  0.4942990000000 1.0
C      1  0.4903150000000  0.4283460000000  0.5055840000000 1.0
C      1  0.4337100000000  0.5071430000000  0.4122120000000 1.0
C      1  0.4997640000000  0.6105880000000  0.4822020000000 1.0
C      1  0.4190090000000  0.4518000000000  0.4613820000000 1.0
C      1  0.4666540000000  0.4511700000000  0.4491460000000 1.0
C      1  0.4941340000000  0.5675070000000  0.5010540000000 1.0
C      1  0.4889970000000  0.5846540000000  0.5239690000000 1.0
C      1  0.5232990000000  0.5949820000000  0.5525950000000 1.0
C      1  0.5910790000000  0.4684920000000  0.4428860000000 1.0
C      1  0.3962290000000  0.5196430000000  0.5431860000000 1.0
C      1  0.4623670000000  0.4751820000000  0.4699200000000 1.0
C      1  0.5381800000000  0.4022920000000  0.4731150000000 1.0
C      1  0.4528100000000  0.5274020000000  0.4033860000000 1.0
C      1  0.3851920000000  0.4716690000000  0.5430720000000 1.0
C      1  0.5115470000000  0.5938450000000  0.4616710000000 1.0
C      1  0.4974540000000  0.4483900000000  0.4574440000000 1.0
C      1  0.5114810000000  0.6050770000000  0.5286420000000 1.0
C      1  0.5471320000000  0.4265960000000  0.5156860000000 1.0
C      1  0.4262560000000  0.4503000000000  0.4897220000000 1.0
C      1  0.4390320000000  0.5201090000000  0.4718440000000 1.0
C      1  0.4771630000000  0.5144970000000  0.3930190000000 1.0
C      1  0.5537110000000  0.4280780000000  0.4646060000000 1.0
END
