TITL C-884135-4325-103 -1.25018395798348 125000 -3198.23342622314 0 0 23 (C1) n - 1
REM
REM in /home/nfs/bkarasulu/CARBON/AIRSS/Generating-Clusters/ReaxFF-fromJPCA2015/Units_Real/with-SteepDescent/Only-C1/SD-CG/Try1-3A/FIRE-CG
REM
REM
REM
REM
REM
REM ./C.cell (11c1c37f851c82e70ff6c80c92926a4b)
REM
REM compiler GCC version 9.2.1 20190827 (Red Hat 9.2.1-1)
REM options -cpp -mtune=generic -march=x86-64 -g -O0 -fpre-include=/usr/include/finclude/math-vector-fortran.h
REM seed 46579370 -669516786 -1868904740 591028547 -850622120 -2070114820 1933477677 1466122235 -1659041913 -1718358991 -1011963381 412345733 780259599 825999932 -295968811 269053513 1679319080 1798495480 2117596479 -713694527 -1888797373 -514716403 1137615379 515210157 -991985154 47245882 1681017204 2078023762 461894588 -1245589492 949421463 -1240812241 821057544
REM
CELL 1.54180   50.00000   50.00000   50.00000   90.00000   90.00000   90.00000
LATT -1
SFAC C  
C      1  0.4893730000000  0.4479900000000  0.4578060000000 1.0
C      1  0.5086330000000  0.5587790000000  0.5054890000000 1.0
C      1  0.4727760000000  0.4666870000000  0.4731340000000 1.0
C      1  0.4470580000000  0.5526420000000  0.4910500000000 1.0
C      1  0.4862780000000  0.5525330000000  0.5007980000000 1.0
C      1  0.5330090000000  0.4953740000000  0.5527330000000 1.0
C      1  0.5528040000000  0.5074620000000  0.4935020000000 1.0
C      1  0.5484210000000  0.5288490000000  0.5170440000000 1.0
C      1  0.5327460000000  0.4834640000000  0.4895130000000 1.0
C      1  0.5278830000000  0.5453450000000  0.5110090000000 1.0
C      1  0.5358740000000  0.4639050000000  0.4681880000000 1.0
C      1  0.4591070000000  0.5009120000000  0.5042050000000 1.0
C      1  0.4632660000000  0.5340620000000  0.4972370000000 1.0
C      1  0.4840440000000  0.4908090000000  0.5409230000000 1.0
C      1  0.4819650000000  0.4835220000000  0.4944040000000 1.0
C      1  0.5423870000000  0.5114870000000  0.5393260000000 1.0
C      1  0.5612580000000  0.5086230000000  0.4699980000000 1.0
C      1  0.4576380000000  0.4972730000000  0.5376570000000 1.0
C      1  0.4424290000000  0.4697070000000  0.4692590000000 1.0
C      1  0.5086760000000  0.4831490000000  0.5064490000000 1.0
C      1  0.4347400000000  0.4899610000000  0.4893600000000 1.0
C      1  0.5187290000000  0.4435940000000  0.4541060000000 1.0
C      1  0.5109060000000  0.4838710000000  0.5368100000000 1.0
END
