TITL C-883739-1268-343 -4.651220710722 125000 -24011.5985870842 0 0 159 (C1) n - 1
REM
REM in /home/nfs/bkarasulu/CARBON/AIRSS/Generating-Clusters/ReaxFF-fromJPCA2015/Units_Real/with-SteepDescent/Only-C1/SD-CG/Try1-3A/FIRE-CG
REM
REM
REM
REM
REM
REM ./C.cell (11c1c37f851c82e70ff6c80c92926a4b)
REM
REM compiler GCC version 9.2.1 20190827 (Red Hat 9.2.1-1)
REM options -cpp -mtune=generic -march=x86-64 -g -O0 -fpre-include=/usr/include/finclude/math-vector-fortran.h
REM seed -1827140681 -1502206411 -1094162246 2033581700 -329593718 697677323 -2054746244 -869303999 -1555782225 1132782628 706575636 1250232591 -1797457374 280752733 -901717213 -641754123 -97348146 -144348682 17012143 -1064082044 101688778 1480197469 730456269 -1428512090 -434016615 1978189350 -1083325086 1483924119 2033735905 -22965927 796790926 -1547399221 -340615150
REM
CELL 1.54180   50.00000   50.00000   50.00000   90.00000   90.00000   90.00000
LATT -1
SFAC C  
C      1  0.4126800000000  0.5213210000000  0.4494880000000 1.0
C      1  0.4856840000000  0.5493540000000  0.5017400000000 1.0
C      1  0.5012220000000  0.5659130000000  0.4242160000000 1.0
C      1  0.4767490000000  0.4518780000000  0.5580150000000 1.0
C      1  0.5758760000000  0.4409890000000  0.5124750000000 1.0
C      1  0.5347140000000  0.4832980000000  0.3961400000000 1.0
C      1  0.5198600000000  0.4032010000000  0.5161060000000 1.0
C      1  0.4192840000000  0.4400100000000  0.4948690000000 1.0
C      1  0.5387520000000  0.4666900000000  0.5603360000000 1.0
C      1  0.5928360000000  0.5115020000000  0.4972270000000 1.0
C      1  0.5072840000000  0.4710770000000  0.5257800000000 1.0
C      1  0.5492040000000  0.5965430000000  0.4882490000000 1.0
C      1  0.4456590000000  0.5611880000000  0.4387730000000 1.0
C      1  0.5273090000000  0.4033510000000  0.4883940000000 1.0
C      1  0.4226800000000  0.4768090000000  0.4310730000000 1.0
C      1  0.4519070000000  0.4019790000000  0.4828030000000 1.0
C      1  0.4035760000000  0.5577680000000  0.4887780000000 1.0
C      1  0.3972940000000  0.5305920000000  0.5269070000000 1.0
C      1  0.4401440000000  0.4386070000000  0.5371970000000 1.0
C      1  0.4821920000000  0.4849680000000  0.6029630000000 1.0
C      1  0.4596140000000  0.5124480000000  0.4666800000000 1.0
C      1  0.5668720000000  0.5812080000000  0.5581130000000 1.0
C      1  0.5703620000000  0.4333520000000  0.4826670000000 1.0
C      1  0.5025140000000  0.4630500000000  0.5954710000000 1.0
C      1  0.4094200000000  0.4693890000000  0.4554730000000 1.0
C      1  0.4869190000000  0.5852740000000  0.4429850000000 1.0
C      1  0.4136700000000  0.5815040000000  0.4810270000000 1.0
C      1  0.4482270000000  0.5484030000000  0.5730110000000 1.0
C      1  0.5043460000000  0.6011730000000  0.4619150000000 1.0
C      1  0.5001200000000  0.4879710000000  0.4816900000000 1.0
C      1  0.4920430000000  0.6063370000000  0.4861220000000 1.0
C      1  0.5627730000000  0.4491600000000  0.5588240000000 1.0
C      1  0.4161170000000  0.4729120000000  0.5591810000000 1.0
C      1  0.4753190000000  0.4980550000000  0.5555700000000 1.0
C      1  0.4687750000000  0.4606150000000  0.4126420000000 1.0
C      1  0.4237980000000  0.5054280000000  0.4270610000000 1.0
C      1  0.5073590000000  0.4652870000000  0.4643000000000 1.0
C      1  0.5421220000000  0.4190810000000  0.4439040000000 1.0
C      1  0.4598460000000  0.5821490000000  0.4513200000000 1.0
C      1  0.4028040000000  0.4831050000000  0.4797930000000 1.0
C      1  0.5075220000000  0.5190010000000  0.5312810000000 1.0
C      1  0.4793060000000  0.4911720000000  0.5014180000000 1.0
C      1  0.5337600000000  0.5949790000000  0.4635920000000 1.0
C      1  0.4823020000000  0.5179300000000  0.5149700000000 1.0
C      1  0.5915190000000  0.5195100000000  0.4465500000000 1.0
C      1  0.4015470000000  0.5121510000000  0.4750240000000 1.0
C      1  0.5813050000000  0.5406900000000  0.4634200000000 1.0
C      1  0.5713810000000  0.5678260000000  0.4601770000000 1.0
C      1  0.4784940000000  0.5239920000000  0.4488690000000 1.0
C      1  0.4832030000000  0.5201910000000  0.5999300000000 1.0
C      1  0.4450880000000  0.5172670000000  0.4107390000000 1.0
C      1  0.4366220000000  0.5044660000000  0.5282260000000 1.0
C      1  0.4286890000000  0.5447960000000  0.4556050000000 1.0
C      1  0.4543960000000  0.5235430000000  0.5281920000000 1.0
C      1  0.4504480000000  0.5973960000000  0.5070550000000 1.0
C      1  0.4422490000000  0.4558190000000  0.4241250000000 1.0
C      1  0.5479040000000  0.4741380000000  0.4889560000000 1.0
C      1  0.5018770000000  0.3984350000000  0.4753600000000 1.0
C      1  0.5535100000000  0.5287040000000  0.4704310000000 1.0
C      1  0.5268350000000  0.4556770000000  0.4830360000000 1.0
C      1  0.4448690000000  0.5519460000000  0.5418830000000 1.0
C      1  0.4816590000000  0.4749450000000  0.5396160000000 1.0
C      1  0.4868500000000  0.5463580000000  0.4076430000000 1.0
C      1  0.5486980000000  0.4171190000000  0.4722600000000 1.0
C      1  0.4909350000000  0.3954450000000  0.5177510000000 1.0
C      1  0.5834700000000  0.5620360000000  0.5410300000000 1.0
C      1  0.5069340000000  0.4528140000000  0.5035750000000 1.0
C      1  0.5508930000000  0.5075080000000  0.5779540000000 1.0
C      1  0.3894810000000  0.5040340000000  0.5335200000000 1.0
C      1  0.6031590000000  0.4761110000000  0.5458130000000 1.0
C      1  0.5184070000000  0.4509100000000  0.5748950000000 1.0
C      1  0.4157520000000  0.5460100000000  0.5458160000000 1.0
C      1  0.5168430000000  0.5091760000000  0.4748950000000 1.0
C      1  0.5289320000000  0.5060310000000  0.5973970000000 1.0
C      1  0.5317490000000  0.4818040000000  0.5365080000000 1.0
C      1  0.4935720000000  0.5218450000000  0.3922370000000 1.0
C      1  0.4202530000000  0.5407050000000  0.5744750000000 1.0
C      1  0.4930430000000  0.5632440000000  0.5281710000000 1.0
C      1  0.4434400000000  0.4098810000000  0.5304320000000 1.0
C      1  0.4124730000000  0.5141630000000  0.5882140000000 1.0
C      1  0.4459260000000  0.5351580000000  0.4764190000000 1.0
C      1  0.4758220000000  0.4361960000000  0.4651570000000 1.0
C      1  0.4474210000000  0.5809720000000  0.4816180000000 1.0
C      1  0.4261000000000  0.4898090000000  0.5805890000000 1.0
C      1  0.4721060000000  0.5454800000000  0.5905140000000 1.0
C      1  0.4929190000000  0.5204460000000  0.5551040000000 1.0
C      1  0.5071810000000  0.5481720000000  0.4819640000000 1.0
C      1  0.4959050000000  0.4152470000000  0.4549010000000 1.0
C      1  0.4782680000000  0.6094700000000  0.5095540000000 1.0
C      1  0.5490490000000  0.5142990000000  0.4451780000000 1.0
C      1  0.5677680000000  0.4695770000000  0.5078610000000 1.0
C      1  0.5144470000000  0.4262850000000  0.5592780000000 1.0
C      1  0.4102860000000  0.4658260000000  0.5026370000000 1.0
C      1  0.5117910000000  0.4849620000000  0.6075410000000 1.0
C      1  0.5503920000000  0.5903890000000  0.5381020000000 1.0
C      1  0.5730450000000  0.5803320000000  0.4861970000000 1.0
C      1  0.5802600000000  0.4532940000000  0.4638010000000 1.0
C      1  0.4816890000000  0.5893340000000  0.5332960000000 1.0
C      1  0.4599490000000  0.4455430000000  0.5177310000000 1.0
C      1  0.5910610000000  0.5043110000000  0.5470260000000 1.0
C      1  0.5585500000000  0.4940770000000  0.4104260000000 1.0
C      1  0.4594770000000  0.4857320000000  0.4802870000000 1.0
C      1  0.5443690000000  0.5556930000000  0.5122730000000 1.0
C      1  0.4926430000000  0.5654180000000  0.5792070000000 1.0
C      1  0.5436930000000  0.5724120000000  0.4481370000000 1.0
C      1  0.5190670000000  0.5737610000000  0.5839090000000 1.0
C      1  0.4922760000000  0.4806170000000  0.4196740000000 1.0
C      1  0.4831140000000  0.4370720000000  0.4090650000000 1.0
C      1  0.5762780000000  0.4965870000000  0.5178190000000 1.0
C      1  0.4537230000000  0.5820930000000  0.5312060000000 1.0
C      1  0.4336870000000  0.4513230000000  0.5645610000000 1.0
C      1  0.5594470000000  0.4309190000000  0.5365780000000 1.0
C      1  0.5507830000000  0.5483180000000  0.5796330000000 1.0
C      1  0.4639810000000  0.5390250000000  0.4265530000000 1.0
C      1  0.6028590000000  0.4726650000000  0.4711740000000 1.0
C      1  0.5407110000000  0.5028250000000  0.4898980000000 1.0
C      1  0.5533520000000  0.4392350000000  0.4248430000000 1.0
C      1  0.5474870000000  0.5760370000000  0.5830270000000 1.0
C      1  0.4364310000000  0.4322500000000  0.4410450000000 1.0
C      1  0.5378080000000  0.5858760000000  0.5139640000000 1.0
C      1  0.4919200000000  0.5503180000000  0.5531920000000 1.0
C      1  0.5444330000000  0.4857490000000  0.4371830000000 1.0
C      1  0.4571400000000  0.4602540000000  0.4666850000000 1.0
C      1  0.5978810000000  0.5370380000000  0.5100500000000 1.0
C      1  0.5985070000000  0.5023970000000  0.4697400000000 1.0
C      1  0.4591040000000  0.5547160000000  0.4895490000000 1.0
C      1  0.5776270000000  0.5613720000000  0.5104520000000 1.0
C      1  0.5060680000000  0.5323710000000  0.4576150000000 1.0
C      1  0.5700800000000  0.5159760000000  0.4261680000000 1.0
C      1  0.5331850000000  0.4183810000000  0.5375420000000 1.0
C      1  0.4535440000000  0.4158170000000  0.4572660000000 1.0
C      1  0.6079670000000  0.4656920000000  0.4972570000000 1.0
C      1  0.5960190000000  0.5360070000000  0.5387870000000 1.0
C      1  0.4261790000000  0.4483350000000  0.4651390000000 1.0
C      1  0.4335460000000  0.4144510000000  0.5025400000000 1.0
C      1  0.4798840000000  0.4432320000000  0.4975720000000 1.0
C      1  0.4142440000000  0.4838930000000  0.5298040000000 1.0
C      1  0.4583050000000  0.4596870000000  0.5790660000000 1.0
C      1  0.4857710000000  0.4236670000000  0.5553930000000 1.0
C      1  0.5760090000000  0.4953360000000  0.5712540000000 1.0
C      1  0.5351670000000  0.5299630000000  0.5323850000000 1.0
C      1  0.4788080000000  0.3928300000000  0.4915960000000 1.0
C      1  0.4602160000000  0.4896130000000  0.5799600000000 1.0
C      1  0.4976790000000  0.4198580000000  0.4150500000000 1.0
C      1  0.5466900000000  0.5292420000000  0.5606310000000 1.0
C      1  0.5075200000000  0.5240360000000  0.5967750000000 1.0
C      1  0.5151030000000  0.4116390000000  0.4359640000000 1.0
C      1  0.4678130000000  0.5111730000000  0.3960150000000 1.0
C      1  0.5061490000000  0.4953090000000  0.3985860000000 1.0
C      1  0.5347840000000  0.5468550000000  0.4863230000000 1.0
C      1  0.4720390000000  0.4047630000000  0.5374810000000 1.0
C      1  0.5410600000000  0.4571030000000  0.4056810000000 1.0
C      1  0.5454950000000  0.5042970000000  0.5206640000000 1.0
C      1  0.5644100000000  0.4609920000000  0.4406360000000 1.0
C      1  0.3961790000000  0.5328010000000  0.4954880000000 1.0
C      1  0.5228960000000  0.5543760000000  0.4391030000000 1.0
C      1  0.5846040000000  0.4676390000000  0.5665510000000 1.0
C      1  0.6040790000000  0.4576210000000  0.5227090000000 1.0
C      1  0.5134850000000  0.4754540000000  0.4380810000000 1.0
END
