TITL C-884138-6203-181 -3.46729863363373 125000 -8934.41035849708 0 0 61 (C1) n - 1
REM
REM in /home/nfs/bkarasulu/CARBON/AIRSS/Generating-Clusters/ReaxFF-fromJPCA2015/Units_Real/with-SteepDescent/Only-C1/SD-CG/Try1-3A/FIRE-CG
REM
REM
REM
REM
REM
REM ./C.cell (11c1c37f851c82e70ff6c80c92926a4b)
REM
REM compiler GCC version 9.2.1 20190827 (Red Hat 9.2.1-1)
REM options -cpp -mtune=generic -march=x86-64 -g -O0 -fpre-include=/usr/include/finclude/math-vector-fortran.h
REM seed 241320485 1112503652 2061284964 116091156 -724231290 -1887739666 789587843 554885354 -1750835191 -841360956 -905107798 1122325308 -153481830 -1793426746 1323096383 664967252 355426796 -120160927 2113677941 1095152719 1382662243 -1307551696 -700085075 405242385 -1597545164 -1075541976 -364639513 74427416 -327975081 1389277868 225848414 716576017 -1939464013
REM
CELL 1.54180   50.00000   50.00000   50.00000   90.00000   90.00000   90.00000
LATT -1
SFAC C  
C      1  0.4473960000000  0.5383310000000  0.4803840000000 1.0
C      1  0.4707810000000  0.5362870000000  0.4613960000000 1.0
C      1  0.5103620000000  0.4594990000000  0.4750830000000 1.0
C      1  0.5189130000000  0.5663260000000  0.4647010000000 1.0
C      1  0.4626020000000  0.5401930000000  0.5465670000000 1.0
C      1  0.4968550000000  0.5236400000000  0.4994590000000 1.0
C      1  0.5442740000000  0.5607350000000  0.5136090000000 1.0
C      1  0.4479490000000  0.5095970000000  0.4833540000000 1.0
C      1  0.5648430000000  0.5115180000000  0.5148260000000 1.0
C      1  0.5511000000000  0.4865300000000  0.4726940000000 1.0
C      1  0.4757630000000  0.4348060000000  0.4540740000000 1.0
C      1  0.5445830000000  0.4967230000000  0.4455620000000 1.0
C      1  0.5634590000000  0.5432740000000  0.4741870000000 1.0
C      1  0.5481750000000  0.4479380000000  0.5307820000000 1.0
C      1  0.5206730000000  0.4842590000000  0.4326000000000 1.0
C      1  0.4910130000000  0.4394030000000  0.5282590000000 1.0
C      1  0.4771490000000  0.4811330000000  0.5065590000000 1.0
C      1  0.5271200000000  0.5591380000000  0.5378340000000 1.0
C      1  0.5670750000000  0.4641290000000  0.5143290000000 1.0
C      1  0.4851070000000  0.5030110000000  0.5724810000000 1.0
C      1  0.4860560000000  0.5286550000000  0.5600590000000 1.0
C      1  0.4902390000000  0.5573540000000  0.4676490000000 1.0
C      1  0.4943050000000  0.5532140000000  0.4961840000000 1.0
C      1  0.4315970000000  0.4844360000000  0.4836630000000 1.0
C      1  0.5270240000000  0.4820000000000  0.4881540000000 1.0
C      1  0.4825140000000  0.4643100000000  0.4852130000000 1.0
C      1  0.4442060000000  0.5458220000000  0.5086490000000 1.0
C      1  0.4378200000000  0.4811440000000  0.4545110000000 1.0
C      1  0.5422860000000  0.5211500000000  0.5654710000000 1.0
C      1  0.5180900000000  0.4271610000000  0.4801790000000 1.0
C      1  0.4359290000000  0.4644470000000  0.5056500000000 1.0
C      1  0.5168230000000  0.5031310000000  0.5066790000000 1.0
C      1  0.4810480000000  0.4611010000000  0.5430710000000 1.0
C      1  0.4392980000000  0.5260170000000  0.5322010000000 1.0
C      1  0.5414760000000  0.5484250000000  0.4542190000000 1.0
C      1  0.4903690000000  0.4220240000000  0.4787850000000 1.0
C      1  0.4554300000000  0.4743330000000  0.5267410000000 1.0
C      1  0.4789630000000  0.5121570000000  0.4455640000000 1.0
C      1  0.5061710000000  0.5105190000000  0.4349310000000 1.0
C      1  0.4862950000000  0.5730870000000  0.5166420000000 1.0
C      1  0.4758540000000  0.4284070000000  0.5053370000000 1.0
C      1  0.5002360000000  0.4811860000000  0.5549170000000 1.0
C      1  0.5627030000000  0.5382760000000  0.5035820000000 1.0
C      1  0.4741570000000  0.5069770000000  0.4952190000000 1.0
C      1  0.5206350000000  0.5012380000000  0.5357790000000 1.0
C      1  0.5070080000000  0.5808160000000  0.5375460000000 1.0
C      1  0.4488730000000  0.4388320000000  0.4994390000000 1.0
C      1  0.5184210000000  0.5319510000000  0.5518790000000 1.0
C      1  0.5683560000000  0.4886570000000  0.4970950000000 1.0
C      1  0.5333730000000  0.5694760000000  0.4891650000000 1.0
C      1  0.4612640000000  0.5616210000000  0.5264190000000 1.0
C      1  0.5073670000000  0.4609610000000  0.4435660000000 1.0
C      1  0.4603130000000  0.4488450000000  0.4742370000000 1.0
C      1  0.4793020000000  0.4593040000000  0.4384820000000 1.0
C      1  0.5610760000000  0.4715370000000  0.5412070000000 1.0
C      1  0.4645810000000  0.4859480000000  0.4426030000000 1.0
C      1  0.5518610000000  0.5012530000000  0.5408640000000 1.0
C      1  0.5323700000000  0.5234170000000  0.4414210000000 1.0
C      1  0.5199940000000  0.4413050000000  0.5404560000000 1.0
C      1  0.4347970000000  0.4977230000000  0.5320420000000 1.0
C      1  0.5163260000000  0.4553130000000  0.5657900000000 1.0
END
