TITL C-883728-9229-269 -9.70968152531685 125000 -8139.51590404753 0 0 56 (C1) n - 1
REM
REM in /home/nfs/bkarasulu/CARBON/AIRSS/Generating-Clusters/ReaxFF-fromJPCA2015/Units_Real/with-SteepDescent/Only-C1/SD-CG/Try1-3A/FIRE-CG
REM
REM
REM
REM
REM
REM ./C.cell (11c1c37f851c82e70ff6c80c92926a4b)
REM
REM compiler GCC version 9.2.1 20190827 (Red Hat 9.2.1-1)
REM options -cpp -mtune=generic -march=x86-64 -g -O0 -fpre-include=/usr/include/finclude/math-vector-fortran.h
REM seed -963344987 1991485410 139883567 1210327380 -277375558 -1216810533 -837497580 -2032437779 -307740484 -1395557551 1917312510 -1430971489 2145754283 -274813826 389489864 386237094 1962390000 442900714 453354274 1853183450 -1811381425 220823465 -1196483156 558763118 1801475740 1281679361 -801952210 -2082836551 1571575905 2034337484 -1504582644 1224393561 -945396236
REM
CELL 1.54180   50.00000   50.00000   50.00000   90.00000   90.00000   90.00000
LATT -1
SFAC C  
C      1  0.4739150000000  0.5304350000000  0.5155300000000 1.0
C      1  0.4337460000000  0.5296850000000  0.5341870000000 1.0
C      1  0.5633590000000  0.4924010000000  0.5276940000000 1.0
C      1  0.5490400000000  0.5036950000000  0.5512810000000 1.0
C      1  0.5008030000000  0.4471710000000  0.4505420000000 1.0
C      1  0.5065320000000  0.5462550000000  0.4516480000000 1.0
C      1  0.4282250000000  0.5297680000000  0.4928150000000 1.0
C      1  0.5472810000000  0.4660750000000  0.4662090000000 1.0
C      1  0.4791260000000  0.4757540000000  0.5592260000000 1.0
C      1  0.5398440000000  0.4329880000000  0.4986200000000 1.0
C      1  0.4904160000000  0.4250090000000  0.5024430000000 1.0
C      1  0.4786270000000  0.4375310000000  0.5250420000000 1.0
C      1  0.5151470000000  0.4263290000000  0.4605290000000 1.0
C      1  0.5565540000000  0.4643660000000  0.5194670000000 1.0
C      1  0.4646830000000  0.5478570000000  0.4976220000000 1.0
C      1  0.4545400000000  0.4868830000000  0.5476950000000 1.0
C      1  0.4960420000000  0.5711510000000  0.4923070000000 1.0
C      1  0.4956720000000  0.4926520000000  0.4599490000000 1.0
C      1  0.5150880000000  0.5009800000000  0.4796580000000 1.0
C      1  0.5241130000000  0.5041460000000  0.5654680000000 1.0
C      1  0.4868550000000  0.5593090000000  0.4656170000000 1.0
C      1  0.4520600000000  0.4908750000000  0.5186330000000 1.0
C      1  0.4693880000000  0.5752130000000  0.5003420000000 1.0
C      1  0.4413630000000  0.5246280000000  0.4669120000000 1.0
C      1  0.5422530000000  0.4948060000000  0.4685930000000 1.0
C      1  0.4410990000000  0.4961220000000  0.4589730000000 1.0
C      1  0.4976220000000  0.5086450000000  0.4352090000000 1.0
C      1  0.4759720000000  0.5041060000000  0.5083790000000 1.0
C      1  0.4783260000000  0.5221500000000  0.5603610000000 1.0
C      1  0.5575700000000  0.4537080000000  0.4916050000000 1.0
C      1  0.4294960000000  0.5092160000000  0.5139690000000 1.0
C      1  0.5157910000000  0.5346140000000  0.5275590000000 1.0
C      1  0.5180110000000  0.4445160000000  0.5545850000000 1.0
C      1  0.5051640000000  0.4995250000000  0.5079330000000 1.0
C      1  0.5470620000000  0.5170370000000  0.4487930000000 1.0
C      1  0.4888480000000  0.4484320000000  0.5511910000000 1.0
C      1  0.5200590000000  0.5569400000000  0.5081800000000 1.0
C      1  0.4831380000000  0.4653900000000  0.4648070000000 1.0
C      1  0.5608690000000  0.5321830000000  0.4676920000000 1.0
C      1  0.4853070000000  0.4548010000000  0.5006590000000 1.0
C      1  0.4887090000000  0.5374370000000  0.5379060000000 1.0
C      1  0.5290220000000  0.4493550000000  0.4506850000000 1.0
C      1  0.5710540000000  0.5378130000000  0.4935830000000 1.0
C      1  0.5073220000000  0.4709240000000  0.5128730000000 1.0
C      1  0.5730400000000  0.5134760000000  0.5102090000000 1.0
C      1  0.4633820000000  0.5404540000000  0.4543170000000 1.0
C      1  0.4505450000000  0.5153500000000  0.5540830000000 1.0
C      1  0.4951970000000  0.4988900000000  0.5662310000000 1.0
C      1  0.4543050000000  0.4703950000000  0.4555780000000 1.0
C      1  0.5289000000000  0.4583150000000  0.5293330000000 1.0
C      1  0.5169050000000  0.4191360000000  0.4893900000000 1.0
C      1  0.5208670000000  0.5274070000000  0.4373300000000 1.0
C      1  0.4396160000000  0.5498370000000  0.5120220000000 1.0
C      1  0.4722060000000  0.5253010000000  0.4307690000000 1.0
C      1  0.5471250000000  0.5571210000000  0.4985680000000 1.0
C      1  0.5327980000000  0.5254430000000  0.5491980000000 1.0
END
