TITL C-884136-4169-454 8.8089823186257 125000 -22865.0158327803 0 0 151 (C1) n - 1
REM
REM in /home/nfs/bkarasulu/CARBON/AIRSS/Generating-Clusters/ReaxFF-fromJPCA2015/Units_Real/with-SteepDescent/Only-C1/SD-CG/Try1-3A/FIRE-CG
REM
REM
REM
REM
REM
REM ./C.cell (11c1c37f851c82e70ff6c80c92926a4b)
REM
REM compiler GCC version 9.2.1 20190827 (Red Hat 9.2.1-1)
REM options -cpp -mtune=generic -march=x86-64 -g -O0 -fpre-include=/usr/include/finclude/math-vector-fortran.h
REM seed -883354552 -401254519 -426153443 -2088105340 -1341056904 -1868129284 -865173785 -853925719 2137354650 778526578 1917226764 1286486795 -1363917395 1496819541 1011499998 -2118086048 1925164495 -1401924755 -767392060 -240820253 -1398128786 -1725607945 -1633369965 720351874 -1419804426 1950256198 -891865714 1502103405 -1634376078 2075849692 8321157 -1313016235 -1590539062
REM
CELL 1.54180   50.00000   50.00000   50.00000   90.00000   90.00000   90.00000
LATT -1
SFAC C  
C      1  0.5462930000000  0.5660800000000  0.4748240000000 1.0
C      1  0.4460490000000  0.4876070000000  0.5848970000000 1.0
C      1  0.4539850000000  0.5832650000000  0.4856410000000 1.0
C      1  0.5224510000000  0.5350480000000  0.5936640000000 1.0
C      1  0.5408460000000  0.5635320000000  0.4459920000000 1.0
C      1  0.4457440000000  0.5470260000000  0.5647200000000 1.0
C      1  0.4533010000000  0.4086670000000  0.4711170000000 1.0
C      1  0.5887580000000  0.5654220000000  0.4931640000000 1.0
C      1  0.4755400000000  0.5212970000000  0.4359550000000 1.0
C      1  0.4499970000000  0.5032660000000  0.4062620000000 1.0
C      1  0.4868340000000  0.5203820000000  0.5534970000000 1.0
C      1  0.4427230000000  0.5582270000000  0.4961950000000 1.0
C      1  0.5077440000000  0.5314780000000  0.3988280000000 1.0
C      1  0.4645050000000  0.5081980000000  0.5419110000000 1.0
C      1  0.4423940000000  0.5492190000000  0.5355330000000 1.0
C      1  0.4746680000000  0.5657560000000  0.4092810000000 1.0
C      1  0.5611300000000  0.4324970000000  0.4991950000000 1.0
C      1  0.4588630000000  0.4810030000000  0.4635860000000 1.0
C      1  0.5376510000000  0.3984840000000  0.5251550000000 1.0
C      1  0.5010060000000  0.5694990000000  0.4710120000000 1.0
C      1  0.5435400000000  0.5081620000000  0.4723750000000 1.0
C      1  0.4717900000000  0.4194060000000  0.4516690000000 1.0
C      1  0.4227650000000  0.4467700000000  0.4544020000000 1.0
C      1  0.4083240000000  0.5245900000000  0.5273660000000 1.0
C      1  0.4958560000000  0.5190300000000  0.4575920000000 1.0
C      1  0.4855480000000  0.3944100000000  0.5150310000000 1.0
C      1  0.5435290000000  0.5230070000000  0.4955730000000 1.0
C      1  0.5223930000000  0.5563950000000  0.4017280000000 1.0
C      1  0.5419080000000  0.4258160000000  0.5759380000000 1.0
C      1  0.5138980000000  0.3895430000000  0.5092340000000 1.0
C      1  0.5977880000000  0.5448420000000  0.5120060000000 1.0
C      1  0.4512170000000  0.5144880000000  0.5969640000000 1.0
C      1  0.4053410000000  0.5175100000000  0.4602000000000 1.0
C      1  0.5704510000000  0.5894480000000  0.5031910000000 1.0
C      1  0.5186110000000  0.4387060000000  0.4162040000000 1.0
C      1  0.5462720000000  0.4121220000000  0.4571070000000 1.0
C      1  0.5534520000000  0.5570180000000  0.5275310000000 1.0
C      1  0.5899580000000  0.4951250000000  0.4940450000000 1.0
C      1  0.5450150000000  0.5533040000000  0.4200160000000 1.0
C      1  0.5006280000000  0.5935200000000  0.4821370000000 1.0
C      1  0.4718450000000  0.5524160000000  0.5774490000000 1.0
C      1  0.5893030000000  0.4693030000000  0.5059810000000 1.0
C      1  0.5814220000000  0.5542500000000  0.5345350000000 1.0
C      1  0.4396210000000  0.5205020000000  0.5261990000000 1.0
C      1  0.5860730000000  0.5438710000000  0.5615860000000 1.0
C      1  0.5599330000000  0.5303110000000  0.4135830000000 1.0
C      1  0.5446760000000  0.5987370000000  0.5156340000000 1.0
C      1  0.4982620000000  0.4519860000000  0.5942590000000 1.0
C      1  0.5351950000000  0.4715560000000  0.5924990000000 1.0
C      1  0.4568730000000  0.5374240000000  0.4769060000000 1.0
C      1  0.5527400000000  0.3929330000000  0.4787510000000 1.0
C      1  0.4961140000000  0.6094030000000  0.5050100000000 1.0
C      1  0.4516420000000  0.5062840000000  0.4779120000000 1.0
C      1  0.4448340000000  0.5161010000000  0.4308330000000 1.0
C      1  0.5558080000000  0.4389330000000  0.4479730000000 1.0
C      1  0.5691620000000  0.4580700000000  0.5534340000000 1.0
C      1  0.4270390000000  0.4217780000000  0.4676880000000 1.0
C      1  0.5470640000000  0.5048080000000  0.4088480000000 1.0
C      1  0.5138150000000  0.4711840000000  0.4543460000000 1.0
C      1  0.5003910000000  0.4324000000000  0.5241160000000 1.0
C      1  0.5870090000000  0.5258840000000  0.4554520000000 1.0
C      1  0.4602970000000  0.4765770000000  0.5130490000000 1.0
C      1  0.5227730000000  0.5200890000000  0.5102760000000 1.0
C      1  0.5188790000000  0.5013910000000  0.4598070000000 1.0
C      1  0.5200260000000  0.5569710000000  0.5721230000000 1.0
C      1  0.5455060000000  0.5503300000000  0.4993570000000 1.0
C      1  0.4952660000000  0.4745400000000  0.4332740000000 1.0
C      1  0.5433810000000  0.5610520000000  0.5545230000000 1.0
C      1  0.3922520000000  0.5112860000000  0.4857190000000 1.0
C      1  0.5770190000000  0.4523520000000  0.4598960000000 1.0
C      1  0.5392740000000  0.4952440000000  0.5505930000000 1.0
C      1  0.3981010000000  0.5349180000000  0.5026590000000 1.0
C      1  0.4710880000000  0.5842440000000  0.4324630000000 1.0
C      1  0.4979570000000  0.4855180000000  0.4078310000000 1.0
C      1  0.4432530000000  0.5507180000000  0.4527590000000 1.0
C      1  0.4671990000000  0.6012280000000  0.5056070000000 1.0
C      1  0.5182510000000  0.4337210000000  0.5884140000000 1.0
C      1  0.4985220000000  0.5322320000000  0.5058060000000 1.0
C      1  0.4676130000000  0.4263070000000  0.5575360000000 1.0
C      1  0.4960140000000  0.4538440000000  0.4780820000000 1.0
C      1  0.5506630000000  0.4427150000000  0.5373840000000 1.0
C      1  0.4708710000000  0.5891960000000  0.5322880000000 1.0
C      1  0.5581230000000  0.5071570000000  0.5700270000000 1.0
C      1  0.5419100000000  0.4167540000000  0.5476690000000 1.0
C      1  0.4963740000000  0.4267390000000  0.4660490000000 1.0
C      1  0.4687210000000  0.4827890000000  0.4041700000000 1.0
C      1  0.5502990000000  0.5282490000000  0.5887680000000 1.0
C      1  0.4222740000000  0.4976050000000  0.5714270000000 1.0
C      1  0.4153600000000  0.5452040000000  0.4607240000000 1.0
C      1  0.5174940000000  0.5792910000000  0.4479060000000 1.0
C      1  0.5717190000000  0.4772790000000  0.4488110000000 1.0
C      1  0.4747040000000  0.4464260000000  0.5773900000000 1.0
C      1  0.4218570000000  0.5001920000000  0.4441420000000 1.0
C      1  0.4306770000000  0.5258300000000  0.5790810000000 1.0
C      1  0.4015760000000  0.4619020000000  0.5077160000000 1.0
C      1  0.4973000000000  0.5894280000000  0.5451700000000 1.0
C      1  0.5130660000000  0.4524540000000  0.5079040000000 1.0
C      1  0.4474520000000  0.5019070000000  0.5043240000000 1.0
C      1  0.4683750000000  0.5599470000000  0.5298430000000 1.0
C      1  0.5872560000000  0.4725970000000  0.5357110000000 1.0
C      1  0.5959000000000  0.5002150000000  0.5388720000000 1.0
C      1  0.4145330000000  0.5545800000000  0.4882490000000 1.0
C      1  0.4884430000000  0.4134960000000  0.5393960000000 1.0
C      1  0.4004220000000  0.4593630000000  0.5378220000000 1.0
C      1  0.5018990000000  0.5169460000000  0.6018990000000 1.0
C      1  0.5694390000000  0.4918460000000  0.4234740000000 1.0
C      1  0.5097040000000  0.4840500000000  0.5982340000000 1.0
C      1  0.4017700000000  0.4846440000000  0.5533260000000 1.0
C      1  0.4767790000000  0.4829070000000  0.5355250000000 1.0
C      1  0.5978070000000  0.5146360000000  0.5130720000000 1.0
C      1  0.5015560000000  0.5771700000000  0.4037760000000 1.0
C      1  0.3920530000000  0.5014880000000  0.5310350000000 1.0
C      1  0.4819250000000  0.5369990000000  0.4119320000000 1.0
C      1  0.4896580000000  0.5399910000000  0.5316200000000 1.0
C      1  0.5188760000000  0.5047490000000  0.4016600000000 1.0
C      1  0.4216010000000  0.4719150000000  0.4473710000000 1.0
C      1  0.5886280000000  0.5479730000000  0.4716980000000 1.0
C      1  0.5484290000000  0.5933770000000  0.4863020000000 1.0
C      1  0.4675790000000  0.4680700000000  0.4331040000000 1.0
C      1  0.5294870000000  0.4981130000000  0.5230940000000 1.0
C      1  0.4674630000000  0.4627890000000  0.4839710000000 1.0
C      1  0.5722230000000  0.5001030000000  0.4682800000000 1.0
C      1  0.4898150000000  0.4318390000000  0.4095840000000 1.0
C      1  0.5853570000000  0.5145720000000  0.5619210000000 1.0
C      1  0.4401500000000  0.4126830000000  0.5145760000000 1.0
C      1  0.4765020000000  0.5299160000000  0.5968580000000 1.0
C      1  0.4427930000000  0.4557710000000  0.5242150000000 1.0
C      1  0.4298710000000  0.4551550000000  0.4985810000000 1.0
C      1  0.5323540000000  0.4530670000000  0.4371500000000 1.0
C      1  0.4545120000000  0.5778740000000  0.4561880000000 1.0
C      1  0.5542980000000  0.4537150000000  0.5798040000000 1.0
C      1  0.5577730000000  0.4049820000000  0.5050370000000 1.0
C      1  0.4684070000000  0.4743680000000  0.5690320000000 1.0
C      1  0.4612440000000  0.4005550000000  0.4988240000000 1.0
C      1  0.3897380000000  0.4890370000000  0.5041780000000 1.0
C      1  0.5240440000000  0.3861960000000  0.4817660000000 1.0
C      1  0.5176040000000  0.4068070000000  0.4610230000000 1.0
C      1  0.4947960000000  0.5687600000000  0.5664980000000 1.0
C      1  0.4950800000000  0.4918700000000  0.5704540000000 1.0
C      1  0.5160850000000  0.4784610000000  0.5555650000000 1.0
C      1  0.4468270000000  0.4306440000000  0.5374690000000 1.0
C      1  0.5430290000000  0.4494090000000  0.5101430000000 1.0
C      1  0.5821630000000  0.4473590000000  0.4876540000000 1.0
C      1  0.5066360000000  0.4794880000000  0.5278800000000 1.0
C      1  0.4991350000000  0.5929170000000  0.4284480000000 1.0
C      1  0.4685990000000  0.4382570000000  0.4289990000000 1.0
C      1  0.5810810000000  0.5186340000000  0.4279170000000 1.0
C      1  0.4215770000000  0.4267160000000  0.4963980000000 1.0
C      1  0.5619930000000  0.5523430000000  0.5757610000000 1.0
C      1  0.5164360000000  0.5996340000000  0.5253630000000 1.0
C      1  0.4896030000000  0.5400260000000  0.4789930000000 1.0
END
