TITL C-884134-5972-153 -4.08482087819973 125000 -11671.0391471938 0 0 79 (C1) n - 1
REM
REM in /home/nfs/bkarasulu/CARBON/AIRSS/Generating-Clusters/ReaxFF-fromJPCA2015/Units_Real/with-SteepDescent/Only-C1/SD-CG/Try1-3A/FIRE-CG
REM
REM
REM
REM
REM
REM ./C.cell (11c1c37f851c82e70ff6c80c92926a4b)
REM
REM compiler GCC version 9.2.1 20190827 (Red Hat 9.2.1-1)
REM options -cpp -mtune=generic -march=x86-64 -g -O0 -fpre-include=/usr/include/finclude/math-vector-fortran.h
REM seed 295039371 1222201003 -1885236320 -1816680928 519979573 397849059 519912156 -1763338427 392090023 -1301662050 -1681982541 -1693734474 1147765391 -304734710 1871031160 -835975252 -347110284 -542651474 632919578 1326158652 -1001825855 -1416266194 -454924011 -335462079 510423131 -1526562511 93238713 -1574941655 1030065786 1237360648 817961232 -53181538 -561216785
REM
CELL 1.54180   50.00000   50.00000   50.00000   90.00000   90.00000   90.00000
LATT -1
SFAC C  
C      1  0.5866290000000  0.5268520000000  0.4989970000000 1.0
C      1  0.4691350000000  0.5239430000000  0.5586760000000 1.0
C      1  0.5909190000000  0.4779270000000  0.5091080000000 1.0
C      1  0.5404360000000  0.5026390000000  0.5126910000000 1.0
C      1  0.5252580000000  0.4518860000000  0.4408730000000 1.0
C      1  0.5149210000000  0.5725280000000  0.5489820000000 1.0
C      1  0.5436220000000  0.4469810000000  0.5007980000000 1.0
C      1  0.5739390000000  0.4886440000000  0.5546050000000 1.0
C      1  0.5229770000000  0.4968160000000  0.4899700000000 1.0
C      1  0.4652360000000  0.4339720000000  0.5030510000000 1.0
C      1  0.5380740000000  0.5544580000000  0.5490450000000 1.0
C      1  0.5083940000000  0.4726910000000  0.4879860000000 1.0
C      1  0.4849840000000  0.4850860000000  0.4769710000000 1.0
C      1  0.5083470000000  0.4987390000000  0.5942120000000 1.0
C      1  0.4936380000000  0.5327990000000  0.5472100000000 1.0
C      1  0.4939370000000  0.4506480000000  0.5355560000000 1.0
C      1  0.4936800000000  0.5062150000000  0.3931190000000 1.0
C      1  0.4444000000000  0.4985450000000  0.4389360000000 1.0
C      1  0.5371600000000  0.5502260000000  0.4944530000000 1.0
C      1  0.4545980000000  0.5440880000000  0.5468710000000 1.0
C      1  0.4367510000000  0.4634490000000  0.4776500000000 1.0
C      1  0.4679840000000  0.4600370000000  0.5444050000000 1.0
C      1  0.5293060000000  0.4572050000000  0.5717090000000 1.0
C      1  0.4455890000000  0.5549990000000  0.5073010000000 1.0
C      1  0.5760400000000  0.4852030000000  0.4852380000000 1.0
C      1  0.4970710000000  0.5708470000000  0.4783070000000 1.0
C      1  0.4564370000000  0.4422080000000  0.4758110000000 1.0
C      1  0.4669870000000  0.5471370000000  0.4431920000000 1.0
C      1  0.4385690000000  0.4903280000000  0.5122310000000 1.0
C      1  0.5061450000000  0.4399510000000  0.4592880000000 1.0
C      1  0.4633040000000  0.4845690000000  0.5630570000000 1.0
C      1  0.4776400000000  0.4429180000000  0.4550840000000 1.0
C      1  0.5344980000000  0.5206090000000  0.4476730000000 1.0
C      1  0.4810390000000  0.5091810000000  0.5147980000000 1.0
C      1  0.4949240000000  0.5593450000000  0.5294590000000 1.0
C      1  0.5032020000000  0.5309490000000  0.4049760000000 1.0
C      1  0.4659060000000  0.4838750000000  0.4294890000000 1.0
C      1  0.5473190000000  0.4672610000000  0.4537370000000 1.0
C      1  0.4905280000000  0.5469600000000  0.4259530000000 1.0
C      1  0.4991400000000  0.5087420000000  0.5364100000000 1.0
C      1  0.5463610000000  0.5013710000000  0.5636470000000 1.0
C      1  0.4635580000000  0.5631670000000  0.5290160000000 1.0
C      1  0.5576940000000  0.4624740000000  0.4807770000000 1.0
C      1  0.4464700000000  0.5266190000000  0.4484450000000 1.0
C      1  0.4837190000000  0.4926900000000  0.5801250000000 1.0
C      1  0.4280090000000  0.5322320000000  0.4991520000000 1.0
C      1  0.5146780000000  0.4441550000000  0.4906930000000 1.0
C      1  0.5248090000000  0.4957120000000  0.5371470000000 1.0
C      1  0.4328700000000  0.4897360000000  0.4643180000000 1.0
C      1  0.5466510000000  0.5312740000000  0.4721520000000 1.0
C      1  0.5714970000000  0.5156560000000  0.4764560000000 1.0
C      1  0.5460800000000  0.4368710000000  0.5612200000000 1.0
C      1  0.5010070000000  0.5112470000000  0.4766700000000 1.0
C      1  0.5384880000000  0.4920280000000  0.4391680000000 1.0
C      1  0.5486560000000  0.4511380000000  0.5291070000000 1.0
C      1  0.5032010000000  0.4804660000000  0.3999230000000 1.0
C      1  0.4323110000000  0.4962250000000  0.5680170000000 1.0
C      1  0.4806040000000  0.4714950000000  0.4499520000000 1.0
C      1  0.4326400000000  0.5185350000000  0.4733110000000 1.0
C      1  0.5212540000000  0.4636510000000  0.5412420000000 1.0
C      1  0.4507980000000  0.4482810000000  0.5241950000000 1.0
C      1  0.4218300000000  0.5063710000000  0.5451330000000 1.0
C      1  0.5323390000000  0.4841050000000  0.5844090000000 1.0
C      1  0.5400500000000  0.5321260000000  0.5699220000000 1.0
C      1  0.4927550000000  0.4357690000000  0.5112670000000 1.0
C      1  0.5740110000000  0.4696020000000  0.5335730000000 1.0
C      1  0.4762630000000  0.4866940000000  0.4042160000000 1.0
C      1  0.4637020000000  0.5474910000000  0.4850500000000 1.0
C      1  0.4195570000000  0.5115510000000  0.5181120000000 1.0
C      1  0.4650110000000  0.4889080000000  0.5029550000000 1.0
C      1  0.5216670000000  0.4754480000000  0.4217520000000 1.0
C      1  0.5185540000000  0.5371420000000  0.4292070000000 1.0
C      1  0.4323670000000  0.4641940000000  0.5069970000000 1.0
C      1  0.5120610000000  0.5634470000000  0.5003480000000 1.0
C      1  0.4852010000000  0.5286100000000  0.4930840000000 1.0
C      1  0.4727620000000  0.5671280000000  0.4643590000000 1.0
C      1  0.5485670000000  0.5486430000000  0.5212210000000 1.0
C      1  0.5214970000000  0.5237370000000  0.5881480000000 1.0
C      1  0.5617870000000  0.5225560000000  0.5176410000000 1.0
END
