TITL C-883732-77-122 -1.99358837299065 125000 -4387.51134740538 0 0 31 (C1) n - 1
REM
REM in /home/nfs/bkarasulu/CARBON/AIRSS/Generating-Clusters/ReaxFF-fromJPCA2015/Units_Real/with-SteepDescent/Only-C1/SD-CG/Try1-3A/FIRE-CG
REM
REM
REM
REM
REM
REM ./C.cell (11c1c37f851c82e70ff6c80c92926a4b)
REM
REM compiler GCC version 9.2.1 20190827 (Red Hat 9.2.1-1)
REM options -cpp -mtune=generic -march=x86-64 -g -O0 -fpre-include=/usr/include/finclude/math-vector-fortran.h
REM seed 1721678645 -459157256 1209564526 1105252034 -1204109412 -1558481313 737960834 -1854105322 1397560077 -487200182 1085863322 821140311 -1253057784 475868836 60450156 1015219607 672096819 -225243479 993230015 -972209305 179549804 -1992008149 1357794271 1077541905 -1121163251 1228360972 -1249252239 -1425635121 801081526 1967416353 682423523 -978683649 1720018972
REM
CELL 1.54180   50.00000   50.00000   50.00000   90.00000   90.00000   90.00000
LATT -1
SFAC C  
C      1  0.5535560000000  0.4925990000000  0.5049550000000 1.0
C      1  0.4332050000000  0.5288810000000  0.5185920000000 1.0
C      1  0.4720730000000  0.4742700000000  0.4634890000000 1.0
C      1  0.5797070000000  0.4940410000000  0.5033760000000 1.0
C      1  0.5447630000000  0.4591710000000  0.4544090000000 1.0
C      1  0.5160390000000  0.4585980000000  0.4989290000000 1.0
C      1  0.5345730000000  0.4711680000000  0.5437880000000 1.0
C      1  0.4709510000000  0.4986950000000  0.5353010000000 1.0
C      1  0.5473640000000  0.4853780000000  0.5629890000000 1.0
C      1  0.5389350000000  0.4676320000000  0.5138570000000 1.0
C      1  0.4410950000000  0.4790860000000  0.5036310000000 1.0
C      1  0.5412460000000  0.4807570000000  0.4330710000000 1.0
C      1  0.4537360000000  0.5335860000000  0.5005750000000 1.0
C      1  0.4657220000000  0.4669620000000  0.4921760000000 1.0
C      1  0.5154830000000  0.4941560000000  0.4389780000000 1.0
C      1  0.4354710000000  0.5536780000000  0.5370180000000 1.0
C      1  0.5087130000000  0.4878940000000  0.5488260000000 1.0
C      1  0.5090830000000  0.5249170000000  0.5107940000000 1.0
C      1  0.4892250000000  0.4619050000000  0.5102290000000 1.0
C      1  0.5170650000000  0.5221630000000  0.4500400000000 1.0
C      1  0.4954240000000  0.5360010000000  0.4636030000000 1.0
C      1  0.4977620000000  0.5122970000000  0.5352690000000 1.0
C      1  0.4432120000000  0.5012140000000  0.5239070000000 1.0
C      1  0.4671310000000  0.5525640000000  0.5017870000000 1.0
C      1  0.4995380000000  0.4733070000000  0.4530120000000 1.0
C      1  0.4926030000000  0.5429390000000  0.4932090000000 1.0
C      1  0.5191870000000  0.4582070000000  0.4693760000000 1.0
C      1  0.4854530000000  0.4727730000000  0.5374380000000 1.0
C      1  0.4584070000000  0.5688220000000  0.5274180000000 1.0
C      1  0.5344110000000  0.5186150000000  0.4985820000000 1.0
C      1  0.5388650000000  0.5277240000000  0.4713770000000 1.0
END
