TITL C-884136-4169-308 8.04721663393618 125000 -17823.3828235616 0 0 118 (C1) n - 1
REM
REM in /home/nfs/bkarasulu/CARBON/AIRSS/Generating-Clusters/ReaxFF-fromJPCA2015/Units_Real/with-SteepDescent/Only-C1/SD-CG/Try1-3A/FIRE-CG
REM
REM
REM
REM
REM
REM ./C.cell (11c1c37f851c82e70ff6c80c92926a4b)
REM
REM compiler GCC version 9.2.1 20190827 (Red Hat 9.2.1-1)
REM options -cpp -mtune=generic -march=x86-64 -g -O0 -fpre-include=/usr/include/finclude/math-vector-fortran.h
REM seed -1563528012 101228779 -1556517449 -1213686051 69429153 467799204 979015715 1711437426 1730391542 -551894730 -652084406 1197198107 1260523375 1596146178 -1366875867 -1946914390 -429564311 25120502 784268335 1258306819 -1555011098 110309574 -761294992 419980822 -1328864573 1662293572 -190588329 -483994218 -1009082706 1722424400 1808169176 -40300659 -1598540955
REM
CELL 1.54180   50.00000   50.00000   50.00000   90.00000   90.00000   90.00000
LATT -1
SFAC C  
C      1  0.4939880000000  0.4600840000000  0.4985230000000 1.0
C      1  0.4621040000000  0.5498190000000  0.5458820000000 1.0
C      1  0.5444660000000  0.5918220000000  0.5087350000000 1.0
C      1  0.4691830000000  0.4255800000000  0.5524680000000 1.0
C      1  0.5630260000000  0.4572100000000  0.5040100000000 1.0
C      1  0.4651460000000  0.5536840000000  0.4523360000000 1.0
C      1  0.4316160000000  0.5466600000000  0.4872140000000 1.0
C      1  0.5093190000000  0.5942940000000  0.4831090000000 1.0
C      1  0.4521920000000  0.5306120000000  0.5263990000000 1.0
C      1  0.4284840000000  0.5391670000000  0.5139270000000 1.0
C      1  0.5178120000000  0.5668270000000  0.5660860000000 1.0
C      1  0.5879380000000  0.4999120000000  0.5510770000000 1.0
C      1  0.5539260000000  0.5069850000000  0.4237620000000 1.0
C      1  0.5375760000000  0.5310480000000  0.5408040000000 1.0
C      1  0.5006640000000  0.4816190000000  0.5839590000000 1.0
C      1  0.4955330000000  0.5067030000000  0.4221700000000 1.0
C      1  0.4675020000000  0.5137060000000  0.4180660000000 1.0
C      1  0.4262680000000  0.4718930000000  0.5310350000000 1.0
C      1  0.4889200000000  0.4148500000000  0.4751880000000 1.0
C      1  0.5229820000000  0.5089110000000  0.5483260000000 1.0
C      1  0.5884730000000  0.4606440000000  0.5054450000000 1.0
C      1  0.5345670000000  0.5331030000000  0.5117820000000 1.0
C      1  0.5102190000000  0.4566140000000  0.5715350000000 1.0
C      1  0.4237110000000  0.4427570000000  0.5383520000000 1.0
C      1  0.5353110000000  0.5581000000000  0.4706620000000 1.0
C      1  0.5914340000000  0.5039360000000  0.4574440000000 1.0
C      1  0.5078620000000  0.5653620000000  0.4781160000000 1.0
C      1  0.5020110000000  0.5102350000000  0.4511070000000 1.0
C      1  0.4602760000000  0.5028830000000  0.5259960000000 1.0
C      1  0.4758030000000  0.4974360000000  0.5914080000000 1.0
C      1  0.4916460000000  0.5472030000000  0.4966490000000 1.0
C      1  0.4982750000000  0.4749460000000  0.5351290000000 1.0
C      1  0.5103720000000  0.4451080000000  0.4361120000000 1.0
C      1  0.4671560000000  0.5751260000000  0.5315260000000 1.0
C      1  0.4530450000000  0.5318940000000  0.4360880000000 1.0
C      1  0.4587600000000  0.4460390000000  0.4371470000000 1.0
C      1  0.5436320000000  0.4481330000000  0.5316230000000 1.0
C      1  0.4962690000000  0.4330840000000  0.5622700000000 1.0
C      1  0.4069140000000  0.4538790000000  0.4908790000000 1.0
C      1  0.5297980000000  0.4274640000000  0.4503790000000 1.0
C      1  0.4139180000000  0.5150540000000  0.5536370000000 1.0
C      1  0.5807570000000  0.5479850000000  0.5214780000000 1.0
C      1  0.5234570000000  0.5026560000000  0.4697390000000 1.0
C      1  0.5161190000000  0.5047080000000  0.5761790000000 1.0
C      1  0.5630030000000  0.5467100000000  0.4751240000000 1.0
C      1  0.5380380000000  0.4613320000000  0.5576450000000 1.0
C      1  0.5809240000000  0.5339530000000  0.4949230000000 1.0
C      1  0.4642650000000  0.5797480000000  0.5013840000000 1.0
C      1  0.3972710000000  0.4843350000000  0.4943160000000 1.0
C      1  0.4657800000000  0.4681090000000  0.4935000000000 1.0
C      1  0.4914550000000  0.5914190000000  0.5317220000000 1.0
C      1  0.4069960000000  0.5267910000000  0.5272410000000 1.0
C      1  0.5086890000000  0.5314230000000  0.5867800000000 1.0
C      1  0.5413400000000  0.5344110000000  0.4229290000000 1.0
C      1  0.6022200000000  0.4853800000000  0.5031390000000 1.0
C      1  0.4701930000000  0.4155080000000  0.4981280000000 1.0
C      1  0.4049390000000  0.4887590000000  0.5433950000000 1.0
C      1  0.4774150000000  0.4146060000000  0.5263400000000 1.0
C      1  0.4158570000000  0.4376820000000  0.5116690000000 1.0
C      1  0.4940000000000  0.4592370000000  0.4565480000000 1.0
C      1  0.5396720000000  0.4175350000000  0.4946110000000 1.0
C      1  0.5388610000000  0.5995860000000  0.4825990000000 1.0
C      1  0.5219870000000  0.4651330000000  0.4184410000000 1.0
C      1  0.5657280000000  0.5609050000000  0.5423290000000 1.0
C      1  0.5143950000000  0.5438740000000  0.4292680000000 1.0
C      1  0.5522340000000  0.4849220000000  0.5640290000000 1.0
C      1  0.5058660000000  0.4233640000000  0.5343680000000 1.0
C      1  0.5126930000000  0.5493850000000  0.5155100000000 1.0
C      1  0.5995230000000  0.4900460000000  0.5303340000000 1.0
C      1  0.5720510000000  0.5650810000000  0.4533720000000 1.0
C      1  0.4667070000000  0.4239840000000  0.4565270000000 1.0
C      1  0.4072440000000  0.5034170000000  0.4788540000000 1.0
C      1  0.4275230000000  0.4447760000000  0.4724310000000 1.0
C      1  0.5555270000000  0.5396800000000  0.5618110000000 1.0
C      1  0.5154300000000  0.4946410000000  0.5258100000000 1.0
C      1  0.5668470000000  0.5087490000000  0.5665040000000 1.0
C      1  0.5660690000000  0.4609840000000  0.4433450000000 1.0
C      1  0.5460680000000  0.4787410000000  0.4299000000000 1.0
C      1  0.5350570000000  0.4224350000000  0.5228060000000 1.0
C      1  0.5678090000000  0.5456890000000  0.4314260000000 1.0
C      1  0.5484200000000  0.5822370000000  0.4597270000000 1.0
C      1  0.5173790000000  0.5100890000000  0.4981490000000 1.0
C      1  0.4309520000000  0.5146230000000  0.4456560000000 1.0
C      1  0.5311340000000  0.5492390000000  0.5802270000000 1.0
C      1  0.5803010000000  0.4774720000000  0.4628650000000 1.0
C      1  0.4702400000000  0.4644840000000  0.4172100000000 1.0
C      1  0.5953870000000  0.5098350000000  0.4853990000000 1.0
C      1  0.4465110000000  0.4816820000000  0.5113840000000 1.0
C      1  0.4366750000000  0.5168100000000  0.5721180000000 1.0
C      1  0.4177690000000  0.5269180000000  0.4690250000000 1.0
C      1  0.4352450000000  0.4592250000000  0.4474330000000 1.0
C      1  0.4545180000000  0.5619440000000  0.4798430000000 1.0
C      1  0.4966140000000  0.4780160000000  0.4131080000000 1.0
C      1  0.5625670000000  0.4338480000000  0.4860000000000 1.0
C      1  0.3939030000000  0.5011080000000  0.5189760000000 1.0
C      1  0.4883790000000  0.5187640000000  0.4923030000000 1.0
C      1  0.5170890000000  0.5852760000000  0.5465300000000 1.0
C      1  0.5361100000000  0.4790610000000  0.4684360000000 1.0
C      1  0.4725800000000  0.4769090000000  0.4665430000000 1.0
C      1  0.4468090000000  0.4433910000000  0.5571330000000 1.0
C      1  0.4740540000000  0.4846750000000  0.5446770000000 1.0
C      1  0.5786730000000  0.5184230000000  0.4343700000000 1.0
C      1  0.4478690000000  0.4233830000000  0.4782450000000 1.0
C      1  0.4783760000000  0.5058890000000  0.4685040000000 1.0
C      1  0.4877940000000  0.5980780000000  0.5028800000000 1.0
C      1  0.5589990000000  0.4785930000000  0.4843600000000 1.0
C      1  0.4794740000000  0.5266440000000  0.5885780000000 1.0
C      1  0.5567130000000  0.4371830000000  0.4570580000000 1.0
C      1  0.5047410000000  0.4518930000000  0.5229430000000 1.0
C      1  0.4320670000000  0.4864590000000  0.4362740000000 1.0
C      1  0.5185160000000  0.4147940000000  0.4737470000000 1.0
C      1  0.5459270000000  0.5831420000000  0.5345290000000 1.0
C      1  0.5132870000000  0.4637210000000  0.4771320000000 1.0
C      1  0.4529560000000  0.4879770000000  0.4161530000000 1.0
C      1  0.4575750000000  0.5376690000000  0.5724550000000 1.0
C      1  0.4904440000000  0.5506100000000  0.4403860000000 1.0
C      1  0.4572320000000  0.4701160000000  0.5643390000000 1.0
C      1  0.4486140000000  0.4917560000000  0.5824920000000 1.0
END
