TITL C-883730-8503-361 27.1501093399194 125000 -14946.3172691738 0 0 101 (C1) n - 1
REM
REM in /home/nfs/bkarasulu/CARBON/AIRSS/Generating-Clusters/ReaxFF-fromJPCA2015/Units_Real/with-SteepDescent/Only-C1/SD-CG/Try1-3A/FIRE-CG
REM
REM
REM
REM
REM
REM ./C.cell (11c1c37f851c82e70ff6c80c92926a4b)
REM
REM compiler GCC version 9.2.1 20190827 (Red Hat 9.2.1-1)
REM options -cpp -mtune=generic -march=x86-64 -g -O0 -fpre-include=/usr/include/finclude/math-vector-fortran.h
REM seed 4466072 -1440107948 1642118346 229746346 1123645004 2085484299 -868949607 314488705 -832287346 858926481 -1889264842 770707844 1355349229 1199208273 1569288372 906259949 -1927229890 1255194466 -1645685283 1113027601 -14151833 -480960773 12897819 -1518076516 1052674428 1980856163 1532181859 1500764870 488529504 -292578270 230137354 -650857272 -585645714
REM
CELL 1.54180   50.00000   50.00000   50.00000   90.00000   90.00000   90.00000
LATT -1
SFAC C  
C      1  0.4379990000000  0.5350290000000  0.4437110000000 1.0
C      1  0.5128410000000  0.4458660000000  0.4910100000000 1.0
C      1  0.4990300000000  0.5629640000000  0.5311620000000 1.0
C      1  0.4201700000000  0.4394560000000  0.5589510000000 1.0
C      1  0.4783540000000  0.4858120000000  0.6035050000000 1.0
C      1  0.5354330000000  0.4241980000000  0.5372960000000 1.0
C      1  0.5438480000000  0.4772700000000  0.5155710000000 1.0
C      1  0.4522570000000  0.5595780000000  0.4519050000000 1.0
C      1  0.4557530000000  0.5699870000000  0.5491560000000 1.0
C      1  0.5414940000000  0.5820420000000  0.5275130000000 1.0
C      1  0.4797200000000  0.5239230000000  0.4151950000000 1.0
C      1  0.5155970000000  0.4584390000000  0.4254540000000 1.0
C      1  0.5261570000000  0.5713750000000  0.4792680000000 1.0
C      1  0.5215730000000  0.5325240000000  0.5829110000000 1.0
C      1  0.4365250000000  0.4905030000000  0.5691170000000 1.0
C      1  0.4999320000000  0.4563330000000  0.5706160000000 1.0
C      1  0.4798280000000  0.5399290000000  0.4909260000000 1.0
C      1  0.4649600000000  0.4237240000000  0.4730890000000 1.0
C      1  0.4616710000000  0.4663010000000  0.4275890000000 1.0
C      1  0.5366760000000  0.4924040000000  0.4939010000000 1.0
C      1  0.5131060000000  0.5185150000000  0.4662300000000 1.0
C      1  0.5656360000000  0.5592810000000  0.4885090000000 1.0
C      1  0.4242560000000  0.5545970000000  0.4938480000000 1.0
C      1  0.5438840000000  0.5282110000000  0.5258070000000 1.0
C      1  0.4281780000000  0.5542040000000  0.4643630000000 1.0
C      1  0.5463230000000  0.5799950000000  0.4973780000000 1.0
C      1  0.4987810000000  0.5478900000000  0.4208400000000 1.0
C      1  0.4924430000000  0.4358740000000  0.5141660000000 1.0
C      1  0.4094840000000  0.4836020000000  0.4758510000000 1.0
C      1  0.5634940000000  0.4450380000000  0.4691210000000 1.0
C      1  0.5022630000000  0.5854600000000  0.4862720000000 1.0
C      1  0.4395030000000  0.5141700000000  0.5487860000000 1.0
C      1  0.5559000000000  0.4950250000000  0.4277980000000 1.0
C      1  0.4615050000000  0.5832920000000  0.5226870000000 1.0
C      1  0.4086550000000  0.5301220000000  0.5059840000000 1.0
C      1  0.5300710000000  0.5429320000000  0.4616350000000 1.0
C      1  0.5811770000000  0.5087940000000  0.5383250000000 1.0
C      1  0.4085090000000  0.5065730000000  0.4908110000000 1.0
C      1  0.4718660000000  0.5526600000000  0.5677990000000 1.0
C      1  0.4595890000000  0.4940420000000  0.5107000000000 1.0
C      1  0.4217650000000  0.4677390000000  0.5629320000000 1.0
C      1  0.4581300000000  0.4750190000000  0.5820400000000 1.0
C      1  0.4411900000000  0.5686540000000  0.5102600000000 1.0
C      1  0.4881710000000  0.4334890000000  0.4573590000000 1.0
C      1  0.4947710000000  0.5380470000000  0.5761950000000 1.0
C      1  0.5269630000000  0.5425470000000  0.4294910000000 1.0
C      1  0.4888870000000  0.4700410000000  0.4149350000000 1.0
C      1  0.5772150000000  0.4719180000000  0.4714860000000 1.0
C      1  0.4496010000000  0.4437400000000  0.5186910000000 1.0
C      1  0.5581790000000  0.4325610000000  0.5209210000000 1.0
C      1  0.5247640000000  0.4919460000000  0.4651990000000 1.0
C      1  0.5565600000000  0.5215820000000  0.5508570000000 1.0
C      1  0.4609900000000  0.5162110000000  0.5286450000000 1.0
C      1  0.4199470000000  0.5199680000000  0.5297200000000 1.0
C      1  0.4859570000000  0.5377710000000  0.5199980000000 1.0
C      1  0.4839310000000  0.5820360000000  0.4626000000000 1.0
C      1  0.4660250000000  0.4265800000000  0.5018830000000 1.0
C      1  0.5149190000000  0.4340230000000  0.4426940000000 1.0
C      1  0.4579270000000  0.5181030000000  0.4334260000000 1.0
C      1  0.4614490000000  0.4777100000000  0.4562380000000 1.0
C      1  0.4853500000000  0.4614160000000  0.4639170000000 1.0
C      1  0.5598840000000  0.5407270000000  0.4668790000000 1.0
C      1  0.5786040000000  0.5184290000000  0.4662990000000 1.0
C      1  0.5506770000000  0.4551140000000  0.5644020000000 1.0
C      1  0.5621370000000  0.4610270000000  0.5327690000000 1.0
C      1  0.4667980000000  0.5613480000000  0.4760200000000 1.0
C      1  0.4907270000000  0.5841810000000  0.5135490000000 1.0
C      1  0.5894590000000  0.4833910000000  0.4961920000000 1.0
C      1  0.4690390000000  0.4518840000000  0.5680690000000 1.0
C      1  0.4875510000000  0.4873920000000  0.5027380000000 1.0
C      1  0.4867810000000  0.4976250000000  0.4131730000000 1.0
C      1  0.4921980000000  0.4658700000000  0.5218240000000 1.0
C      1  0.5057150000000  0.5035740000000  0.5523270000000 1.0
C      1  0.4505500000000  0.4408190000000  0.5488680000000 1.0
C      1  0.5740610000000  0.4931500000000  0.4523260000000 1.0
C      1  0.5407900000000  0.5437260000000  0.5634290000000 1.0
C      1  0.4416860000000  0.4384340000000  0.4622800000000 1.0
C      1  0.4652930000000  0.5074490000000  0.4583590000000 1.0
C      1  0.5898310000000  0.5256950000000  0.5161110000000 1.0
C      1  0.5661700000000  0.5424510000000  0.5129380000000 1.0
C      1  0.5566210000000  0.4272210000000  0.4924690000000 1.0
C      1  0.5130260000000  0.5209880000000  0.5276520000000 1.0
C      1  0.5939640000000  0.5114490000000  0.4906720000000 1.0
C      1  0.4899700000000  0.5661270000000  0.4395260000000 1.0
C      1  0.5329300000000  0.4792310000000  0.4357980000000 1.0
C      1  0.5039180000000  0.4795220000000  0.5914900000000 1.0
C      1  0.5175070000000  0.5034370000000  0.5789400000000 1.0
C      1  0.5126740000000  0.5015180000000  0.5073330000000 1.0
C      1  0.5414680000000  0.5194000000000  0.4251660000000 1.0
C      1  0.5099050000000  0.4687500000000  0.4743790000000 1.0
C      1  0.5402900000000  0.4385040000000  0.4544930000000 1.0
C      1  0.5265450000000  0.5641280000000  0.5446750000000 1.0
C      1  0.4867570000000  0.5175690000000  0.4756730000000 1.0
C      1  0.5273150000000  0.4405000000000  0.5619930000000 1.0
C      1  0.4365830000000  0.4651880000000  0.4765610000000 1.0
C      1  0.4998770000000  0.4756790000000  0.5464740000000 1.0
C      1  0.5152620000000  0.4149550000000  0.5182980000000 1.0
C      1  0.5274960000000  0.4208970000000  0.4924670000000 1.0
C      1  0.4436830000000  0.4689880000000  0.5052110000000 1.0
C      1  0.5840290000000  0.4827240000000  0.5252850000000 1.0
C      1  0.4450950000000  0.4419060000000  0.4326490000000 1.0
END
