TITL C-884131-4643-493 -2.31331406487078 125000 -14474.9257785398 0 0 98 (C1) n - 1
REM
REM in /home/nfs/bkarasulu/CARBON/AIRSS/Generating-Clusters/ReaxFF-fromJPCA2015/Units_Real/with-SteepDescent/Only-C1/SD-CG/Try1-3A/FIRE-CG
REM
REM
REM
REM
REM
REM ./C.cell (11c1c37f851c82e70ff6c80c92926a4b)
REM
REM compiler GCC version 9.2.1 20190827 (Red Hat 9.2.1-1)
REM options -cpp -mtune=generic -march=x86-64 -g -O0 -fpre-include=/usr/include/finclude/math-vector-fortran.h
REM seed -2053784519 -751171366 -1877983543 1103863191 2080263267 -124432412 260667418 1151537465 2096409196 -2068387551 537856172 1705529055 -1257739275 810682240 -162267835 -286301768 1319521912 156087530 270623793 1703229982 -1257084350 44855207 1845892790 -873223235 -1647189141 731767900 1318746232 28901702 576436535 -1991880940 -1149135243 -993504138 1077519973
REM
CELL 1.54180   50.00000   50.00000   50.00000   90.00000   90.00000   90.00000
LATT -1
SFAC C  
C      1  0.4779710000000  0.5774630000000  0.5274220000000 1.0
C      1  0.4999770000000  0.5509500000000  0.5001510000000 1.0
C      1  0.5636400000000  0.4651800000000  0.5645390000000 1.0
C      1  0.5381700000000  0.4261870000000  0.4798140000000 1.0
C      1  0.4994700000000  0.4837450000000  0.4348560000000 1.0
C      1  0.4911120000000  0.4521460000000  0.5665290000000 1.0
C      1  0.4427920000000  0.4868440000000  0.4261560000000 1.0
C      1  0.4505550000000  0.5818540000000  0.4874040000000 1.0
C      1  0.5379420000000  0.5402820000000  0.5599620000000 1.0
C      1  0.5957940000000  0.4894170000000  0.5291460000000 1.0
C      1  0.4365820000000  0.4827040000000  0.4671960000000 1.0
C      1  0.4563050000000  0.5013510000000  0.5278420000000 1.0
C      1  0.5889260000000  0.4989900000000  0.4787880000000 1.0
C      1  0.4443500000000  0.5410350000000  0.5601840000000 1.0
C      1  0.4665910000000  0.4435590000000  0.4337840000000 1.0
C      1  0.5723470000000  0.5449200000000  0.5003760000000 1.0
C      1  0.4906120000000  0.5516460000000  0.4265220000000 1.0
C      1  0.5060470000000  0.4842440000000  0.5372790000000 1.0
C      1  0.5094930000000  0.4202480000000  0.4766750000000 1.0
C      1  0.4607190000000  0.4576870000000  0.5147630000000 1.0
C      1  0.5433250000000  0.4294480000000  0.5302470000000 1.0
C      1  0.5822340000000  0.5115710000000  0.5417570000000 1.0
C      1  0.4535280000000  0.5726750000000  0.5167060000000 1.0
C      1  0.5218130000000  0.5409580000000  0.4536720000000 1.0
C      1  0.4731200000000  0.5169640000000  0.5141990000000 1.0
C      1  0.4731940000000  0.5404430000000  0.4983360000000 1.0
C      1  0.4255330000000  0.4646840000000  0.5356770000000 1.0
C      1  0.4485340000000  0.4469560000000  0.5379900000000 1.0
C      1  0.5554110000000  0.5649370000000  0.4872530000000 1.0
C      1  0.4135810000000  0.4723450000000  0.5106040000000 1.0
C      1  0.5153540000000  0.5056930000000  0.4193320000000 1.0
C      1  0.5165840000000  0.4376990000000  0.5622800000000 1.0
C      1  0.5356080000000  0.4658090000000  0.4440420000000 1.0
C      1  0.5214360000000  0.5330710000000  0.5066820000000 1.0
C      1  0.5110860000000  0.5760750000000  0.4888020000000 1.0
C      1  0.4506380000000  0.4343320000000  0.4567920000000 1.0
C      1  0.5727410000000  0.5315620000000  0.4569410000000 1.0
C      1  0.4113250000000  0.5032580000000  0.5054570000000 1.0
C      1  0.5863930000000  0.4719920000000  0.5495790000000 1.0
C      1  0.4458870000000  0.5182430000000  0.5794510000000 1.0
C      1  0.4478190000000  0.5435560000000  0.4503640000000 1.0
C      1  0.4951200000000  0.5540050000000  0.5647750000000 1.0
C      1  0.5883750000000  0.5286630000000  0.4820360000000 1.0
C      1  0.4845560000000  0.4978250000000  0.4980440000000 1.0
C      1  0.5046490000000  0.4633430000000  0.4872470000000 1.0
C      1  0.5147620000000  0.5351530000000  0.4240530000000 1.0
C      1  0.5349000000000  0.5776030000000  0.5049020000000 1.0
C      1  0.4871440000000  0.4194300000000  0.4957620000000 1.0
C      1  0.5377040000000  0.4939610000000  0.5048670000000 1.0
C      1  0.4221550000000  0.5291160000000  0.5165150000000 1.0
C      1  0.5703140000000  0.4582600000000  0.4952820000000 1.0
C      1  0.4196150000000  0.4521460000000  0.4901360000000 1.0
C      1  0.5746410000000  0.5020190000000  0.4523460000000 1.0
C      1  0.5014880000000  0.5741270000000  0.5430970000000 1.0
C      1  0.4512350000000  0.5394800000000  0.4791610000000 1.0
C      1  0.5501800000000  0.5492130000000  0.4624370000000 1.0
C      1  0.5494370000000  0.5521560000000  0.5391330000000 1.0
C      1  0.4675670000000  0.5538470000000  0.5588690000000 1.0
C      1  0.5113060000000  0.5296980000000  0.5652230000000 1.0
C      1  0.5299780000000  0.5711490000000  0.5333620000000 1.0
C      1  0.4498220000000  0.5011060000000  0.4493610000000 1.0
C      1  0.5137270000000  0.5707730000000  0.4600210000000 1.0
C      1  0.5579390000000  0.4843250000000  0.4350930000000 1.0
C      1  0.4457230000000  0.4607780000000  0.4255780000000 1.0
C      1  0.5030030000000  0.5179470000000  0.4670840000000 1.0
C      1  0.4858850000000  0.4811150000000  0.5742340000000 1.0
C      1  0.5498600000000  0.4908530000000  0.5580810000000 1.0
C      1  0.4706780000000  0.5335920000000  0.4353760000000 1.0
C      1  0.5338820000000  0.4860620000000  0.5326400000000 1.0
C      1  0.4618700000000  0.4943460000000  0.5851150000000 1.0
C      1  0.5383910000000  0.4376450000000  0.4517380000000 1.0
C      1  0.4357420000000  0.5626990000000  0.4703830000000 1.0
C      1  0.5455150000000  0.4424000000000  0.5566640000000 1.0
C      1  0.4827340000000  0.5051630000000  0.4494850000000 1.0
C      1  0.5517810000000  0.4791260000000  0.4860260000000 1.0
C      1  0.5098150000000  0.4326980000000  0.4492420000000 1.0
C      1  0.4745940000000  0.4368880000000  0.5474060000000 1.0
C      1  0.4291600000000  0.4537810000000  0.4627470000000 1.0
C      1  0.5420240000000  0.5047920000000  0.4257030000000 1.0
C      1  0.5144780000000  0.5083030000000  0.4932470000000 1.0
C      1  0.4369970000000  0.4900310000000  0.5445250000000 1.0
C      1  0.5268540000000  0.4733120000000  0.4711290000000 1.0
C      1  0.4899320000000  0.5764410000000  0.4452570000000 1.0
C      1  0.4898960000000  0.4227480000000  0.5251420000000 1.0
C      1  0.5156150000000  0.4200000000000  0.5379580000000 1.0
C      1  0.5539170000000  0.4347430000000  0.5032420000000 1.0
C      1  0.4264340000000  0.5023840000000  0.4834520000000 1.0
C      1  0.4365240000000  0.5493790000000  0.5305220000000 1.0
C      1  0.4615320000000  0.4227810000000  0.4818930000000 1.0
C      1  0.5606370000000  0.5187790000000  0.5584410000000 1.0
C      1  0.5490460000000  0.5357160000000  0.5156260000000 1.0
C      1  0.5904980000000  0.4787960000000  0.4999040000000 1.0
C      1  0.4879490000000  0.4709000000000  0.5121330000000 1.0
C      1  0.4704010000000  0.5849520000000  0.4659690000000 1.0
C      1  0.4940850000000  0.4547290000000  0.4363860000000 1.0
C      1  0.4455080000000  0.4404880000000  0.4978240000000 1.0
C      1  0.5009550000000  0.5017970000000  0.5597210000000 1.0
C      1  0.4369300000000  0.4937130000000  0.5728570000000 1.0
END
