TITL C-883726-8501-197 9.60007505586144 125000 -3898.99834293726 0 0 28 (C1) n - 1
REM
REM in /home/nfs/bkarasulu/CARBON/AIRSS/Generating-Clusters/ReaxFF-fromJPCA2015/Units_Real/with-SteepDescent/Only-C1/SD-CG/Try1-3A/FIRE-CG
REM
REM
REM
REM
REM
REM ./C.cell (11c1c37f851c82e70ff6c80c92926a4b)
REM
REM compiler GCC version 9.2.1 20190827 (Red Hat 9.2.1-1)
REM options -cpp -mtune=generic -march=x86-64 -g -O0 -fpre-include=/usr/include/finclude/math-vector-fortran.h
REM seed 1194627189 -466822510 -1291684309 378043137 494958994 426744460 -2037825915 -1047200242 1774707761 1860589148 -1621608184 2002718836 -343280961 1045576474 -2057749014 -884186074 -1505670667 110428362 629279622 -905932130 -221923302 1731233470 -1136803716 -1402977480 -1627496589 -164825101 86437353 -109691004 -1421122028 322082592 817393790 139463685 1214317036
REM
CELL 1.54180   50.00000   50.00000   50.00000   90.00000   90.00000   90.00000
LATT -1
SFAC C  
C      1  0.5177830000000  0.5587240000000  0.4648360000000 1.0
C      1  0.4582310000000  0.5302380000000  0.4893870000000 1.0
C      1  0.4819990000000  0.5447850000000  0.5278980000000 1.0
C      1  0.4584290000000  0.5402680000000  0.5160200000000 1.0
C      1  0.4600380000000  0.4885610000000  0.5153650000000 1.0
C      1  0.4744530000000  0.4770030000000  0.5377970000000 1.0
C      1  0.5372850000000  0.4697790000000  0.4869750000000 1.0
C      1  0.5071830000000  0.5160680000000  0.4894550000000 1.0
C      1  0.5458030000000  0.4912710000000  0.4688510000000 1.0
C      1  0.5325000000000  0.5169850000000  0.4746470000000 1.0
C      1  0.5303530000000  0.4763970000000  0.4457870000000 1.0
C      1  0.5236830000000  0.4834380000000  0.5343580000000 1.0
C      1  0.4780660000000  0.4516270000000  0.5227960000000 1.0
C      1  0.5152690000000  0.4631110000000  0.4679210000000 1.0
C      1  0.4845270000000  0.4720510000000  0.4728380000000 1.0
C      1  0.4768260000000  0.4947490000000  0.4577740000000 1.0
C      1  0.4822510000000  0.5231440000000  0.4719960000000 1.0
C      1  0.5357860000000  0.5445060000000  0.4854720000000 1.0
C      1  0.4997460000000  0.4321680000000  0.5256330000000 1.0
C      1  0.5097750000000  0.5174810000000  0.5524630000000 1.0
C      1  0.4929790000000  0.5481850000000  0.4549620000000 1.0
C      1  0.5164720000000  0.5376960000000  0.5069870000000 1.0
C      1  0.5197710000000  0.4432430000000  0.5237450000000 1.0
C      1  0.5372750000000  0.4661620000000  0.5171260000000 1.0
C      1  0.4493880000000  0.5143070000000  0.5096730000000 1.0
C      1  0.4691840000000  0.4666980000000  0.4980660000000 1.0
C      1  0.5006250000000  0.4897160000000  0.5483650000000 1.0
C      1  0.5043180000000  0.5416390000000  0.5328080000000 1.0
END
