TITL C-884139-6216-217 15.6990417567283 125000 -24123.1248210865 0 0 161 (C1) n - 1
REM
REM in /home/nfs/bkarasulu/CARBON/AIRSS/Generating-Clusters/ReaxFF-fromJPCA2015/Units_Real/with-SteepDescent/Only-C1/SD-CG/Try1-3A/FIRE-CG
REM
REM
REM
REM
REM
REM ./C.cell (11c1c37f851c82e70ff6c80c92926a4b)
REM
REM compiler GCC version 9.2.1 20190827 (Red Hat 9.2.1-1)
REM options -cpp -mtune=generic -march=x86-64 -g -O0 -fpre-include=/usr/include/finclude/math-vector-fortran.h
REM seed -2070727262 1656967942 -534637267 -592758743 -1283262936 -83084265 -452318308 701185627 756792122 -534158623 24995342 -302794181 807587359 64941862 220771748 950962547 -2135126840 751131745 518440759 1319852700 430736662 -335589854 114327843 -862534617 -641893989 1615383763 -298455873 -1247798555 -1543321204 2111561599 414738089 -1021785964 1978145755
REM
CELL 1.54180   50.00000   50.00000   50.00000   90.00000   90.00000   90.00000
LATT -1
SFAC C  
C      1  0.5605450000000  0.4752430000000  0.5914010000000 1.0
C      1  0.4905040000000  0.4848690000000  0.4790240000000 1.0
C      1  0.5656290000000  0.5783860000000  0.4842640000000 1.0
C      1  0.5947090000000  0.5139840000000  0.4860820000000 1.0
C      1  0.5415310000000  0.5661470000000  0.5279400000000 1.0
C      1  0.4282170000000  0.5788550000000  0.4968520000000 1.0
C      1  0.4408140000000  0.5074920000000  0.4195350000000 1.0
C      1  0.5335160000000  0.5394080000000  0.5821600000000 1.0
C      1  0.5247680000000  0.4243960000000  0.4483350000000 1.0
C      1  0.4737820000000  0.3878030000000  0.4969880000000 1.0
C      1  0.5219240000000  0.4868680000000  0.5996450000000 1.0
C      1  0.4759460000000  0.4093390000000  0.4540320000000 1.0
C      1  0.4407120000000  0.5256460000000  0.4426940000000 1.0
C      1  0.5934590000000  0.5416620000000  0.5295430000000 1.0
C      1  0.5020180000000  0.4270710000000  0.5667020000000 1.0
C      1  0.5856760000000  0.4504800000000  0.5256500000000 1.0
C      1  0.4214950000000  0.5297230000000  0.5184580000000 1.0
C      1  0.5516370000000  0.5379890000000  0.4884020000000 1.0
C      1  0.5415410000000  0.4794260000000  0.4531430000000 1.0
C      1  0.4023140000000  0.5380160000000  0.4473670000000 1.0
C      1  0.5873880000000  0.5433270000000  0.4488970000000 1.0
C      1  0.5497710000000  0.4024600000000  0.5300560000000 1.0
C      1  0.5475040000000  0.4607870000000  0.4288070000000 1.0
C      1  0.5138430000000  0.4545380000000  0.5112290000000 1.0
C      1  0.4565520000000  0.5113250000000  0.4862390000000 1.0
C      1  0.4824720000000  0.5412960000000  0.5511500000000 1.0
C      1  0.5768660000000  0.4516600000000  0.5531330000000 1.0
C      1  0.5039180000000  0.4109180000000  0.4643920000000 1.0
C      1  0.5344870000000  0.4614760000000  0.5902350000000 1.0
C      1  0.5316720000000  0.5323550000000  0.5315200000000 1.0
C      1  0.4059150000000  0.4846510000000  0.4362460000000 1.0
C      1  0.5410010000000  0.4045480000000  0.5023830000000 1.0
C      1  0.4658910000000  0.4856330000000  0.4947540000000 1.0
C      1  0.5790790000000  0.4761880000000  0.5682560000000 1.0
C      1  0.5089380000000  0.5901940000000  0.4377480000000 1.0
C      1  0.4800540000000  0.5656790000000  0.5333300000000 1.0
C      1  0.5660210000000  0.5156380000000  0.4791430000000 1.0
C      1  0.4410680000000  0.4630840000000  0.4640520000000 1.0
C      1  0.5616790000000  0.5382060000000  0.4286240000000 1.0
C      1  0.4733630000000  0.5116150000000  0.5917520000000 1.0
C      1  0.4421380000000  0.4309370000000  0.5607440000000 1.0
C      1  0.4125740000000  0.5646170000000  0.4527470000000 1.0
C      1  0.4589250000000  0.5394150000000  0.4930120000000 1.0
C      1  0.4041920000000  0.5799020000000  0.4749870000000 1.0
C      1  0.4876100000000  0.4610980000000  0.5195800000000 1.0
C      1  0.5106550000000  0.5287530000000  0.4625110000000 1.0
C      1  0.5037330000000  0.5280940000000  0.5142960000000 1.0
C      1  0.6036180000000  0.4679350000000  0.5082390000000 1.0
C      1  0.4449420000000  0.4697450000000  0.5928360000000 1.0
C      1  0.4681860000000  0.4431760000000  0.4096170000000 1.0
C      1  0.4263080000000  0.5592620000000  0.5210200000000 1.0
C      1  0.4116760000000  0.4368830000000  0.4901000000000 1.0
C      1  0.5353760000000  0.5479450000000  0.4200520000000 1.0
C      1  0.5047880000000  0.4811750000000  0.3940380000000 1.0
C      1  0.5271810000000  0.5519550000000  0.4809320000000 1.0
C      1  0.4120760000000  0.4642520000000  0.4572040000000 1.0
C      1  0.5067080000000  0.4596890000000  0.4836020000000 1.0
C      1  0.5529500000000  0.4283300000000  0.4601680000000 1.0
C      1  0.5787870000000  0.5495220000000  0.5534070000000 1.0
C      1  0.5783460000000  0.5268010000000  0.5723990000000 1.0
C      1  0.5876770000000  0.4904440000000  0.4424460000000 1.0
C      1  0.5961670000000  0.5179010000000  0.4418810000000 1.0
C      1  0.4887100000000  0.4125920000000  0.5438830000000 1.0
C      1  0.4655470000000  0.5773590000000  0.6002720000000 1.0
C      1  0.5485290000000  0.4993850000000  0.6032410000000 1.0
C      1  0.5922730000000  0.4621470000000  0.4546790000000 1.0
C      1  0.4933910000000  0.4927050000000  0.6016650000000 1.0
C      1  0.4853520000000  0.5024550000000  0.3931390000000 1.0
C      1  0.5076840000000  0.5786040000000  0.5712480000000 1.0
C      1  0.4606550000000  0.5940580000000  0.4643820000000 1.0
C      1  0.4458830000000  0.5873320000000  0.6104330000000 1.0
C      1  0.5110580000000  0.5647890000000  0.4229550000000 1.0
C      1  0.5618150000000  0.4458460000000  0.5093960000000 1.0
C      1  0.4875390000000  0.4690590000000  0.5858810000000 1.0
C      1  0.5550920000000  0.4310200000000  0.5611000000000 1.0
C      1  0.5557340000000  0.5680410000000  0.5533930000000 1.0
C      1  0.4554250000000  0.5966820000000  0.4927310000000 1.0
C      1  0.5084340000000  0.6096170000000  0.4749640000000 1.0
C      1  0.4254830000000  0.4519210000000  0.5438790000000 1.0
C      1  0.5574950000000  0.4243810000000  0.4888410000000 1.0
C      1  0.5433470000000  0.5781100000000  0.4710030000000 1.0
C      1  0.4897190000000  0.3763330000000  0.4764240000000 1.0
C      1  0.5294900000000  0.5997990000000  0.4568480000000 1.0
C      1  0.5123370000000  0.4059350000000  0.4950380000000 1.0
C      1  0.5569850000000  0.5254530000000  0.5926040000000 1.0
C      1  0.5054190000000  0.6020110000000  0.5043790000000 1.0
C      1  0.5565630000000  0.4037600000000  0.5519280000000 1.0
C      1  0.5224100000000  0.4427520000000  0.4263790000000 1.0
C      1  0.5326450000000  0.4970980000000  0.4954210000000 1.0
C      1  0.5434090000000  0.5070380000000  0.5203080000000 1.0
C      1  0.5399220000000  0.4587920000000  0.5235830000000 1.0
C      1  0.4008650000000  0.4642710000000  0.4839470000000 1.0
C      1  0.4419100000000  0.5584730000000  0.4800800000000 1.0
C      1  0.4837770000000  0.5226170000000  0.5326640000000 1.0
C      1  0.4851680000000  0.5517650000000  0.4152140000000 1.0
C      1  0.4461030000000  0.5700610000000  0.4527800000000 1.0
C      1  0.4867030000000  0.5434290000000  0.4588870000000 1.0
C      1  0.4267970000000  0.5065550000000  0.5644800000000 1.0
C      1  0.4931560000000  0.5303880000000  0.3980140000000 1.0
C      1  0.5988900000000  0.5132640000000  0.5338450000000 1.0
C      1  0.4652720000000  0.4525830000000  0.4501850000000 1.0
C      1  0.4018090000000  0.4884380000000  0.5013470000000 1.0
C      1  0.4642780000000  0.5046290000000  0.5333670000000 1.0
C      1  0.4557610000000  0.4024590000000  0.4748150000000 1.0
C      1  0.5985060000000  0.5413660000000  0.4765090000000 1.0
C      1  0.5345130000000  0.5678120000000  0.5741680000000 1.0
C      1  0.4761840000000  0.4784820000000  0.5418910000000 1.0
C      1  0.4759100000000  0.4421410000000  0.5036730000000 1.0
C      1  0.4650500000000  0.5472970000000  0.4382400000000 1.0
C      1  0.4547520000000  0.4262090000000  0.5132580000000 1.0
C      1  0.4897820000000  0.4653910000000  0.4394160000000 1.0
C      1  0.5191670000000  0.5231870000000  0.4129130000000 1.0
C      1  0.4466760000000  0.4980010000000  0.5857970000000 1.0
C      1  0.4993120000000  0.5875450000000  0.5442640000000 1.0
C      1  0.4440660000000  0.4677140000000  0.4922890000000 1.0
C      1  0.5081480000000  0.5141260000000  0.4400010000000 1.0
C      1  0.4009990000000  0.4672580000000  0.5480270000000 1.0
C      1  0.5979940000000  0.4650390000000  0.4816040000000 1.0
C      1  0.4539900000000  0.4423990000000  0.5848350000000 1.0
C      1  0.5288940000000  0.4960170000000  0.3971290000000 1.0
C      1  0.4984760000000  0.4550650000000  0.4115240000000 1.0
C      1  0.5920580000000  0.5549930000000  0.5028870000000 1.0
C      1  0.5255090000000  0.5232660000000  0.5589100000000 1.0
C      1  0.4667970000000  0.4928930000000  0.4151740000000 1.0
C      1  0.5407410000000  0.4844750000000  0.5381590000000 1.0
C      1  0.4967680000000  0.4810260000000  0.5621960000000 1.0
C      1  0.5527420000000  0.4867960000000  0.4094840000000 1.0
C      1  0.4499430000000  0.5688890000000  0.5344120000000 1.0
C      1  0.5647390000000  0.5607880000000  0.5025040000000 1.0
C      1  0.4012670000000  0.5124390000000  0.4424740000000 1.0
C      1  0.4516230000000  0.4673190000000  0.4088220000000 1.0
C      1  0.5034870000000  0.5542270000000  0.5008640000000 1.0
C      1  0.4875210000000  0.6018330000000  0.4557280000000 1.0
C      1  0.5218130000000  0.5885340000000  0.5257900000000 1.0
C      1  0.4635410000000  0.4279090000000  0.4338980000000 1.0
C      1  0.4780870000000  0.5978440000000  0.5093320000000 1.0
C      1  0.5623440000000  0.4982290000000  0.4563440000000 1.0
C      1  0.4886650000000  0.4934610000000  0.4460710000000 1.0
C      1  0.4330190000000  0.5172260000000  0.4706920000000 1.0
C      1  0.4836840000000  0.4399520000000  0.5853420000000 1.0
C      1  0.5885950000000  0.5028740000000  0.5595760000000 1.0
C      1  0.5631430000000  0.5122500000000  0.4167520000000 1.0
C      1  0.4265430000000  0.4821070000000  0.4153890000000 1.0
C      1  0.4794270000000  0.5375150000000  0.5792520000000 1.0
C      1  0.3930670000000  0.4857630000000  0.5293470000000 1.0
C      1  0.5287620000000  0.4387740000000  0.5721110000000 1.0
C      1  0.5319790000000  0.4728270000000  0.4791460000000 1.0
C      1  0.4936240000000  0.4008890000000  0.5168590000000 1.0
C      1  0.5220460000000  0.4941150000000  0.5584490000000 1.0
C      1  0.4873010000000  0.5650190000000  0.5887760000000 1.0
C      1  0.4600580000000  0.4176430000000  0.5419820000000 1.0
C      1  0.4308920000000  0.4172200000000  0.4789790000000 1.0
C      1  0.4142370000000  0.5140230000000  0.4944240000000 1.0
C      1  0.6036470000000  0.4981450000000  0.5093190000000 1.0
C      1  0.5073520000000  0.5092030000000  0.4882710000000 1.0
C      1  0.4374340000000  0.5154730000000  0.5392680000000 1.0
C      1  0.4020890000000  0.4933000000000  0.5562360000000 1.0
C      1  0.4813780000000  0.5535630000000  0.4843920000000 1.0
C      1  0.5692900000000  0.4461170000000  0.4451220000000 1.0
C      1  0.4319630000000  0.4465590000000  0.5102920000000 1.0
C      1  0.4487390000000  0.4692570000000  0.5458320000000 1.0
END
