TITL C-883735-9890-90 0.752094198222106 125000 -9628.23969724084 0 0 66 (C1) n - 1
REM
REM in /home/nfs/bkarasulu/CARBON/AIRSS/Generating-Clusters/ReaxFF-fromJPCA2015/Units_Real/with-SteepDescent/Only-C1/SD-CG/Try1-3A/FIRE-CG
REM
REM
REM
REM
REM
REM ./C.cell (11c1c37f851c82e70ff6c80c92926a4b)
REM
REM compiler GCC version 9.2.1 20190827 (Red Hat 9.2.1-1)
REM options -cpp -mtune=generic -march=x86-64 -g -O0 -fpre-include=/usr/include/finclude/math-vector-fortran.h
REM seed 272242548 213695852 1192179536 1580378487 53919828 -805040481 -864750317 1534569406 -1033811906 2018777688 1128579113 -743342287 962855776 -254062157 -913660705 -1376919365 -1289345051 -1072675708 -1164091228 639972837 -748539692 -61607975 -533080381 -185482991 -1039055842 -527164135 -1996646171 -1707028916 -985039443 1957325660 -1641521914 1117184928 82950912
REM
CELL 1.54180   50.00000   50.00000   50.00000   90.00000   90.00000   90.00000
LATT -1
SFAC C  
C      1  0.5215010000000  0.4360070000000  0.4580060000000 1.0
C      1  0.4812150000000  0.4631690000000  0.4578240000000 1.0
C      1  0.4926090000000  0.4352340000000  0.4623700000000 1.0
C      1  0.4929260000000  0.4510450000000  0.5125280000000 1.0
C      1  0.5398600000000  0.5280170000000  0.4945680000000 1.0
C      1  0.5485930000000  0.5034270000000  0.5596150000000 1.0
C      1  0.5007140000000  0.5550500000000  0.4679840000000 1.0
C      1  0.5228230000000  0.4496760000000  0.5119240000000 1.0
C      1  0.5082970000000  0.5283930000000  0.4594230000000 1.0
C      1  0.4852430000000  0.4635290000000  0.5613540000000 1.0
C      1  0.4719180000000  0.4330870000000  0.5294380000000 1.0
C      1  0.4920780000000  0.5298230000000  0.5364570000000 1.0
C      1  0.5128110000000  0.5237900000000  0.5910380000000 1.0
C      1  0.5036950000000  0.4811490000000  0.4695010000000 1.0
C      1  0.5692410000000  0.5057300000000  0.5390810000000 1.0
C      1  0.5655130000000  0.5405260000000  0.5062910000000 1.0
C      1  0.5028720000000  0.5134660000000  0.4165320000000 1.0
C      1  0.4792850000000  0.5519500000000  0.5331100000000 1.0
C      1  0.5643120000000  0.4877890000000  0.5164500000000 1.0
C      1  0.5620550000000  0.5574440000000  0.5297090000000 1.0
C      1  0.5248190000000  0.5209900000000  0.4358830000000 1.0
C      1  0.5479620000000  0.5058320000000  0.4466320000000 1.0
C      1  0.4634570000000  0.4976940000000  0.5696470000000 1.0
C      1  0.5311480000000  0.5275160000000  0.5695670000000 1.0
C      1  0.5591990000000  0.4731420000000  0.4699060000000 1.0
C      1  0.4591930000000  0.4689780000000  0.5630690000000 1.0
C      1  0.5331880000000  0.4804720000000  0.5537540000000 1.0
C      1  0.5081440000000  0.4600310000000  0.4263090000000 1.0
C      1  0.4415090000000  0.5066560000000  0.5086690000000 1.0
C      1  0.4454630000000  0.4353180000000  0.5179350000000 1.0
C      1  0.4828290000000  0.4714980000000  0.4275350000000 1.0
C      1  0.4523080000000  0.4668660000000  0.4761070000000 1.0
C      1  0.4248390000000  0.5289800000000  0.5046980000000 1.0
C      1  0.4773410000000  0.5196630000000  0.5583160000000 1.0
C      1  0.4705180000000  0.5586050000000  0.4705130000000 1.0
C      1  0.5170440000000  0.5432280000000  0.5479280000000 1.0
C      1  0.5780240000000  0.5328290000000  0.5313820000000 1.0
C      1  0.4802540000000  0.4325810000000  0.4882620000000 1.0
C      1  0.4827560000000  0.4806150000000  0.5130750000000 1.0
C      1  0.5333640000000  0.4537780000000  0.4363680000000 1.0
C      1  0.4908580000000  0.5027580000000  0.5788980000000 1.0
C      1  0.4521050000000  0.4395050000000  0.4895380000000 1.0
C      1  0.5079540000000  0.4772740000000  0.5677020000000 1.0
C      1  0.4643620000000  0.5092490000000  0.4535520000000 1.0
C      1  0.5209610000000  0.5560330000000  0.4885680000000 1.0
C      1  0.4923170000000  0.5072470000000  0.4739470000000 1.0
C      1  0.5210050000000  0.5761280000000  0.5097630000000 1.0
C      1  0.5256540000000  0.5044910000000  0.5098690000000 1.0
C      1  0.5302400000000  0.4717760000000  0.4786950000000 1.0
C      1  0.4411940000000  0.5452220000000  0.5212590000000 1.0
C      1  0.5702450000000  0.4934560000000  0.4880740000000 1.0
C      1  0.4783350000000  0.5004990000000  0.4264540000000 1.0
C      1  0.4161290000000  0.5039600000000  0.4621320000000 1.0
C      1  0.4268720000000  0.5300380000000  0.4733760000000 1.0
C      1  0.4626390000000  0.5777420000000  0.4903960000000 1.0
C      1  0.5361050000000  0.4776020000000  0.5225650000000 1.0
C      1  0.4416530000000  0.4889050000000  0.4589770000000 1.0
C      1  0.4554670000000  0.4833550000000  0.5043310000000 1.0
C      1  0.4596870000000  0.5666900000000  0.5197900000000 1.0
C      1  0.4526810000000  0.5355670000000  0.4617480000000 1.0
C      1  0.4514910000000  0.4447110000000  0.5461850000000 1.0
C      1  0.5518730000000  0.4769480000000  0.4424570000000 1.0
C      1  0.5332890000000  0.5628240000000  0.5347690000000 1.0
C      1  0.5575850000000  0.5152620000000  0.4733400000000 1.0
C      1  0.4967550000000  0.5063790000000  0.5094750000000 1.0
C      1  0.5316230000000  0.4428050000000  0.4853810000000 1.0
END
