TITL C-883729-9652-89 152.457944102655 125000 -27790.9427216617 0 0 186 (C1) n - 1
REM
REM in /home/nfs/bkarasulu/CARBON/AIRSS/Generating-Clusters/ReaxFF-fromJPCA2015/Units_Real/with-SteepDescent/Only-C1/SD-CG/Try1-3A/FIRE-CG
REM
REM
REM
REM
REM
REM ./C.cell (11c1c37f851c82e70ff6c80c92926a4b)
REM
REM compiler GCC version 9.2.1 20190827 (Red Hat 9.2.1-1)
REM options -cpp -mtune=generic -march=x86-64 -g -O0 -fpre-include=/usr/include/finclude/math-vector-fortran.h
REM seed -2002611039 -1163078172 -2020656169 -123083755 846343968 276266867 -573013685 842728345 -1890441866 -1989046989 100765893 1312724304 -1943993263 -933478906 19301773 1766594874 675534658 -1327555457 410055981 -1356526910 -1852932562 1275722687 1645763155 -82451915 1261922242 -2116043995 -26208721 1742766663 -1936524498 -510155255 -2088519651 -1956356921 1151834939
REM
CELL 1.54180   50.00000   50.00000   50.00000   90.00000   90.00000   90.00000
LATT -1
SFAC C  
C      1  0.4838790000000  0.5517420000000  0.3922200000000 1.0
C      1  0.4370000000000  0.5714010000000  0.4465660000000 1.0
C      1  0.3901620000000  0.5208050000000  0.5064390000000 1.0
C      1  0.5371060000000  0.5567860000000  0.4091130000000 1.0
C      1  0.5549110000000  0.5384130000000  0.4995040000000 1.0
C      1  0.5394320000000  0.4910120000000  0.4474370000000 1.0
C      1  0.4386640000000  0.4417200000000  0.5248240000000 1.0
C      1  0.5467210000000  0.4497560000000  0.5315520000000 1.0
C      1  0.5089600000000  0.5215460000000  0.4144550000000 1.0
C      1  0.4008760000000  0.5071240000000  0.5603890000000 1.0
C      1  0.4727430000000  0.5736010000000  0.4078740000000 1.0
C      1  0.5830690000000  0.4903130000000  0.5628690000000 1.0
C      1  0.4295710000000  0.4628690000000  0.4282250000000 1.0
C      1  0.5394620000000  0.4641430000000  0.4560770000000 1.0
C      1  0.4454900000000  0.4503940000000  0.5540930000000 1.0
C      1  0.4673100000000  0.4367180000000  0.5701740000000 1.0
C      1  0.4861480000000  0.5487410000000  0.5242370000000 1.0
C      1  0.4649460000000  0.4434830000000  0.5097620000000 1.0
C      1  0.5919530000000  0.4204170000000  0.4984600000000 1.0
C      1  0.4347430000000  0.4916540000000  0.5348320000000 1.0
C      1  0.4076430000000  0.5273780000000  0.4600730000000 1.0
C      1  0.4525310000000  0.4190860000000  0.4520550000000 1.0
C      1  0.4599560000000  0.4789760000000  0.5417270000000 1.0
C      1  0.4887600000000  0.3851390000000  0.4878150000000 1.0
C      1  0.4602720000000  0.5653030000000  0.5291290000000 1.0
C      1  0.4789730000000  0.4257370000000  0.4415840000000 1.0
C      1  0.5017800000000  0.4899880000000  0.6038560000000 1.0
C      1  0.5778920000000  0.5320080000000  0.5798640000000 1.0
C      1  0.4594590000000  0.4818320000000  0.4070710000000 1.0
C      1  0.5107000000000  0.5991470000000  0.5136700000000 1.0
C      1  0.5856710000000  0.5426640000000  0.4398150000000 1.0
C      1  0.4771840000000  0.4983210000000  0.4998380000000 1.0
C      1  0.5093330000000  0.4641320000000  0.5618410000000 1.0
C      1  0.5773710000000  0.5744540000000  0.5028490000000 1.0
C      1  0.5811780000000  0.5531220000000  0.5607490000000 1.0
C      1  0.5380190000000  0.4561720000000  0.3925110000000 1.0
C      1  0.3969330000000  0.5494040000000  0.5066400000000 1.0
C      1  0.3971870000000  0.4603610000000  0.4936210000000 1.0
C      1  0.4487460000000  0.5632860000000  0.4205550000000 1.0
C      1  0.4775760000000  0.5834190000000  0.4466410000000 1.0
C      1  0.4433870000000  0.5098390000000  0.5962120000000 1.0
C      1  0.4572400000000  0.4842050000000  0.5909990000000 1.0
C      1  0.4339500000000  0.5443150000000  0.5380510000000 1.0
C      1  0.4795980000000  0.4811700000000  0.5206350000000 1.0
C      1  0.5575940000000  0.4991600000000  0.5478420000000 1.0
C      1  0.4151510000000  0.4444790000000  0.4611770000000 1.0
C      1  0.5450580000000  0.4752810000000  0.6011910000000 1.0
C      1  0.4437410000000  0.5116300000000  0.4735760000000 1.0
C      1  0.4699050000000  0.5261340000000  0.3914360000000 1.0
C      1  0.5078580000000  0.4730810000000  0.5156290000000 1.0
C      1  0.4731990000000  0.4596820000000  0.5939920000000 1.0
C      1  0.5809660000000  0.4787720000000  0.4092290000000 1.0
C      1  0.4686540000000  0.6005900000000  0.4819130000000 1.0
C      1  0.4411490000000  0.4872260000000  0.4742420000000 1.0
C      1  0.4193390000000  0.5191610000000  0.5794180000000 1.0
C      1  0.4119030000000  0.4621260000000  0.5197780000000 1.0
C      1  0.5292070000000  0.4243960000000  0.4327570000000 1.0
C      1  0.4033200000000  0.4328080000000  0.4844060000000 1.0
C      1  0.4385250000000  0.4625230000000  0.4749150000000 1.0
C      1  0.4283910000000  0.5872460000000  0.5037510000000 1.0
C      1  0.5301680000000  0.4529490000000  0.5956990000000 1.0
C      1  0.5424420000000  0.5967330000000  0.5056930000000 1.0
C      1  0.4630550000000  0.5789180000000  0.5733950000000 1.0
C      1  0.4481860000000  0.5364480000000  0.4077060000000 1.0
C      1  0.6018120000000  0.4660420000000  0.5264920000000 1.0
C      1  0.5227900000000  0.4989910000000  0.5123830000000 1.0
C      1  0.5213490000000  0.4393420000000  0.4084100000000 1.0
C      1  0.5081840000000  0.4158800000000  0.5204440000000 1.0
C      1  0.5105840000000  0.5474690000000  0.4021480000000 1.0
C      1  0.5144460000000  0.5594560000000  0.4872910000000 1.0
C      1  0.3992070000000  0.4806170000000  0.4716180000000 1.0
C      1  0.5651230000000  0.4410230000000  0.5546100000000 1.0
C      1  0.6000270000000  0.5250950000000  0.4578810000000 1.0
C      1  0.4154400000000  0.5091180000000  0.4382210000000 1.0
C      1  0.5090390000000  0.3632210000000  0.4975850000000 1.0
C      1  0.5939380000000  0.5346710000000  0.5421450000000 1.0
C      1  0.5344600000000  0.5411600000000  0.5757410000000 1.0
C      1  0.4782680000000  0.4973600000000  0.3942380000000 1.0
C      1  0.4896060000000  0.4650210000000  0.4703750000000 1.0
C      1  0.4901330000000  0.4450930000000  0.5538650000000 1.0
C      1  0.6017060000000  0.5139370000000  0.5018870000000 1.0
C      1  0.4462110000000  0.4061300000000  0.4785700000000 1.0
C      1  0.5257230000000  0.4109410000000  0.5674980000000 1.0
C      1  0.5513400000000  0.4388740000000  0.4457370000000 1.0
C      1  0.4966550000000  0.6048010000000  0.4864280000000 1.0
C      1  0.5522020000000  0.5000350000000  0.6090000000000 1.0
C      1  0.4655570000000  0.4534440000000  0.4842570000000 1.0
C      1  0.5661700000000  0.4800550000000  0.4998960000000 1.0
C      1  0.5598360000000  0.4667550000000  0.3984910000000 1.0
C      1  0.5690330000000  0.5252360000000  0.4237290000000 1.0
C      1  0.5232030000000  0.5099890000000  0.6107630000000 1.0
C      1  0.4959310000000  0.5958190000000  0.5393970000000 1.0
C      1  0.5256910000000  0.4162090000000  0.4938150000000 1.0
C      1  0.6104990000000  0.4946400000000  0.5221930000000 1.0
C      1  0.4267380000000  0.5448340000000  0.5681520000000 1.0
C      1  0.4348270000000  0.5980880000000  0.5287080000000 1.0
C      1  0.5247410000000  0.5032740000000  0.4844470000000 1.0
C      1  0.4111990000000  0.4813450000000  0.4444600000000 1.0
C      1  0.5362060000000  0.5686350000000  0.5647930000000 1.0
C      1  0.4943940000000  0.5289610000000  0.5408730000000 1.0
C      1  0.4903140000000  0.5927370000000  0.4221170000000 1.0
C      1  0.5932460000000  0.4526370000000  0.4736420000000 1.0
C      1  0.5759030000000  0.4077600000000  0.4791890000000 1.0
C      1  0.5933890000000  0.5626610000000  0.4838860000000 1.0
C      1  0.4324160000000  0.4120460000000  0.5220920000000 1.0
C      1  0.4461370000000  0.5574300000000  0.5855780000000 1.0
C      1  0.5402630000000  0.4340330000000  0.5760940000000 1.0
C      1  0.4178380000000  0.4868330000000  0.5562070000000 1.0
C      1  0.5745840000000  0.5069570000000  0.5904320000000 1.0
C      1  0.4671380000000  0.5557180000000  0.4803830000000 1.0
C      1  0.6011450000000  0.4460740000000  0.5020460000000 1.0
C      1  0.4633200000000  0.3936690000000  0.4990460000000 1.0
C      1  0.5090960000000  0.5825890000000  0.5613210000000 1.0
C      1  0.4647070000000  0.5903740000000  0.5447860000000 1.0
C      1  0.4113850000000  0.5669090000000  0.4888120000000 1.0
C      1  0.6036860000000  0.5082420000000  0.5468360000000 1.0
C      1  0.3982010000000  0.4543130000000  0.5428720000000 1.0
C      1  0.4530120000000  0.5942180000000  0.4576490000000 1.0
C      1  0.5185420000000  0.5174130000000  0.5344450000000 1.0
C      1  0.5416940000000  0.5258470000000  0.4769790000000 1.0
C      1  0.5381010000000  0.5186250000000  0.5555460000000 1.0
C      1  0.5348880000000  0.3750690000000  0.4925550000000 1.0
C      1  0.4866020000000  0.5402290000000  0.5881610000000 1.0
C      1  0.5638430000000  0.4999060000000  0.5196250000000 1.0
C      1  0.5163230000000  0.5342550000000  0.5972550000000 1.0
C      1  0.4424680000000  0.5162600000000  0.4281880000000 1.0
C      1  0.5161370000000  0.5149660000000  0.4417220000000 1.0
C      1  0.5419960000000  0.5561840000000  0.5166730000000 1.0
C      1  0.4579270000000  0.5347760000000  0.5994920000000 1.0
C      1  0.5309830000000  0.5379500000000  0.4525470000000 1.0
C      1  0.5873930000000  0.4626860000000  0.5506630000000 1.0
C      1  0.5561720000000  0.5806100000000  0.4555920000000 1.0
C      1  0.4727950000000  0.4955280000000  0.5663660000000 1.0
C      1  0.5097090000000  0.4590250000000  0.4902750000000 1.0
C      1  0.4405210000000  0.5181980000000  0.5268830000000 1.0
C      1  0.4585010000000  0.5775520000000  0.4979320000000 1.0
C      1  0.5370090000000  0.5739830000000  0.4338560000000 1.0
C      1  0.5153770000000  0.5937750000000  0.4373300000000 1.0
C      1  0.4179520000000  0.5558380000000  0.4630510000000 1.0
C      1  0.5110360000000  0.5554780000000  0.4624770000000 1.0
C      1  0.5607040000000  0.5726000000000  0.5515840000000 1.0
C      1  0.5493910000000  0.3968080000000  0.4891960000000 1.0
C      1  0.5753250000000  0.4315440000000  0.4617730000000 1.0
C      1  0.5497440000000  0.3968900000000  0.5553790000000 1.0
C      1  0.5846100000000  0.4803070000000  0.4767390000000 1.0
C      1  0.4896610000000  0.5162300000000  0.4554390000000 1.0
C      1  0.4316140000000  0.4359220000000  0.4401020000000 1.0
C      1  0.5001070000000  0.4611020000000  0.6048320000000 1.0
C      1  0.5777390000000  0.5249290000000  0.5141790000000 1.0
C      1  0.4856080000000  0.4547710000000  0.4382180000000 1.0
C      1  0.6067300000000  0.5356170000000  0.4840040000000 1.0
C      1  0.4225250000000  0.4122470000000  0.4943850000000 1.0
C      1  0.4743010000000  0.4078490000000  0.5516740000000 1.0
C      1  0.4888180000000  0.4364580000000  0.5252170000000 1.0
C      1  0.5743910000000  0.4118450000000  0.5486360000000 1.0
C      1  0.4170380000000  0.4579020000000  0.5633420000000 1.0
C      1  0.4572930000000  0.5181330000000  0.5031620000000 1.0
C      1  0.4577400000000  0.3993960000000  0.5291050000000 1.0
C      1  0.4948370000000  0.4984140000000  0.4771560000000 1.0
C      1  0.5591480000000  0.5800260000000  0.5219110000000 1.0
C      1  0.5477620000000  0.5298830000000  0.4056370000000 1.0
C      1  0.4614190000000  0.5158930000000  0.4495000000000 1.0
C      1  0.4824630000000  0.5564250000000  0.4564840000000 1.0
C      1  0.5054990000000  0.4626340000000  0.4160150000000 1.0
C      1  0.3928590000000  0.5209130000000  0.5364600000000 1.0
C      1  0.3971140000000  0.5086330000000  0.4806380000000 1.0
C      1  0.4890140000000  0.5707930000000  0.5790070000000 1.0
C      1  0.5168460000000  0.6037350000000  0.4652830000000 1.0
C      1  0.5428380000000  0.5966750000000  0.4769400000000 1.0
C      1  0.5050890000000  0.4051730000000  0.4743750000000 1.0
C      1  0.4811830000000  0.5229590000000  0.5632940000000 1.0
C      1  0.5005310000000  0.4887360000000  0.5740070000000 1.0
C      1  0.4760520000000  0.5381140000000  0.5002720000000 1.0
C      1  0.5803010000000  0.5655110000000  0.4572670000000 1.0
C      1  0.5273470000000  0.5081680000000  0.3969060000000 1.0
C      1  0.5053120000000  0.4136020000000  0.4464670000000 1.0
C      1  0.5234690000000  0.4622010000000  0.5378020000000 1.0
C      1  0.4580960000000  0.4642330000000  0.4237530000000 1.0
C      1  0.4050650000000  0.5469840000000  0.5338200000000 1.0
C      1  0.5138680000000  0.5648500000000  0.5142710000000 1.0
C      1  0.5033340000000  0.4051100000000  0.5473720000000 1.0
C      1  0.5679530000000  0.4983080000000  0.4346270000000 1.0
C      1  0.5341690000000  0.4487570000000  0.4855120000000 1.0
C      1  0.5877150000000  0.4995800000000  0.4553330000000 1.0
C      1  0.5080130000000  0.4853930000000  0.3967410000000 1.0
C      1  0.5530530000000  0.4553980000000  0.5043970000000 1.0
END
