TITL C-884127-5181-288 25.661944046469 125000 -25977.2625438006 0 0 175 (C1) n - 1
REM
REM in /home/nfs/bkarasulu/CARBON/AIRSS/Generating-Clusters/ReaxFF-fromJPCA2015/Units_Real/with-SteepDescent/Only-C1/SD-CG/Try1-3A/FIRE-CG
REM
REM
REM
REM
REM
REM ./C.cell (11c1c37f851c82e70ff6c80c92926a4b)
REM
REM compiler GCC version 9.2.1 20190827 (Red Hat 9.2.1-1)
REM options -cpp -mtune=generic -march=x86-64 -g -O0 -fpre-include=/usr/include/finclude/math-vector-fortran.h
REM seed -1791995432 -88317075 -1030388143 153878788 1133731264 -871320388 501008760 1783871084 18762179 353016399 392638397 1803105801 -2080696661 -1778340130 1347720400 2116449796 -981081470 696112305 -983236673 1627944517 -452259421 -1993938794 858970221 -1704495234 480244155 -937226131 -1092855165 347378350 1981500298 307440371 647502518 -589357613 1622976063
REM
CELL 1.54180   50.00000   50.00000   50.00000   90.00000   90.00000   90.00000
LATT -1
SFAC C  
C      1  0.4440720000000  0.4944710000000  0.5362370000000 1.0
C      1  0.3976540000000  0.5012490000000  0.5361360000000 1.0
C      1  0.5872120000000  0.5140280000000  0.5495770000000 1.0
C      1  0.5538400000000  0.5225530000000  0.4633300000000 1.0
C      1  0.4147020000000  0.4738500000000  0.4558990000000 1.0
C      1  0.4159160000000  0.5377900000000  0.4526860000000 1.0
C      1  0.5949240000000  0.4652200000000  0.5198780000000 1.0
C      1  0.5545010000000  0.5398650000000  0.5078320000000 1.0
C      1  0.3950410000000  0.4791450000000  0.4760010000000 1.0
C      1  0.5161670000000  0.4294790000000  0.4309460000000 1.0
C      1  0.4590470000000  0.4972030000000  0.6088790000000 1.0
C      1  0.4067810000000  0.5249200000000  0.5510630000000 1.0
C      1  0.5150580000000  0.5963770000000  0.4464220000000 1.0
C      1  0.5742820000000  0.4525340000000  0.5869990000000 1.0
C      1  0.4709650000000  0.3970150000000  0.5205050000000 1.0
C      1  0.5168920000000  0.5102920000000  0.5204960000000 1.0
C      1  0.4723380000000  0.5239090000000  0.4038050000000 1.0
C      1  0.5115370000000  0.5629800000000  0.4144130000000 1.0
C      1  0.5372540000000  0.4188150000000  0.5968120000000 1.0
C      1  0.4455620000000  0.4872560000000  0.5651590000000 1.0
C      1  0.4762390000000  0.5358450000000  0.5427970000000 1.0
C      1  0.6243280000000  0.4680070000000  0.5252040000000 1.0
C      1  0.5463170000000  0.5233930000000  0.3960140000000 1.0
C      1  0.5526690000000  0.4285550000000  0.5307620000000 1.0
C      1  0.5086690000000  0.6033040000000  0.4746470000000 1.0
C      1  0.4815840000000  0.4104240000000  0.5438190000000 1.0
C      1  0.4836880000000  0.3865990000000  0.4732650000000 1.0
C      1  0.5310390000000  0.4967280000000  0.5960030000000 1.0
C      1  0.4920910000000  0.3887210000000  0.5018800000000 1.0
C      1  0.5604750000000  0.4343440000000  0.5963690000000 1.0
C      1  0.4388480000000  0.4618580000000  0.4702390000000 1.0
C      1  0.5409970000000  0.5027860000000  0.4160760000000 1.0
C      1  0.4435720000000  0.4607080000000  0.5752050000000 1.0
C      1  0.5207460000000  0.5830630000000  0.4919120000000 1.0
C      1  0.5147170000000  0.4146290000000  0.4555040000000 1.0
C      1  0.5863870000000  0.4746760000000  0.4551180000000 1.0
C      1  0.4978160000000  0.5574140000000  0.5450190000000 1.0
C      1  0.4965840000000  0.4426100000000  0.3901840000000 1.0
C      1  0.5372370000000  0.4485430000000  0.5166100000000 1.0
C      1  0.4642590000000  0.5408960000000  0.5040110000000 1.0
C      1  0.5386830000000  0.5036810000000  0.5396240000000 1.0
C      1  0.4530100000000  0.4418530000000  0.4200500000000 1.0
C      1  0.5572670000000  0.5411960000000  0.4174980000000 1.0
C      1  0.4164900000000  0.4818930000000  0.5341880000000 1.0
C      1  0.5093900000000  0.4136680000000  0.5523830000000 1.0
C      1  0.5615430000000  0.4639780000000  0.5683600000000 1.0
C      1  0.5136540000000  0.4937820000000  0.5721630000000 1.0
C      1  0.5433740000000  0.5736280000000  0.4749270000000 1.0
C      1  0.4033500000000  0.5360950000000  0.4790960000000 1.0
C      1  0.5023000000000  0.4195060000000  0.4071010000000 1.0
C      1  0.4607100000000  0.4160340000000  0.4358300000000 1.0
C      1  0.4932500000000  0.4431060000000  0.5923220000000 1.0
C      1  0.4605910000000  0.4441700000000  0.5934170000000 1.0
C      1  0.5111540000000  0.4850200000000  0.5057110000000 1.0
C      1  0.5326720000000  0.5407620000000  0.4720520000000 1.0
C      1  0.4766730000000  0.5664560000000  0.5055470000000 1.0
C      1  0.4968020000000  0.5832730000000  0.4275450000000 1.0
C      1  0.5462730000000  0.5966150000000  0.5419940000000 1.0
C      1  0.4944560000000  0.6195190000000  0.5307440000000 1.0
C      1  0.4821030000000  0.6091660000000  0.4837390000000 1.0
C      1  0.5798580000000  0.4363440000000  0.5202010000000 1.0
C      1  0.4839890000000  0.4860960000000  0.5449950000000 1.0
C      1  0.5113650000000  0.4311260000000  0.4799750000000 1.0
C      1  0.4683320000000  0.5022950000000  0.4521360000000 1.0
C      1  0.5363470000000  0.4473020000000  0.4866670000000 1.0
C      1  0.5116160000000  0.4253890000000  0.5793330000000 1.0
C      1  0.5076370000000  0.4716200000000  0.5533200000000 1.0
C      1  0.5234010000000  0.4798770000000  0.4533980000000 1.0
C      1  0.5079010000000  0.4917360000000  0.6135430000000 1.0
C      1  0.4633600000000  0.4048560000000  0.4633770000000 1.0
C      1  0.3925570000000  0.4583140000000  0.4958230000000 1.0
C      1  0.4842760000000  0.4371040000000  0.4868110000000 1.0
C      1  0.4119330000000  0.4364240000000  0.4974150000000 1.0
C      1  0.5731740000000  0.4513780000000  0.4467930000000 1.0
C      1  0.5083170000000  0.5646310000000  0.5106650000000 1.0
C      1  0.5353940000000  0.5446920000000  0.6026290000000 1.0
C      1  0.4407110000000  0.4693490000000  0.4188130000000 1.0
C      1  0.4321650000000  0.4349620000000  0.4789220000000 1.0
C      1  0.5825690000000  0.5420250000000  0.5053250000000 1.0
C      1  0.5204060000000  0.3936810000000  0.5091010000000 1.0
C      1  0.4612670000000  0.5822760000000  0.5302460000000 1.0
C      1  0.5178030000000  0.5387460000000  0.5568660000000 1.0
C      1  0.5184460000000  0.4658810000000  0.5269320000000 1.0
C      1  0.5993740000000  0.5341480000000  0.5318550000000 1.0
C      1  0.4480640000000  0.5608470000000  0.4280090000000 1.0
C      1  0.4908340000000  0.5123390000000  0.5351500000000 1.0
C      1  0.4679430000000  0.5839550000000  0.4829320000000 1.0
C      1  0.4238650000000  0.4895770000000  0.4330210000000 1.0
C      1  0.5051320000000  0.4934770000000  0.3848750000000 1.0
C      1  0.3928970000000  0.5156280000000  0.5135760000000 1.0
C      1  0.4646070000000  0.4759840000000  0.5236300000000 1.0
C      1  0.4724010000000  0.5711390000000  0.5831060000000 1.0
C      1  0.4789660000000  0.4645730000000  0.4801940000000 1.0
C      1  0.5637170000000  0.4567040000000  0.4189420000000 1.0
C      1  0.4301960000000  0.5017240000000  0.4887180000000 1.0
C      1  0.4491220000000  0.4171860000000  0.5191090000000 1.0
C      1  0.5560010000000  0.4804510000000  0.5455410000000 1.0
C      1  0.4190330000000  0.5240450000000  0.5783850000000 1.0
C      1  0.4502160000000  0.5285930000000  0.5277230000000 1.0
C      1  0.5549060000000  0.5829300000000  0.5686180000000 1.0
C      1  0.4661300000000  0.5321810000000  0.4786420000000 1.0
C      1  0.5840910000000  0.4869310000000  0.5403710000000 1.0
C      1  0.4661430000000  0.5852070000000  0.4302450000000 1.0
C      1  0.5442370000000  0.5282930000000  0.5502820000000 1.0
C      1  0.4863960000000  0.5235280000000  0.4610630000000 1.0
C      1  0.4481140000000  0.5137750000000  0.4695410000000 1.0
C      1  0.4493260000000  0.4357470000000  0.5666910000000 1.0
C      1  0.5676040000000  0.5829270000000  0.5241290000000 1.0
C      1  0.6019080000000  0.5058370000000  0.4908020000000 1.0
C      1  0.5112690000000  0.3864220000000  0.4635060000000 1.0
C      1  0.6169060000000  0.5175940000000  0.5128110000000 1.0
C      1  0.4576670000000  0.4754360000000  0.3954220000000 1.0
C      1  0.4397460000000  0.5042950000000  0.5873850000000 1.0
C      1  0.4488580000000  0.5626130000000  0.5800420000000 1.0
C      1  0.4398470000000  0.5820110000000  0.4725840000000 1.0
C      1  0.4308610000000  0.5621260000000  0.4505130000000 1.0
C      1  0.4487200000000  0.5331410000000  0.4179120000000 1.0
C      1  0.4528330000000  0.6025080000000  0.4491350000000 1.0
C      1  0.4737080000000  0.4738370000000  0.4530800000000 1.0
C      1  0.5844020000000  0.4263410000000  0.4938710000000 1.0
C      1  0.4109400000000  0.5516730000000  0.5033010000000 1.0
C      1  0.5214720000000  0.6075870000000  0.5366370000000 1.0
C      1  0.5562510000000  0.4029920000000  0.4721440000000 1.0
C      1  0.4558090000000  0.4213680000000  0.4883040000000 1.0
C      1  0.5400940000000  0.5824100000000  0.4462770000000 1.0
C      1  0.4986820000000  0.5714240000000  0.5729700000000 1.0
C      1  0.5013950000000  0.5349260000000  0.4055990000000 1.0
C      1  0.4602320000000  0.4290750000000  0.5428830000000 1.0
C      1  0.4373790000000  0.5900540000000  0.5198120000000 1.0
C      1  0.4282590000000  0.5494130000000  0.5764280000000 1.0
C      1  0.4680340000000  0.4477560000000  0.3951210000000 1.0
C      1  0.4852040000000  0.5103400000000  0.6126350000000 1.0
C      1  0.5309750000000  0.4773960000000  0.4808400000000 1.0
C      1  0.5528980000000  0.4964070000000  0.4766590000000 1.0
C      1  0.5735610000000  0.5607960000000  0.5657160000000 1.0
C      1  0.5683180000000  0.5825060000000  0.4943430000000 1.0
C      1  0.5840040000000  0.5651570000000  0.5395340000000 1.0
C      1  0.6343990000000  0.4962390000000  0.5240330000000 1.0
C      1  0.5248390000000  0.5390010000000  0.5040630000000 1.0
C      1  0.5186210000000  0.5194220000000  0.3853430000000 1.0
C      1  0.5676790000000  0.5289170000000  0.5689810000000 1.0
C      1  0.5650550000000  0.4863020000000  0.4216290000000 1.0
C      1  0.5395010000000  0.5639780000000  0.4232070000000 1.0
C      1  0.5187680000000  0.5173910000000  0.4277230000000 1.0
C      1  0.5132010000000  0.5281580000000  0.4539350000000 1.0
C      1  0.4270240000000  0.5187690000000  0.4324360000000 1.0
C      1  0.5918740000000  0.5675100000000  0.4878080000000 1.0
C      1  0.4949890000000  0.4650650000000  0.6118260000000 1.0
C      1  0.4200060000000  0.4442320000000  0.5217410000000 1.0
C      1  0.4769670000000  0.4980810000000  0.3924830000000 1.0
C      1  0.4011810000000  0.4632230000000  0.5249280000000 1.0
C      1  0.4212230000000  0.5387120000000  0.5283080000000 1.0
C      1  0.5158330000000  0.4649860000000  0.3872950000000 1.0
C      1  0.5758980000000  0.4959140000000  0.4923520000000 1.0
C      1  0.5950960000000  0.4782030000000  0.4867860000000 1.0
C      1  0.5626250000000  0.4327170000000  0.4709210000000 1.0
C      1  0.5173860000000  0.4586630000000  0.4342480000000 1.0
C      1  0.4826650000000  0.4830480000000  0.5016880000000 1.0
C      1  0.4427550000000  0.4771990000000  0.4954400000000 1.0
C      1  0.5029850000000  0.5209320000000  0.5736680000000 1.0
C      1  0.5409970000000  0.4573440000000  0.4002510000000 1.0
C      1  0.5837590000000  0.4991850000000  0.4387180000000 1.0
C      1  0.4856700000000  0.6212120000000  0.5034560000000 1.0
C      1  0.4663120000000  0.4690730000000  0.6113520000000 1.0
C      1  0.5340170000000  0.3871420000000  0.4833140000000 1.0
C      1  0.4890630000000  0.5342540000000  0.5957040000000 1.0
C      1  0.5695310000000  0.5256980000000  0.4397710000000 1.0
C      1  0.4680370000000  0.6085910000000  0.5364660000000 1.0
C      1  0.5305900000000  0.4084170000000  0.5324830000000 1.0
C      1  0.5487610000000  0.5204780000000  0.5942630000000 1.0
C      1  0.4223930000000  0.5788160000000  0.4990500000000 1.0
C      1  0.3971740000000  0.5083960000000  0.4882900000000 1.0
C      1  0.4786950000000  0.4029160000000  0.4161690000000 1.0
C      1  0.5082810000000  0.5573290000000  0.5976710000000 1.0
C      1  0.4980280000000  0.4775950000000  0.4402970000000 1.0
END
