TITL C-884133-6611-422 20.0336400946649 125000 -21191.6639950606 0 0 142 (C1) n - 1
REM
REM in /home/nfs/bkarasulu/CARBON/AIRSS/Generating-Clusters/ReaxFF-fromJPCA2015/Units_Real/with-SteepDescent/Only-C1/SD-CG/Try1-3A/FIRE-CG
REM
REM
REM
REM
REM
REM ./C.cell (11c1c37f851c82e70ff6c80c92926a4b)
REM
REM compiler GCC version 9.2.1 20190827 (Red Hat 9.2.1-1)
REM options -cpp -mtune=generic -march=x86-64 -g -O0 -fpre-include=/usr/include/finclude/math-vector-fortran.h
REM seed -127266314 19631793 -267190826 750654913 -1764004388 -835089398 1454344778 -459861003 2051111957 1808590469 684929626 676062274 -1887749253 -1833615394 -1595539565 580568387 1839980993 -1629172157 1748989485 1928643527 1773227135 -1116821094 -622599733 -1308177852 1495067720 600382492 -1552222171 -1490145952 961685855 1193831608 -1777193524 -225813444 194932409
REM
CELL 1.54180   50.00000   50.00000   50.00000   90.00000   90.00000   90.00000
LATT -1
SFAC C  
C      1  0.5109960000000  0.4381730000000  0.5769970000000 1.0
C      1  0.5870160000000  0.5468820000000  0.4911740000000 1.0
C      1  0.5387470000000  0.4430530000000  0.4336870000000 1.0
C      1  0.4865420000000  0.5191050000000  0.5031010000000 1.0
C      1  0.4879400000000  0.5419460000000  0.5796300000000 1.0
C      1  0.5506250000000  0.5596590000000  0.4566030000000 1.0
C      1  0.4430380000000  0.5705640000000  0.5035790000000 1.0
C      1  0.4746350000000  0.5170270000000  0.4240720000000 1.0
C      1  0.4791820000000  0.4349060000000  0.4298230000000 1.0
C      1  0.5533740000000  0.4876460000000  0.4423990000000 1.0
C      1  0.5370840000000  0.5090860000000  0.5306580000000 1.0
C      1  0.4948960000000  0.4708470000000  0.4926350000000 1.0
C      1  0.4761830000000  0.4254580000000  0.5126770000000 1.0
C      1  0.4888870000000  0.4802280000000  0.5331180000000 1.0
C      1  0.5434200000000  0.5019690000000  0.4156570000000 1.0
C      1  0.5248030000000  0.4838620000000  0.4600680000000 1.0
C      1  0.5376120000000  0.4604820000000  0.4799790000000 1.0
C      1  0.5765780000000  0.4861740000000  0.5576320000000 1.0
C      1  0.4031050000000  0.4835040000000  0.5117200000000 1.0
C      1  0.4372590000000  0.5624890000000  0.5294050000000 1.0
C      1  0.5625700000000  0.4590510000000  0.4389540000000 1.0
C      1  0.5210090000000  0.5982110000000  0.4693930000000 1.0
C      1  0.4321740000000  0.5078610000000  0.5038950000000 1.0
C      1  0.5204840000000  0.4867120000000  0.4071390000000 1.0
C      1  0.4583070000000  0.5296650000000  0.4673310000000 1.0
C      1  0.5159370000000  0.5286820000000  0.5366210000000 1.0
C      1  0.4151220000000  0.4874970000000  0.5414590000000 1.0
C      1  0.4539060000000  0.5667790000000  0.4496520000000 1.0
C      1  0.4210710000000  0.4618530000000  0.5557870000000 1.0
C      1  0.4746500000000  0.5941700000000  0.4885170000000 1.0
C      1  0.5140790000000  0.4500690000000  0.4934780000000 1.0
C      1  0.5253580000000  0.4046260000000  0.5037670000000 1.0
C      1  0.5328580000000  0.5437940000000  0.4760550000000 1.0
C      1  0.4044710000000  0.5063250000000  0.4629880000000 1.0
C      1  0.5818270000000  0.5523830000000  0.4631810000000 1.0
C      1  0.4611270000000  0.4404310000000  0.5850480000000 1.0
C      1  0.5312710000000  0.5911200000000  0.4961060000000 1.0
C      1  0.4147440000000  0.4956530000000  0.4881370000000 1.0
C      1  0.4773300000000  0.4764370000000  0.4019520000000 1.0
C      1  0.4158430000000  0.4821310000000  0.4514020000000 1.0
C      1  0.5153950000000  0.5737760000000  0.5578580000000 1.0
C      1  0.4919420000000  0.5950760000000  0.4655330000000 1.0
C      1  0.5387920000000  0.5695930000000  0.4311520000000 1.0
C      1  0.4803360000000  0.4866700000000  0.5850420000000 1.0
C      1  0.5348410000000  0.4734400000000  0.5831220000000 1.0
C      1  0.4536560000000  0.4485970000000  0.4305480000000 1.0
C      1  0.5838260000000  0.4411600000000  0.4825020000000 1.0
C      1  0.4855380000000  0.3981570000000  0.4654510000000 1.0
C      1  0.6021280000000  0.4756130000000  0.4671270000000 1.0
C      1  0.5352190000000  0.5606030000000  0.5009800000000 1.0
C      1  0.4693270000000  0.4145900000000  0.4840680000000 1.0
C      1  0.4606220000000  0.4673010000000  0.5929040000000 1.0
C      1  0.4168430000000  0.5389680000000  0.5364010000000 1.0
C      1  0.5049380000000  0.4968600000000  0.4993180000000 1.0
C      1  0.5593170000000  0.5185010000000  0.5124150000000 1.0
C      1  0.5088100000000  0.5518370000000  0.5180580000000 1.0
C      1  0.4430460000000  0.4180010000000  0.5428500000000 1.0
C      1  0.4829740000000  0.4994790000000  0.5544230000000 1.0
C      1  0.4923720000000  0.5569120000000  0.4027510000000 1.0
C      1  0.4655340000000  0.5288880000000  0.5189910000000 1.0
C      1  0.5989240000000  0.4640370000000  0.4933880000000 1.0
C      1  0.4816360000000  0.5755300000000  0.4453090000000 1.0
C      1  0.4652750000000  0.4896930000000  0.4630310000000 1.0
C      1  0.4156950000000  0.5398540000000  0.4887220000000 1.0
C      1  0.4086180000000  0.4578780000000  0.4972130000000 1.0
C      1  0.5066770000000  0.4386160000000  0.5196920000000 1.0
C      1  0.4366140000000  0.4423750000000  0.4545300000000 1.0
C      1  0.5257520000000  0.4247760000000  0.4528550000000 1.0
C      1  0.4419100000000  0.5392580000000  0.4451470000000 1.0
C      1  0.4605300000000  0.5081100000000  0.5947090000000 1.0
C      1  0.4202220000000  0.5171830000000  0.5540370000000 1.0
C      1  0.4210350000000  0.4357580000000  0.5415750000000 1.0
C      1  0.4929750000000  0.4096730000000  0.5521080000000 1.0
C      1  0.5374630000000  0.4804960000000  0.5317150000000 1.0
C      1  0.4929490000000  0.5451090000000  0.4933380000000 1.0
C      1  0.5883160000000  0.5103960000000  0.5485060000000 1.0
C      1  0.4860450000000  0.4260770000000  0.5754020000000 1.0
C      1  0.5408140000000  0.5877800000000  0.4513430000000 1.0
C      1  0.5859660000000  0.4541620000000  0.4554100000000 1.0
C      1  0.5226070000000  0.4587480000000  0.4151300000000 1.0
C      1  0.5330260000000  0.5359160000000  0.5911820000000 1.0
C      1  0.5883070000000  0.4780710000000  0.5147520000000 1.0
C      1  0.5569290000000  0.5223230000000  0.5795090000000 1.0
C      1  0.4432620000000  0.4925970000000  0.5270870000000 1.0
C      1  0.4385670000000  0.4564750000000  0.5778170000000 1.0
C      1  0.5637580000000  0.5497500000000  0.5122940000000 1.0
C      1  0.4992520000000  0.5224580000000  0.5586410000000 1.0
C      1  0.5209550000000  0.5112870000000  0.5977430000000 1.0
C      1  0.4586560000000  0.5121800000000  0.5423560000000 1.0
C      1  0.5157480000000  0.6080440000000  0.5151470000000 1.0
C      1  0.4437730000000  0.5246760000000  0.5703610000000 1.0
C      1  0.5571650000000  0.4922150000000  0.5778060000000 1.0
C      1  0.5373310000000  0.4173230000000  0.4816680000000 1.0
C      1  0.4474600000000  0.5034540000000  0.4244750000000 1.0
C      1  0.4416120000000  0.4921480000000  0.4487120000000 1.0
C      1  0.4553100000000  0.4467390000000  0.5130700000000 1.0
C      1  0.5058140000000  0.5403240000000  0.4683210000000 1.0
C      1  0.4682770000000  0.4068410000000  0.5373090000000 1.0
C      1  0.5702700000000  0.5319570000000  0.4278660000000 1.0
C      1  0.5251550000000  0.5055730000000  0.4798760000000 1.0
C      1  0.5916100000000  0.5059210000000  0.5177200000000 1.0
C      1  0.5749530000000  0.5336070000000  0.5594900000000 1.0
C      1  0.5109860000000  0.4857470000000  0.5952180000000 1.0
C      1  0.5652520000000  0.5561770000000  0.5422650000000 1.0
C      1  0.4937130000000  0.4988860000000  0.4049210000000 1.0
C      1  0.5134930000000  0.4654290000000  0.5323220000000 1.0
C      1  0.4617800000000  0.5659790000000  0.5455120000000 1.0
C      1  0.5411080000000  0.5665590000000  0.5514180000000 1.0
C      1  0.5142350000000  0.5576290000000  0.5815930000000 1.0
C      1  0.5612660000000  0.4303020000000  0.4975750000000 1.0
C      1  0.4512240000000  0.5789960000000  0.4784260000000 1.0
C      1  0.5913580000000  0.5318630000000  0.4459980000000 1.0
C      1  0.4154910000000  0.4582020000000  0.4681200000000 1.0
C      1  0.5681220000000  0.4684890000000  0.5323760000000 1.0
C      1  0.5361790000000  0.4446970000000  0.5717210000000 1.0
C      1  0.5672310000000  0.5014390000000  0.4655330000000 1.0
C      1  0.5608310000000  0.4385520000000  0.5261990000000 1.0
C      1  0.4150460000000  0.5332830000000  0.4607140000000 1.0
C      1  0.4513810000000  0.4753220000000  0.4140970000000 1.0
C      1  0.4801490000000  0.5145420000000  0.4563810000000 1.0
C      1  0.5202650000000  0.5517450000000  0.4207910000000 1.0
C      1  0.4908820000000  0.5741130000000  0.5358310000000 1.0
C      1  0.4600810000000  0.4386820000000  0.4709190000000 1.0
C      1  0.4881330000000  0.5958240000000  0.5159020000000 1.0
C      1  0.5200350000000  0.4133900000000  0.5337420000000 1.0
C      1  0.4604120000000  0.5498930000000  0.5681610000000 1.0
C      1  0.4064740000000  0.5251130000000  0.5125540000000 1.0
C      1  0.5037690000000  0.5553170000000  0.4449140000000 1.0
C      1  0.4978440000000  0.4183290000000  0.4460160000000 1.0
C      1  0.4799080000000  0.4660470000000  0.4696150000000 1.0
C      1  0.5451640000000  0.5302370000000  0.4155940000000 1.0
C      1  0.4465580000000  0.5314380000000  0.4944250000000 1.0
C      1  0.4756680000000  0.5279010000000  0.6076760000000 1.0
C      1  0.5430750000000  0.4293530000000  0.5458550000000 1.0
C      1  0.4260570000000  0.4397340000000  0.5121890000000 1.0
C      1  0.4995560000000  0.4731260000000  0.4499470000000 1.0
C      1  0.5516110000000  0.5065300000000  0.4871270000000 1.0
C      1  0.4956180000000  0.4587910000000  0.4228770000000 1.0
C      1  0.4711490000000  0.5467210000000  0.4180680000000 1.0
C      1  0.5999180000000  0.5218210000000  0.4934070000000 1.0
C      1  0.4631430000000  0.4710090000000  0.5236010000000 1.0
C      1  0.5971080000000  0.5068780000000  0.4670680000000 1.0
END
