TITL C-884141-4321-338 -27.5219261172796 125000 -20251.8463215364 0 0 136 (C1) n - 1
REM
REM in /home/nfs/bkarasulu/CARBON/AIRSS/Generating-Clusters/ReaxFF-fromJPCA2015/Units_Real/with-SteepDescent/Only-C1/SD-CG/Try1-3A/FIRE-CG
REM
REM
REM
REM
REM
REM ./C.cell (11c1c37f851c82e70ff6c80c92926a4b)
REM
REM compiler GCC version 9.2.1 20190827 (Red Hat 9.2.1-1)
REM options -cpp -mtune=generic -march=x86-64 -g -O0 -fpre-include=/usr/include/finclude/math-vector-fortran.h
REM seed -1743167477 -322879207 420472386 1972644401 1462473410 -1962627325 1215750019 889624205 -1301321179 726996355 -1888948680 2054254738 -1512078579 284719939 -815668811 1391910088 857845335 46657371 -1476454671 880659968 1247540610 1751106388 1485469817 1480476731 114017955 1655874587 1634544710 -1022658643 -1820578330 1829480988 1132470274 -2132027702 -1485743571
REM
CELL 1.54180   50.00000   50.00000   50.00000   90.00000   90.00000   90.00000
LATT -1
SFAC C  
C      1  0.5000070000000  0.4217970000000  0.5600990000000 1.0
C      1  0.5129210000000  0.5895500000000  0.4652510000000 1.0
C      1  0.5275190000000  0.4783710000000  0.4651850000000 1.0
C      1  0.5355400000000  0.4917890000000  0.5436630000000 1.0
C      1  0.4590140000000  0.4881770000000  0.4764080000000 1.0
C      1  0.5950090000000  0.5191700000000  0.5240060000000 1.0
C      1  0.4894560000000  0.5217760000000  0.4191890000000 1.0
C      1  0.5366550000000  0.4777010000000  0.5946360000000 1.0
C      1  0.5743970000000  0.5632450000000  0.5031880000000 1.0
C      1  0.5399660000000  0.4436330000000  0.4194240000000 1.0
C      1  0.5256000000000  0.5732970000000  0.4437130000000 1.0
C      1  0.4094450000000  0.4832070000000  0.5259310000000 1.0
C      1  0.4410100000000  0.5703940000000  0.4761250000000 1.0
C      1  0.4517710000000  0.4691120000000  0.4272610000000 1.0
C      1  0.5340270000000  0.4250410000000  0.4414290000000 1.0
C      1  0.4805810000000  0.4726080000000  0.4449640000000 1.0
C      1  0.4337890000000  0.4914460000000  0.5392410000000 1.0
C      1  0.4709520000000  0.5017640000000  0.4087310000000 1.0
C      1  0.5778110000000  0.4825690000000  0.4368430000000 1.0
C      1  0.4605460000000  0.4266640000000  0.4406690000000 1.0
C      1  0.5559380000000  0.4566390000000  0.5121130000000 1.0
C      1  0.4812840000000  0.4429810000000  0.4872400000000 1.0
C      1  0.5059130000000  0.4414270000000  0.5812930000000 1.0
C      1  0.4483500000000  0.5141540000000  0.5925330000000 1.0
C      1  0.5648430000000  0.4570680000000  0.4261490000000 1.0
C      1  0.4458630000000  0.5410950000000  0.4333270000000 1.0
C      1  0.4460400000000  0.4668440000000  0.5369550000000 1.0
C      1  0.5615150000000  0.5130460000000  0.4439140000000 1.0
C      1  0.4367710000000  0.5624080000000  0.5035470000000 1.0
C      1  0.4964800000000  0.5105200000000  0.5918360000000 1.0
C      1  0.5357520000000  0.5507940000000  0.5016290000000 1.0
C      1  0.4341120000000  0.5457810000000  0.4602930000000 1.0
C      1  0.4288660000000  0.4494900000000  0.4920070000000 1.0
C      1  0.4998560000000  0.5998020000000  0.5116530000000 1.0
C      1  0.4243280000000  0.5252180000000  0.4804010000000 1.0
C      1  0.4904570000000  0.4502370000000  0.4107660000000 1.0
C      1  0.5468560000000  0.4299140000000  0.4682440000000 1.0
C      1  0.5654060000000  0.5251440000000  0.5791670000000 1.0
C      1  0.5659840000000  0.4277700000000  0.5190860000000 1.0
C      1  0.4734600000000  0.3999350000000  0.5099220000000 1.0
C      1  0.5109320000000  0.5113100000000  0.4037700000000 1.0
C      1  0.4861460000000  0.4261030000000  0.4301380000000 1.0
C      1  0.5404430000000  0.5062960000000  0.5199500000000 1.0
C      1  0.5952200000000  0.4765430000000  0.4617810000000 1.0
C      1  0.4834520000000  0.5541410000000  0.4988580000000 1.0
C      1  0.5925750000000  0.4980630000000  0.5434240000000 1.0
C      1  0.4907980000000  0.4622820000000  0.5965220000000 1.0
C      1  0.4702250000000  0.5218750000000  0.5522420000000 1.0
C      1  0.5221160000000  0.5532920000000  0.5405550000000 1.0
C      1  0.4958060000000  0.5405190000000  0.5972930000000 1.0
C      1  0.5829740000000  0.5455540000000  0.4819630000000 1.0
C      1  0.5486940000000  0.5284040000000  0.4231510000000 1.0
C      1  0.4609350000000  0.4159670000000  0.5284220000000 1.0
C      1  0.4620690000000  0.5159730000000  0.4690450000000 1.0
C      1  0.5083330000000  0.4132320000000  0.4459750000000 1.0
C      1  0.5179090000000  0.4577430000000  0.4053310000000 1.0
C      1  0.4150090000000  0.4746560000000  0.4984880000000 1.0
C      1  0.5499170000000  0.5460350000000  0.5857730000000 1.0
C      1  0.4381680000000  0.4419240000000  0.4388080000000 1.0
C      1  0.4903570000000  0.5046980000000  0.5644640000000 1.0
C      1  0.5842330000000  0.4506330000000  0.5188410000000 1.0
C      1  0.4538900000000  0.5177670000000  0.5280220000000 1.0
C      1  0.4653530000000  0.4624660000000  0.5199260000000 1.0
C      1  0.4328390000000  0.4541290000000  0.5584550000000 1.0
C      1  0.5777800000000  0.5433680000000  0.5246110000000 1.0
C      1  0.4279240000000  0.5343560000000  0.5096910000000 1.0
C      1  0.4103120000000  0.4916330000000  0.4489460000000 1.0
C      1  0.4592480000000  0.5366460000000  0.5757500000000 1.0
C      1  0.5210440000000  0.5537810000000  0.5913140000000 1.0
C      1  0.4904050000000  0.3962810000000  0.4915990000000 1.0
C      1  0.4771490000000  0.5405100000000  0.4726160000000 1.0
C      1  0.4958040000000  0.4631900000000  0.5320780000000 1.0
C      1  0.5700180000000  0.4635920000000  0.5605040000000 1.0
C      1  0.5510250000000  0.5322590000000  0.5164290000000 1.0
C      1  0.5183610000000  0.4854210000000  0.4151390000000 1.0
C      1  0.4545760000000  0.4406020000000  0.5723230000000 1.0
C      1  0.4225590000000  0.4809590000000  0.5652400000000 1.0
C      1  0.4333890000000  0.4412220000000  0.4663280000000 1.0
C      1  0.4626590000000  0.4627410000000  0.5894800000000 1.0
C      1  0.5111810000000  0.4005340000000  0.4729420000000 1.0
C      1  0.5208640000000  0.5935830000000  0.4926810000000 1.0
C      1  0.4645040000000  0.5600090000000  0.4211070000000 1.0
C      1  0.5149480000000  0.5206030000000  0.4688570000000 1.0
C      1  0.4832010000000  0.5806620000000  0.4307970000000 1.0
C      1  0.4427380000000  0.4859340000000  0.5872740000000 1.0
C      1  0.5079530000000  0.5660940000000  0.4188430000000 1.0
C      1  0.4138800000000  0.4973720000000  0.4778200000000 1.0
C      1  0.5087660000000  0.4422740000000  0.4934070000000 1.0
C      1  0.5345850000000  0.4539820000000  0.4827620000000 1.0
C      1  0.4621160000000  0.5913020000000  0.4763920000000 1.0
C      1  0.5082160000000  0.4787520000000  0.5143580000000 1.0
C      1  0.5071120000000  0.4789330000000  0.4421130000000 1.0
C      1  0.5728990000000  0.4576450000000  0.4535920000000 1.0
C      1  0.4844970000000  0.5918480000000  0.4577010000000 1.0
C      1  0.5267370000000  0.5415680000000  0.5653630000000 1.0
C      1  0.4552620000000  0.6079280000000  0.5257170000000 1.0
C      1  0.5966340000000  0.4976160000000  0.4784460000000 1.0
C      1  0.5411710000000  0.4123820000000  0.5166260000000 1.0
C      1  0.4718160000000  0.4630030000000  0.4694870000000 1.0
C      1  0.4839360000000  0.5791050000000  0.5592140000000 1.0
C      1  0.4711870000000  0.4719750000000  0.4049020000000 1.0
C      1  0.4748440000000  0.5104180000000  0.5091230000000 1.0
C      1  0.4870770000000  0.5487310000000  0.4059120000000 1.0
C      1  0.5244850000000  0.4621860000000  0.5730880000000 1.0
C      1  0.5485780000000  0.5596780000000  0.4504910000000 1.0
C      1  0.4311120000000  0.4916870000000  0.4276460000000 1.0
C      1  0.5176310000000  0.4155220000000  0.5364910000000 1.0
C      1  0.5391080000000  0.5051580000000  0.4631170000000 1.0
C      1  0.5213570000000  0.4957370000000  0.5000590000000 1.0
C      1  0.5700280000000  0.5433590000000  0.4554440000000 1.0
C      1  0.5025110000000  0.5178110000000  0.4993270000000 1.0
C      1  0.4797350000000  0.5581270000000  0.5803590000000 1.0
C      1  0.5301440000000  0.5803810000000  0.5357780000000 1.0
C      1  0.5917800000000  0.4691210000000  0.5408190000000 1.0
C      1  0.4644490000000  0.4850810000000  0.5029180000000 1.0
C      1  0.4576420000000  0.4373240000000  0.5053960000000 1.0
C      1  0.4961850000000  0.5313030000000  0.4518110000000 1.0
C      1  0.5968310000000  0.5199070000000  0.4939260000000 1.0
C      1  0.5100050000000  0.4381810000000  0.5222050000000 1.0
C      1  0.4630000000000  0.5628210000000  0.5163630000000 1.0
C      1  0.4620990000000  0.5819370000000  0.5402920000000 1.0
C      1  0.5258300000000  0.5361080000000  0.4099080000000 1.0
C      1  0.5801510000000  0.5034200000000  0.5718910000000 1.0
C      1  0.3903210000000  0.5067430000000  0.5281550000000 1.0
C      1  0.5639200000000  0.4810480000000  0.5835360000000 1.0
C      1  0.4718910000000  0.6051580000000  0.5011810000000 1.0
C      1  0.4473350000000  0.5143100000000  0.4200060000000 1.0
C      1  0.5092200000000  0.5442040000000  0.5111010000000 1.0
C      1  0.4712780000000  0.4227980000000  0.5552940000000 1.0
C      1  0.5037040000000  0.5920310000000  0.5404160000000 1.0
C      1  0.5098380000000  0.4825300000000  0.5554860000000 1.0
C      1  0.5498380000000  0.4676380000000  0.5395300000000 1.0
C      1  0.5088930000000  0.4858990000000  0.6026310000000 1.0
C      1  0.5435670000000  0.5788420000000  0.5072010000000 1.0
C      1  0.4006000000000  0.5338790000000  0.5244940000000 1.0
C      1  0.5360740000000  0.4100670000000  0.4869250000000 1.0
END
