TITL C-883736-9678-426 15.440270889486 125000 -24938.995758326 0 0 165 (C1) n - 1
REM
REM in /home/nfs/bkarasulu/CARBON/AIRSS/Generating-Clusters/ReaxFF-fromJPCA2015/Units_Real/with-SteepDescent/Only-C1/SD-CG/Try1-3A/FIRE-CG
REM
REM
REM
REM
REM
REM ./C.cell (11c1c37f851c82e70ff6c80c92926a4b)
REM
REM compiler GCC version 9.2.1 20190827 (Red Hat 9.2.1-1)
REM options -cpp -mtune=generic -march=x86-64 -g -O0 -fpre-include=/usr/include/finclude/math-vector-fortran.h
REM seed 560533510 -1009549090 970643649 1312416445 -470321747 373240306 1369452319 -1347656252 743891664 1400769302 1779978281 673898764 -75404070 -1494422200 -1401595178 1762229029 73167694 591509495 -1710987689 882726803 -1052704327 1767413338 1810985265 -59707921 -782960663 1838457081 148584451 323452336 -281203206 1835984250 -218761165 981000054 2109652440
REM
CELL 1.54180   50.00000   50.00000   50.00000   90.00000   90.00000   90.00000
LATT -1
SFAC C  
C      1  0.5242980000000  0.5011600000000  0.4624210000000 1.0
C      1  0.5463180000000  0.4046160000000  0.5299340000000 1.0
C      1  0.4960220000000  0.5944820000000  0.4545580000000 1.0
C      1  0.4613980000000  0.5249030000000  0.5365340000000 1.0
C      1  0.4834770000000  0.5075470000000  0.4433880000000 1.0
C      1  0.5098100000000  0.6050700000000  0.5026840000000 1.0
C      1  0.4557860000000  0.4971800000000  0.5458520000000 1.0
C      1  0.4758940000000  0.3975390000000  0.5279720000000 1.0
C      1  0.5184840000000  0.5912180000000  0.4762610000000 1.0
C      1  0.5221250000000  0.6018290000000  0.5289020000000 1.0
C      1  0.5492640000000  0.5826310000000  0.4675260000000 1.0
C      1  0.4488220000000  0.4503960000000  0.5759200000000 1.0
C      1  0.5105170000000  0.5347050000000  0.5949510000000 1.0
C      1  0.4332290000000  0.4207650000000  0.5414050000000 1.0
C      1  0.5529350000000  0.4869800000000  0.5182000000000 1.0
C      1  0.4544340000000  0.5736300000000  0.5563350000000 1.0
C      1  0.5303400000000  0.5134770000000  0.5993990000000 1.0
C      1  0.4294080000000  0.4188280000000  0.4879870000000 1.0
C      1  0.4309810000000  0.4198020000000  0.5140560000000 1.0
C      1  0.4307900000000  0.5599540000000  0.5452800000000 1.0
C      1  0.5256490000000  0.5116850000000  0.5506630000000 1.0
C      1  0.5020100000000  0.5444860000000  0.4067320000000 1.0
C      1  0.4118110000000  0.4420960000000  0.4766190000000 1.0
C      1  0.5754360000000  0.4729850000000  0.5283110000000 1.0
C      1  0.4952460000000  0.5177720000000  0.3972610000000 1.0
C      1  0.4308130000000  0.4967100000000  0.5910590000000 1.0
C      1  0.5684570000000  0.5427080000000  0.5791430000000 1.0
C      1  0.4638750000000  0.4194190000000  0.5459780000000 1.0
C      1  0.6012820000000  0.5267340000000  0.4792260000000 1.0
C      1  0.5912730000000  0.4974030000000  0.4435930000000 1.0
C      1  0.4649530000000  0.4837720000000  0.4123670000000 1.0
C      1  0.5257520000000  0.4539750000000  0.5343750000000 1.0
C      1  0.5856940000000  0.5413180000000  0.4581490000000 1.0
C      1  0.4814620000000  0.6086760000000  0.4985180000000 1.0
C      1  0.4600440000000  0.5249030000000  0.5932730000000 1.0
C      1  0.4482680000000  0.4402430000000  0.4172170000000 1.0
C      1  0.4452090000000  0.4680430000000  0.5049080000000 1.0
C      1  0.4986060000000  0.5790200000000  0.4304660000000 1.0
C      1  0.5957830000000  0.4476770000000  0.4831140000000 1.0
C      1  0.4223380000000  0.4820230000000  0.4281140000000 1.0
C      1  0.4392340000000  0.4675780000000  0.4100960000000 1.0
C      1  0.5169380000000  0.4652890000000  0.4909390000000 1.0
C      1  0.5806370000000  0.5486620000000  0.5519650000000 1.0
C      1  0.4775380000000  0.4407910000000  0.5300520000000 1.0
C      1  0.5355670000000  0.4181770000000  0.4508180000000 1.0
C      1  0.4463540000000  0.5887660000000  0.4749730000000 1.0
C      1  0.4505390000000  0.4812770000000  0.5783610000000 1.0
C      1  0.5809030000000  0.4420710000000  0.4580870000000 1.0
C      1  0.4195350000000  0.5495760000000  0.4588250000000 1.0
C      1  0.5121950000000  0.4318080000000  0.4400110000000 1.0
C      1  0.5945900000000  0.5267120000000  0.5371110000000 1.0
C      1  0.5595230000000  0.4595220000000  0.4670700000000 1.0
C      1  0.4699720000000  0.4534300000000  0.5061500000000 1.0
C      1  0.6065830000000  0.4756860000000  0.4862780000000 1.0
C      1  0.4261070000000  0.4597980000000  0.4541840000000 1.0
C      1  0.5351230000000  0.4489130000000  0.4784030000000 1.0
C      1  0.4087530000000  0.5263690000000  0.4450460000000 1.0
C      1  0.4991730000000  0.4368930000000  0.5867410000000 1.0
C      1  0.4096550000000  0.5461510000000  0.5017000000000 1.0
C      1  0.4369300000000  0.5716520000000  0.4532030000000 1.0
C      1  0.4900220000000  0.4904290000000  0.5074890000000 1.0
C      1  0.5123630000000  0.5464960000000  0.4637190000000 1.0
C      1  0.5413250000000  0.4997910000000  0.4080710000000 1.0
C      1  0.4200980000000  0.5350870000000  0.5582520000000 1.0
C      1  0.4953330000000  0.4715020000000  0.4069680000000 1.0
C      1  0.4982580000000  0.5558600000000  0.5118500000000 1.0
C      1  0.5065390000000  0.5638540000000  0.4848140000000 1.0
C      1  0.4778230000000  0.5620600000000  0.5690290000000 1.0
C      1  0.4549760000000  0.5524310000000  0.4119450000000 1.0
C      1  0.5008090000000  0.4619240000000  0.4375350000000 1.0
C      1  0.4817550000000  0.6181810000000  0.5564610000000 1.0
C      1  0.6043630000000  0.5212250000000  0.5077970000000 1.0
C      1  0.4573590000000  0.4079000000000  0.4816890000000 1.0
C      1  0.4655240000000  0.4017950000000  0.4541430000000 1.0
C      1  0.5406810000000  0.4902890000000  0.5647850000000 1.0
C      1  0.4514650000000  0.4463390000000  0.4453950000000 1.0
C      1  0.6017590000000  0.4844600000000  0.5362360000000 1.0
C      1  0.4610690000000  0.4897250000000  0.4464960000000 1.0
C      1  0.4264050000000  0.4442390000000  0.5578700000000 1.0
C      1  0.5610470000000  0.5177840000000  0.4831610000000 1.0
C      1  0.4662900000000  0.5094970000000  0.3984300000000 1.0
C      1  0.5499560000000  0.5023540000000  0.4624670000000 1.0
C      1  0.4352530000000  0.4810500000000  0.5292680000000 1.0
C      1  0.5565000000000  0.5404270000000  0.5010280000000 1.0
C      1  0.4016520000000  0.4564920000000  0.4977500000000 1.0
C      1  0.5590490000000  0.5181180000000  0.5918690000000 1.0
C      1  0.5687600000000  0.4641330000000  0.5856140000000 1.0
C      1  0.4140460000000  0.4664260000000  0.5430790000000 1.0
C      1  0.5556990000000  0.4760950000000  0.4175940000000 1.0
C      1  0.5626070000000  0.5599980000000  0.4529080000000 1.0
C      1  0.3948370000000  0.5033590000000  0.5203030000000 1.0
C      1  0.5199700000000  0.5611010000000  0.5881050000000 1.0
C      1  0.5573890000000  0.4152930000000  0.5054310000000 1.0
C      1  0.5065400000000  0.4899130000000  0.4453480000000 1.0
C      1  0.5571040000000  0.4496330000000  0.4233220000000 1.0
C      1  0.5649820000000  0.4831990000000  0.4484610000000 1.0
C      1  0.5194370000000  0.4572000000000  0.5949010000000 1.0
C      1  0.4376310000000  0.5871200000000  0.5030670000000 1.0
C      1  0.5811080000000  0.4317680000000  0.5044300000000 1.0
C      1  0.5407740000000  0.5793150000000  0.5332280000000 1.0
C      1  0.5005040000000  0.3880850000000  0.5391190000000 1.0
C      1  0.5136070000000  0.4958880000000  0.4004780000000 1.0
C      1  0.4808910000000  0.4032110000000  0.4998310000000 1.0
C      1  0.4850810000000  0.4910630000000  0.5373440000000 1.0
C      1  0.5222700000000  0.4176780000000  0.5777490000000 1.0
C      1  0.5456840000000  0.4484950000000  0.5870980000000 1.0
C      1  0.5140910000000  0.5211720000000  0.4763760000000 1.0
C      1  0.4927330000000  0.5155400000000  0.4931570000000 1.0
C      1  0.4579650000000  0.6027880000000  0.5162110000000 1.0
C      1  0.5563020000000  0.5237970000000  0.4191170000000 1.0
C      1  0.4921740000000  0.4466170000000  0.3892240000000 1.0
C      1  0.5699910000000  0.4950590000000  0.5754820000000 1.0
C      1  0.5101770000000  0.4032870000000  0.4956490000000 1.0
C      1  0.5441850000000  0.5566540000000  0.5719170000000 1.0
C      1  0.5009160000000  0.5778050000000  0.5726410000000 1.0
C      1  0.4222500000000  0.5665380000000  0.5184240000000 1.0
C      1  0.4887310000000  0.4656160000000  0.4876120000000 1.0
C      1  0.5928480000000  0.5043960000000  0.5546870000000 1.0
C      1  0.4730270000000  0.6011650000000  0.4714630000000 1.0
C      1  0.4594090000000  0.6008720000000  0.5453010000000 1.0
C      1  0.4323390000000  0.5243140000000  0.5833890000000 1.0
C      1  0.4231170000000  0.5105400000000  0.4239510000000 1.0
C      1  0.4732850000000  0.5308320000000  0.4803770000000 1.0
C      1  0.4725850000000  0.4347420000000  0.5750700000000 1.0
C      1  0.5034480000000  0.4376110000000  0.5391940000000 1.0
C      1  0.5267500000000  0.4752050000000  0.5152320000000 1.0
C      1  0.4701770000000  0.5461680000000  0.5195340000000 1.0
C      1  0.5235690000000  0.4861480000000  0.5882680000000 1.0
C      1  0.4919420000000  0.4121630000000  0.4432910000000 1.0
C      1  0.4849590000000  0.5326020000000  0.5778320000000 1.0
C      1  0.4353040000000  0.4767650000000  0.4782390000000 1.0
C      1  0.5752500000000  0.5628650000000  0.5091250000000 1.0
C      1  0.4738550000000  0.5337570000000  0.4531430000000 1.0
C      1  0.5693420000000  0.5710650000000  0.5366140000000 1.0
C      1  0.4075540000000  0.5101090000000  0.4696540000000 1.0
C      1  0.5333390000000  0.4187410000000  0.4826190000000 1.0
C      1  0.4568390000000  0.4969090000000  0.6017410000000 1.0
C      1  0.5066170000000  0.6020780000000  0.5549070000000 1.0
C      1  0.4568910000000  0.5534230000000  0.4409520000000 1.0
C      1  0.4442760000000  0.5253690000000  0.4073000000000 1.0
C      1  0.5215180000000  0.5568720000000  0.5293450000000 1.0
C      1  0.5173310000000  0.5538080000000  0.4331080000000 1.0
C      1  0.5499690000000  0.4431510000000  0.5452340000000 1.0
C      1  0.4821390000000  0.5648670000000  0.4096420000000 1.0
C      1  0.5222120000000  0.3913050000000  0.5189680000000 1.0
C      1  0.4364590000000  0.5039710000000  0.4685800000000 1.0
C      1  0.5607780000000  0.5136360000000  0.5113770000000 1.0
C      1  0.5820560000000  0.5234690000000  0.4347380000000 1.0
C      1  0.4302540000000  0.5393710000000  0.4837570000000 1.0
C      1  0.5347150000000  0.5396960000000  0.5482060000000 1.0
C      1  0.6123160000000  0.4930860000000  0.5094630000000 1.0
C      1  0.4967520000000  0.5113610000000  0.5539850000000 1.0
C      1  0.5047250000000  0.4124110000000  0.5549200000000 1.0
C      1  0.3952350000000  0.4713110000000  0.5205440000000 1.0
C      1  0.5659090000000  0.5797110000000  0.4892320000000 1.0
C      1  0.4695970000000  0.4300720000000  0.3984770000000 1.0
C      1  0.5477390000000  0.5486680000000  0.4300210000000 1.0
C      1  0.6064480000000  0.4988060000000  0.4677840000000 1.0
C      1  0.5615620000000  0.4272370000000  0.4398220000000 1.0
C      1  0.3978970000000  0.5201730000000  0.4962210000000 1.0
C      1  0.4739200000000  0.4638290000000  0.4551660000000 1.0
C      1  0.5760080000000  0.4438530000000  0.5306360000000 1.0
C      1  0.5453090000000  0.4177880000000  0.5580710000000 1.0
C      1  0.4065440000000  0.5178580000000  0.5406330000000 1.0
C      1  0.4556450000000  0.5452160000000  0.4937910000000 1.0
END
