TITL C-883739-1268-117 9.94724271050248e-06 125000 -3413.7214456054 0 0 25 (C1) n - 1
REM
REM in /home/nfs/bkarasulu/CARBON/AIRSS/Generating-Clusters/ReaxFF-fromJPCA2015/Units_Real/with-SteepDescent/Only-C1/SD-CG/Try1-3A/FIRE-CG
REM
REM
REM
REM
REM
REM ./C.cell (11c1c37f851c82e70ff6c80c92926a4b)
REM
REM compiler GCC version 9.2.1 20190827 (Red Hat 9.2.1-1)
REM options -cpp -mtune=generic -march=x86-64 -g -O0 -fpre-include=/usr/include/finclude/math-vector-fortran.h
REM seed 39593909 1036432530 -1744131343 993276874 1023438261 1097661468 1158897238 83293913 924601943 -133639734 964565438 83127193 -537773756 -593879896 1048442928 1036314269 1387278189 1895419975 491657122 -1708033286 72256396 1191104008 355232539 -787103289 -589884260 1506081351 238806108 -400900339 -272272876 -991621055 -364566125 -157312672 -1967322216
REM
CELL 1.54180   50.00000   50.00000   50.00000   90.00000   90.00000   90.00000
LATT -1
SFAC C  
C      1  0.4304860000000  0.4896910000000  0.5215980000000 1.0
C      1  0.5448910000000  0.5035800000000  0.4521100000000 1.0
C      1  0.5634960000000  0.4927160000000  0.5134860000000 1.0
C      1  0.5353570000000  0.5285360000000  0.4669430000000 1.0
C      1  0.5149720000000  0.4608910000000  0.4552140000000 1.0
C      1  0.4566650000000  0.4630880000000  0.4782110000000 1.0
C      1  0.4945380000000  0.4706410000000  0.4640850000000 1.0
C      1  0.5002160000000  0.4783030000000  0.5516080000000 1.0
C      1  0.4364650000000  0.4977910000000  0.4915520000000 1.0
C      1  0.5365990000000  0.5049310000000  0.5209710000000 1.0
C      1  0.5176220000000  0.5243060000000  0.5126430000000 1.0
C      1  0.5175320000000  0.5373600000000  0.4874290000000 1.0
C      1  0.4780910000000  0.4522190000000  0.4683650000000 1.0
C      1  0.4597050000000  0.4870440000000  0.4791550000000 1.0
C      1  0.4902440000000  0.5518400000000  0.4794770000000 1.0
C      1  0.5543000000000  0.4698710000000  0.5376830000000 1.0
C      1  0.4524620000000  0.4909430000000  0.5397320000000 1.0
C      1  0.4932470000000  0.5255660000000  0.5323530000000 1.0
C      1  0.5305230000000  0.4841030000000  0.5416670000000 1.0
C      1  0.4816540000000  0.4977460000000  0.5443050000000 1.0
C      1  0.4652950000000  0.5399530000000  0.4833240000000 1.0
C      1  0.5327490000000  0.4774590000000  0.4513290000000 1.0
C      1  0.4818800000000  0.5476830000000  0.5382840000000 1.0
C      1  0.4462540000000  0.5241770000000  0.4871560000000 1.0
C      1  0.5847560000000  0.4995650000000  0.5013220000000 1.0
END
