TITL C-884131-4643-404 72.5179034822096 125000 -28140.7852282008 0 0 190 (C1) n - 1
REM
REM in /home/nfs/bkarasulu/CARBON/AIRSS/Generating-Clusters/ReaxFF-fromJPCA2015/Units_Real/with-SteepDescent/Only-C1/SD-CG/Try1-3A/FIRE-CG
REM
REM
REM
REM
REM
REM ./C.cell (11c1c37f851c82e70ff6c80c92926a4b)
REM
REM compiler GCC version 9.2.1 20190827 (Red Hat 9.2.1-1)
REM options -cpp -mtune=generic -march=x86-64 -g -O0 -fpre-include=/usr/include/finclude/math-vector-fortran.h
REM seed -1009678579 653728186 -1115078428 -1138127359 -1457923275 -536021879 398736403 -1983298512 1096237446 1737396211 -881298382 -1215203349 475183309 526081829 1590733969 -1975284582 -1641258877 1099947108 1544127216 238342819 144763015 37234584 1024750611 -1463031243 -1974476415 246287399 1875532706 2035196499 104685818 1736533666 -1292338746 -560575934 1773612513
REM
CELL 1.54180   50.00000   50.00000   50.00000   90.00000   90.00000   90.00000
LATT -1
SFAC C  
C      1  0.3940880000000  0.4404800000000  0.4914570000000 1.0
C      1  0.5949430000000  0.5265260000000  0.5160150000000 1.0
C      1  0.4117990000000  0.4797220000000  0.4326800000000 1.0
C      1  0.4911120000000  0.4228620000000  0.5023980000000 1.0
C      1  0.5332740000000  0.3956140000000  0.4684210000000 1.0
C      1  0.6025580000000  0.5164090000000  0.4437310000000 1.0
C      1  0.5308480000000  0.4570620000000  0.4868760000000 1.0
C      1  0.4047390000000  0.5018900000000  0.5434170000000 1.0
C      1  0.5144180000000  0.5547760000000  0.5115720000000 1.0
C      1  0.4607020000000  0.4580360000000  0.4110550000000 1.0
C      1  0.4252200000000  0.5292110000000  0.4544150000000 1.0
C      1  0.4404540000000  0.5238930000000  0.5315250000000 1.0
C      1  0.4740280000000  0.4625530000000  0.5322790000000 1.0
C      1  0.5258830000000  0.5994640000000  0.4899860000000 1.0
C      1  0.4120160000000  0.4208890000000  0.5372960000000 1.0
C      1  0.4499560000000  0.5461380000000  0.4518200000000 1.0
C      1  0.5015520000000  0.4446420000000  0.4281020000000 1.0
C      1  0.4283020000000  0.4076740000000  0.4903500000000 1.0
C      1  0.4524920000000  0.3963330000000  0.5048880000000 1.0
C      1  0.5096330000000  0.4104620000000  0.5212800000000 1.0
C      1  0.4643670000000  0.4483020000000  0.5829680000000 1.0
C      1  0.5478180000000  0.6003840000000  0.5100700000000 1.0
C      1  0.5702130000000  0.4668460000000  0.4181920000000 1.0
C      1  0.3992720000000  0.4676730000000  0.4532580000000 1.0
C      1  0.5101650000000  0.4544930000000  0.5959520000000 1.0
C      1  0.4078940000000  0.4453820000000  0.5784910000000 1.0
C      1  0.5478040000000  0.4239640000000  0.4216130000000 1.0
C      1  0.5511450000000  0.4380230000000  0.4943620000000 1.0
C      1  0.5797420000000  0.4088440000000  0.5026450000000 1.0
C      1  0.4134380000000  0.5578640000000  0.4676490000000 1.0
C      1  0.5224300000000  0.5559440000000  0.5394190000000 1.0
C      1  0.4961350000000  0.5064870000000  0.3896270000000 1.0
C      1  0.4411480000000  0.5976580000000  0.5212040000000 1.0
C      1  0.4991040000000  0.5772560000000  0.5775420000000 1.0
C      1  0.5323760000000  0.5395000000000  0.4444290000000 1.0
C      1  0.4724690000000  0.5568420000000  0.5326660000000 1.0
C      1  0.5052590000000  0.5351930000000  0.3876100000000 1.0
C      1  0.4992010000000  0.4975270000000  0.4942140000000 1.0
C      1  0.5370640000000  0.4955890000000  0.6042100000000 1.0
C      1  0.4773030000000  0.5012500000000  0.4545810000000 1.0
C      1  0.4822260000000  0.4656490000000  0.5969380000000 1.0
C      1  0.4869810000000  0.5413700000000  0.5120770000000 1.0
C      1  0.5559770000000  0.4920640000000  0.4195020000000 1.0
C      1  0.4147330000000  0.5452640000000  0.5749450000000 1.0
C      1  0.5889730000000  0.5770630000000  0.4760540000000 1.0
C      1  0.5318160000000  0.5290330000000  0.3931980000000 1.0
C      1  0.4191300000000  0.5049930000000  0.4769220000000 1.0
C      1  0.5047240000000  0.4965490000000  0.4165610000000 1.0
C      1  0.5735600000000  0.4973780000000  0.5733870000000 1.0
C      1  0.5665020000000  0.4720400000000  0.5869470000000 1.0
C      1  0.4658010000000  0.5979050000000  0.5620630000000 1.0
C      1  0.4270130000000  0.4218240000000  0.4645220000000 1.0
C      1  0.4383990000000  0.4842770000000  0.4848830000000 1.0
C      1  0.4087800000000  0.4500410000000  0.5498990000000 1.0
C      1  0.5922700000000  0.5273570000000  0.5432040000000 1.0
C      1  0.5271310000000  0.4123170000000  0.4445520000000 1.0
C      1  0.5726260000000  0.4270800000000  0.5588690000000 1.0
C      1  0.5458610000000  0.4522830000000  0.4114380000000 1.0
C      1  0.5122230000000  0.4421440000000  0.4536360000000 1.0
C      1  0.4723730000000  0.3829990000000  0.4903290000000 1.0
C      1  0.4719500000000  0.5455350000000  0.4864130000000 1.0
C      1  0.5745080000000  0.5438050000000  0.5596290000000 1.0
C      1  0.5433240000000  0.5223230000000  0.6013000000000 1.0
C      1  0.5378740000000  0.5120630000000  0.5273480000000 1.0
C      1  0.4895420000000  0.4317360000000  0.4725100000000 1.0
C      1  0.4631250000000  0.5488200000000  0.4077840000000 1.0
C      1  0.3954670000000  0.5528170000000  0.4908490000000 1.0
C      1  0.4737150000000  0.4949340000000  0.5963460000000 1.0
C      1  0.5719810000000  0.4854910000000  0.4970640000000 1.0
C      1  0.4429380000000  0.4783610000000  0.5132450000000 1.0
C      1  0.6122260000000  0.4927330000000  0.4783020000000 1.0
C      1  0.5231940000000  0.4683450000000  0.4610360000000 1.0
C      1  0.5038540000000  0.5178250000000  0.5677240000000 1.0
C      1  0.3866420000000  0.4693030000000  0.4977430000000 1.0
C      1  0.4568840000000  0.5204930000000  0.4147080000000 1.0
C      1  0.5892670000000  0.5300950000000  0.4227720000000 1.0
C      1  0.5629310000000  0.5443710000000  0.4598840000000 1.0
C      1  0.4667140000000  0.4358810000000  0.5426040000000 1.0
C      1  0.5457780000000  0.5180760000000  0.4892080000000 1.0
C      1  0.4057570000000  0.5593180000000  0.5181650000000 1.0
C      1  0.5550670000000  0.5443990000000  0.4885020000000 1.0
C      1  0.4871830000000  0.4682810000000  0.5039360000000 1.0
C      1  0.4284180000000  0.5407060000000  0.5115630000000 1.0
C      1  0.5970410000000  0.4520740000000  0.5364860000000 1.0
C      1  0.3928120000000  0.5240100000000  0.4965300000000 1.0
C      1  0.5800110000000  0.4506610000000  0.5739620000000 1.0
C      1  0.5536270000000  0.4150550000000  0.3977270000000 1.0
C      1  0.4660710000000  0.4203140000000  0.5174350000000 1.0
C      1  0.5750630000000  0.4552760000000  0.4872690000000 1.0
C      1  0.5356560000000  0.4692360000000  0.6003890000000 1.0
C      1  0.5566630000000  0.4704830000000  0.5403450000000 1.0
C      1  0.5455340000000  0.5697680000000  0.5760700000000 1.0
C      1  0.5708130000000  0.4452160000000  0.5357240000000 1.0
C      1  0.4541880000000  0.4539200000000  0.4396570000000 1.0
C      1  0.4079840000000  0.5177490000000  0.5684610000000 1.0
C      1  0.4735270000000  0.6055460000000  0.4835520000000 1.0
C      1  0.4767920000000  0.5345380000000  0.4606420000000 1.0
C      1  0.5095500000000  0.5511000000000  0.4620970000000 1.0
C      1  0.5444020000000  0.4903450000000  0.4471640000000 1.0
C      1  0.4595850000000  0.4733870000000  0.4634690000000 1.0
C      1  0.4368640000000  0.4568630000000  0.5835440000000 1.0
C      1  0.5543130000000  0.4096230000000  0.4879350000000 1.0
C      1  0.5211700000000  0.4518570000000  0.5323100000000 1.0
C      1  0.5596120000000  0.5932100000000  0.5352930000000 1.0
C      1  0.4217880000000  0.4007680000000  0.5513370000000 1.0
C      1  0.4089730000000  0.4202500000000  0.5065230000000 1.0
C      1  0.4827980000000  0.5121470000000  0.5110570000000 1.0
C      1  0.6031250000000  0.4421140000000  0.4868310000000 1.0
C      1  0.4276170000000  0.5231060000000  0.5901190000000 1.0
C      1  0.4045320000000  0.4403730000000  0.4644020000000 1.0
C      1  0.5992550000000  0.4296310000000  0.5127740000000 1.0
C      1  0.4902310000000  0.5573430000000  0.4019910000000 1.0
C      1  0.5302390000000  0.5291420000000  0.5509050000000 1.0
C      1  0.3986280000000  0.5131350000000  0.5198610000000 1.0
C      1  0.4582110000000  0.5736520000000  0.5153350000000 1.0
C      1  0.5672690000000  0.5435800000000  0.4106430000000 1.0
C      1  0.5016930000000  0.4035960000000  0.5489230000000 1.0
C      1  0.4748810000000  0.4550060000000  0.4811250000000 1.0
C      1  0.5064150000000  0.4292890000000  0.5821170000000 1.0
C      1  0.4523630000000  0.5651130000000  0.4292640000000 1.0
C      1  0.5085550000000  0.3842060000000  0.4747190000000 1.0
C      1  0.5556110000000  0.5170070000000  0.4008990000000 1.0
C      1  0.5344570000000  0.4257450000000  0.5276380000000 1.0
C      1  0.5925480000000  0.5751160000000  0.5035130000000 1.0
C      1  0.4223710000000  0.4759680000000  0.5392390000000 1.0
C      1  0.4768830000000  0.5160730000000  0.5567370000000 1.0
C      1  0.4548580000000  0.5181100000000  0.6001390000000 1.0
C      1  0.4745730000000  0.4868230000000  0.3831890000000 1.0
C      1  0.5231390000000  0.4087860000000  0.5685760000000 1.0
C      1  0.4191090000000  0.5790860000000  0.5350700000000 1.0
C      1  0.5649400000000  0.5722100000000  0.5570500000000 1.0
C      1  0.5562020000000  0.4904430000000  0.5211790000000 1.0
C      1  0.5751410000000  0.5971550000000  0.5139740000000 1.0
C      1  0.5126010000000  0.4638360000000  0.4095900000000 1.0
C      1  0.4714220000000  0.5978850000000  0.4584070000000 1.0
C      1  0.4407680000000  0.4778160000000  0.5637440000000 1.0
C      1  0.4487340000000  0.4796050000000  0.3964950000000 1.0
C      1  0.4481940000000  0.5553850000000  0.4961910000000 1.0
C      1  0.5108670000000  0.4868160000000  0.5626150000000 1.0
C      1  0.4959230000000  0.5788490000000  0.4207880000000 1.0
C      1  0.5211350000000  0.5403620000000  0.6048240000000 1.0
C      1  0.5065330000000  0.5784550000000  0.5490490000000 1.0
C      1  0.4826210000000  0.4212220000000  0.5642130000000 1.0
C      1  0.5820000000000  0.5477600000000  0.5036170000000 1.0
C      1  0.4253180000000  0.5695430000000  0.5613540000000 1.0
C      1  0.6010680000000  0.4986420000000  0.5070390000000 1.0
C      1  0.5620120000000  0.5019210000000  0.4736610000000 1.0
C      1  0.4739970000000  0.5395100000000  0.5991820000000 1.0
C      1  0.5293860000000  0.5939790000000  0.4605670000000 1.0
C      1  0.6025450000000  0.4802700000000  0.5328540000000 1.0
C      1  0.5502160000000  0.5835140000000  0.4420750000000 1.0
C      1  0.5572640000000  0.5232230000000  0.5730490000000 1.0
C      1  0.5357010000000  0.4814070000000  0.5558990000000 1.0
C      1  0.5456760000000  0.5590330000000  0.4260580000000 1.0
C      1  0.4499990000000  0.4259770000000  0.4468470000000 1.0
C      1  0.4732380000000  0.5667710000000  0.5882590000000 1.0
C      1  0.4992210000000  0.4640830000000  0.5470900000000 1.0
C      1  0.5895060000000  0.4453110000000  0.4612490000000 1.0
C      1  0.5804830000000  0.5215750000000  0.4619270000000 1.0
C      1  0.4757090000000  0.4109900000000  0.4513310000000 1.0
C      1  0.4299770000000  0.5180830000000  0.4260270000000 1.0
C      1  0.4867670000000  0.4620720000000  0.3940880000000 1.0
C      1  0.5763740000000  0.5720510000000  0.4521930000000 1.0
C      1  0.5223860000000  0.5124180000000  0.5029150000000 1.0
C      1  0.4700940000000  0.5889840000000  0.4318940000000 1.0
C      1  0.4572000000000  0.5033920000000  0.5192670000000 1.0
C      1  0.5088680000000  0.5776780000000  0.4474390000000 1.0
C      1  0.4776800000000  0.5031350000000  0.4267990000000 1.0
C      1  0.4822050000000  0.3827320000000  0.4646200000000 1.0
C      1  0.5235120000000  0.5675050000000  0.5929190000000 1.0
C      1  0.4275430000000  0.5825050000000  0.4739360000000 1.0
C      1  0.5943440000000  0.4991280000000  0.5529810000000 1.0
C      1  0.4988600000000  0.5265100000000  0.5956670000000 1.0
C      1  0.5028310000000  0.4956850000000  0.4642860000000 1.0
C      1  0.4668320000000  0.6083580000000  0.5366690000000 1.0
C      1  0.4988500000000  0.4124070000000  0.4281900000000 1.0
C      1  0.4437170000000  0.6012250000000  0.4900040000000 1.0
C      1  0.4246460000000  0.4926970000000  0.4119780000000 1.0
C      1  0.5920100000000  0.4637290000000  0.4398100000000 1.0
C      1  0.4939840000000  0.5990400000000  0.5297560000000 1.0
C      1  0.5464480000000  0.4148900000000  0.5524360000000 1.0
C      1  0.3934170000000  0.4887410000000  0.4765210000000 1.0
C      1  0.4495820000000  0.5802900000000  0.5764360000000 1.0
C      1  0.4598270000000  0.5369010000000  0.5482780000000 1.0
C      1  0.5256840000000  0.5553790000000  0.4868660000000 1.0
C      1  0.4993830000000  0.6021830000000  0.5011530000000 1.0
C      1  0.5217730000000  0.5092280000000  0.4422300000000 1.0
C      1  0.5135960000000  0.4598740000000  0.5072600000000 1.0
C      1  0.4652280000000  0.4929850000000  0.5681300000000 1.0
C      1  0.6087600000000  0.4862440000000  0.4512640000000 1.0
END
