TITL C-883727-9645-377 -2.30906900058237 125000 -12058.7604825401 0 0 83 (C1) n - 1
REM
REM in /home/nfs/bkarasulu/CARBON/AIRSS/Generating-Clusters/ReaxFF-fromJPCA2015/Units_Real/with-SteepDescent/Only-C1/SD-CG/Try1-3A/FIRE-CG
REM
REM
REM
REM
REM
REM ./C.cell (11c1c37f851c82e70ff6c80c92926a4b)
REM
REM compiler GCC version 9.2.1 20190827 (Red Hat 9.2.1-1)
REM options -cpp -mtune=generic -march=x86-64 -g -O0 -fpre-include=/usr/include/finclude/math-vector-fortran.h
REM seed 2130461860 1069885130 -333448599 1953429599 574086328 1566169031 -1365752410 -1535092098 1533495446 1907174063 -2059011223 60058679 -518794645 -1829822983 -883485376 1214094549 -1557807916 1392229528 -1581825328 850259086 747009149 1869571226 -907543080 4952970 2000910911 1568138253 -684434736 -2085558637 -276709618 384224653 467793187 -1821110576 -502747088
REM
CELL 1.54180   50.00000   50.00000   50.00000   90.00000   90.00000   90.00000
LATT -1
SFAC C  
C      1  0.4697140000000  0.5182410000000  0.4153150000000 1.0
C      1  0.5427540000000  0.5041220000000  0.5710930000000 1.0
C      1  0.4783270000000  0.5499640000000  0.4951400000000 1.0
C      1  0.4730080000000  0.4861220000000  0.5031980000000 1.0
C      1  0.5548990000000  0.4500780000000  0.4918630000000 1.0
C      1  0.4918390000000  0.4746790000000  0.4639810000000 1.0
C      1  0.4735260000000  0.4960770000000  0.4749380000000 1.0
C      1  0.5849130000000  0.4858060000000  0.4700120000000 1.0
C      1  0.5293390000000  0.5048900000000  0.4483290000000 1.0
C      1  0.4863570000000  0.5017000000000  0.4282920000000 1.0
C      1  0.5634720000000  0.5027000000000  0.5469940000000 1.0
C      1  0.5213270000000  0.4161050000000  0.5119960000000 1.0
C      1  0.4468520000000  0.5431120000000  0.5440570000000 1.0
C      1  0.4727030000000  0.4233640000000  0.5223590000000 1.0
C      1  0.4695510000000  0.5507290000000  0.5661800000000 1.0
C      1  0.5393360000000  0.5023100000000  0.4996780000000 1.0
C      1  0.5046930000000  0.5159260000000  0.5244010000000 1.0
C      1  0.5409180000000  0.4218110000000  0.4912690000000 1.0
C      1  0.5265910000000  0.4769210000000  0.4064530000000 1.0
C      1  0.5191730000000  0.4871430000000  0.5716890000000 1.0
C      1  0.5913690000000  0.5098520000000  0.4839810000000 1.0
C      1  0.4525040000000  0.5681890000000  0.5253360000000 1.0
C      1  0.4439080000000  0.4267960000000  0.5188010000000 1.0
C      1  0.5240850000000  0.4275690000000  0.4680680000000 1.0
C      1  0.4604710000000  0.5165610000000  0.5358200000000 1.0
C      1  0.4632400000000  0.4641390000000  0.5496310000000 1.0
C      1  0.5823200000000  0.4991890000000  0.5635060000000 1.0
C      1  0.5603740000000  0.5117750000000  0.5164080000000 1.0
C      1  0.4279880000000  0.4379690000000  0.4549850000000 1.0
C      1  0.4491770000000  0.5389090000000  0.4582570000000 1.0
C      1  0.5417470000000  0.4619620000000  0.5164410000000 1.0
C      1  0.4970280000000  0.5714000000000  0.5067650000000 1.0
C      1  0.5059660000000  0.4360120000000  0.5587390000000 1.0
C      1  0.4793670000000  0.5283760000000  0.5187610000000 1.0
C      1  0.5818750000000  0.4617850000000  0.4840200000000 1.0
C      1  0.5295000000000  0.5583610000000  0.5791160000000 1.0
C      1  0.5173000000000  0.5636040000000  0.4541830000000 1.0
C      1  0.4450640000000  0.5253590000000  0.4318460000000 1.0
C      1  0.4861820000000  0.5727770000000  0.5568890000000 1.0
C      1  0.4716310000000  0.4930470000000  0.5510640000000 1.0
C      1  0.5237730000000  0.4593060000000  0.5637920000000 1.0
C      1  0.5499610000000  0.5430490000000  0.4830670000000 1.0
C      1  0.4386090000000  0.5018930000000  0.4448300000000 1.0
C      1  0.5441930000000  0.4915190000000  0.4216650000000 1.0
C      1  0.4833530000000  0.5281110000000  0.5782350000000 1.0
C      1  0.5259400000000  0.5674490000000  0.5055980000000 1.0
C      1  0.4776600000000  0.4926010000000  0.4033420000000 1.0
C      1  0.4129360000000  0.5133120000000  0.5008400000000 1.0
C      1  0.5287100000000  0.5791650000000  0.5327810000000 1.0
C      1  0.5313480000000  0.5310110000000  0.5662280000000 1.0
C      1  0.5263830000000  0.5309950000000  0.5372440000000 1.0
C      1  0.4917980000000  0.5001560000000  0.5713130000000 1.0
C      1  0.5420550000000  0.4490380000000  0.5424800000000 1.0
C      1  0.4956490000000  0.4691050000000  0.4064930000000 1.0
C      1  0.4793030000000  0.4399380000000  0.5470560000000 1.0
C      1  0.5365310000000  0.4539530000000  0.4655850000000 1.0
C      1  0.5236990000000  0.4810740000000  0.5091640000000 1.0
C      1  0.5456280000000  0.5655010000000  0.4627430000000 1.0
C      1  0.4472320000000  0.4761110000000  0.5100160000000 1.0
C      1  0.4953110000000  0.4260300000000  0.4731970000000 1.0
C      1  0.4884110000000  0.4493840000000  0.4254450000000 1.0
C      1  0.4472390000000  0.4534080000000  0.4591660000000 1.0
C      1  0.4941490000000  0.4191000000000  0.5007410000000 1.0
C      1  0.4793830000000  0.5787720000000  0.5290410000000 1.0
C      1  0.4471700000000  0.4840170000000  0.4624390000000 1.0
C      1  0.5062640000000  0.5195060000000  0.4347520000000 1.0
C      1  0.4972790000000  0.5421500000000  0.4505140000000 1.0
C      1  0.4982680000000  0.4874410000000  0.5193190000000 1.0
C      1  0.4189630000000  0.5433690000000  0.5290260000000 1.0
C      1  0.4323640000000  0.5513950000000  0.4792590000000 1.0
C      1  0.4184400000000  0.4858950000000  0.5003750000000 1.0
C      1  0.4764420000000  0.5315770000000  0.4691880000000 1.0
C      1  0.5734670000000  0.5291060000000  0.4974270000000 1.0
C      1  0.5259880000000  0.4243500000000  0.5400530000000 1.0
C      1  0.5956800000000  0.4836770000000  0.4946180000000 1.0
C      1  0.4428440000000  0.4557620000000  0.5305670000000 1.0
C      1  0.4509440000000  0.5643490000000  0.4966540000000 1.0
C      1  0.5154710000000  0.5759300000000  0.5595000000000 1.0
C      1  0.5393790000000  0.5172890000000  0.4745440000000 1.0
C      1  0.4802990000000  0.4471910000000  0.4553480000000 1.0
C      1  0.5383250000000  0.5538830000000  0.5262640000000 1.0
C      1  0.4128510000000  0.5407170000000  0.5000040000000 1.0
C      1  0.5199200000000  0.4769830000000  0.4602330000000 1.0
END
