TITL C-884130-5973-190 28.7533025977088 125000 -25074.9168249032 0 0 166 (C1) n - 1
REM
REM in /home/nfs/bkarasulu/CARBON/AIRSS/Generating-Clusters/ReaxFF-fromJPCA2015/Units_Real/with-SteepDescent/Only-C1/SD-CG/Try1-3A/FIRE-CG
REM
REM
REM
REM
REM
REM ./C.cell (11c1c37f851c82e70ff6c80c92926a4b)
REM
REM compiler GCC version 9.2.1 20190827 (Red Hat 9.2.1-1)
REM options -cpp -mtune=generic -march=x86-64 -g -O0 -fpre-include=/usr/include/finclude/math-vector-fortran.h
REM seed 333425741 -811657138 -1459722409 2061196974 -36331113 179815136 -1509914081 915898412 981452256 -1718189957 -844458664 1818137506 -460440040 -139310807 209367975 1220344899 315295152 1389379650 852708836 -590597154 -1501641917 1588235339 462117013 503404499 -1179601219 1623989454 52499604 1434751959 -1200040515 503573189 -799895651 877302530 1078729432
REM
CELL 1.54180   50.00000   50.00000   50.00000   90.00000   90.00000   90.00000
LATT -1
SFAC C  
C      1  0.4389170000000  0.5672830000000  0.4391930000000 1.0
C      1  0.5185840000000  0.5370690000000  0.5854830000000 1.0
C      1  0.5280220000000  0.4453080000000  0.5015230000000 1.0
C      1  0.4557020000000  0.4868900000000  0.5346880000000 1.0
C      1  0.5483170000000  0.4786740000000  0.5994180000000 1.0
C      1  0.5214980000000  0.5543490000000  0.5301730000000 1.0
C      1  0.4843100000000  0.4707280000000  0.4868100000000 1.0
C      1  0.5498850000000  0.5916000000000  0.5462600000000 1.0
C      1  0.4925170000000  0.5166730000000  0.4774710000000 1.0
C      1  0.4022240000000  0.4610110000000  0.4797940000000 1.0
C      1  0.4733880000000  0.4644940000000  0.5390070000000 1.0
C      1  0.4372530000000  0.5921880000000  0.5173170000000 1.0
C      1  0.4456750000000  0.4606490000000  0.5799440000000 1.0
C      1  0.5154830000000  0.5368440000000  0.4432760000000 1.0
C      1  0.4927850000000  0.4672680000000  0.4580810000000 1.0
C      1  0.4479440000000  0.5687070000000  0.5553820000000 1.0
C      1  0.4884960000000  0.4948010000000  0.3859980000000 1.0
C      1  0.5016120000000  0.4105750000000  0.5615070000000 1.0
C      1  0.4316900000000  0.5056070000000  0.4760340000000 1.0
C      1  0.4961750000000  0.4715560000000  0.5614950000000 1.0
C      1  0.5212790000000  0.4923190000000  0.5150920000000 1.0
C      1  0.6004920000000  0.4752820000000  0.4725720000000 1.0
C      1  0.5515000000000  0.4916500000000  0.3965760000000 1.0
C      1  0.4473650000000  0.5966030000000  0.4781320000000 1.0
C      1  0.4632420000000  0.5251040000000  0.4390340000000 1.0
C      1  0.5818200000000  0.5088710000000  0.5686050000000 1.0
C      1  0.5036300000000  0.4355620000000  0.5102940000000 1.0
C      1  0.5494830000000  0.5180370000000  0.3888680000000 1.0
C      1  0.4056460000000  0.5026030000000  0.4243850000000 1.0
C      1  0.5696550000000  0.5734480000000  0.5417450000000 1.0
C      1  0.4546840000000  0.5302200000000  0.5101240000000 1.0
C      1  0.5356150000000  0.4722210000000  0.5015350000000 1.0
C      1  0.4619260000000  0.5765720000000  0.4907670000000 1.0
C      1  0.5993220000000  0.4916780000000  0.5520300000000 1.0
C      1  0.5426030000000  0.4326890000000  0.5712760000000 1.0
C      1  0.5774900000000  0.5593640000000  0.4901650000000 1.0
C      1  0.4241900000000  0.5522760000000  0.4214270000000 1.0
C      1  0.5823260000000  0.5113110000000  0.4295230000000 1.0
C      1  0.5224360000000  0.5512450000000  0.4196120000000 1.0
C      1  0.4926690000000  0.5161510000000  0.4477860000000 1.0
C      1  0.4945400000000  0.5854640000000  0.5536910000000 1.0
C      1  0.5010750000000  0.4632240000000  0.6097240000000 1.0
C      1  0.5856230000000  0.4477050000000  0.5208610000000 1.0
C      1  0.4382160000000  0.4803040000000  0.5143630000000 1.0
C      1  0.5003620000000  0.5025830000000  0.6022890000000 1.0
C      1  0.5771520000000  0.5510790000000  0.4628700000000 1.0
C      1  0.5359910000000  0.4547040000000  0.5528840000000 1.0
C      1  0.5087000000000  0.5214230000000  0.5599970000000 1.0
C      1  0.5175730000000  0.6050110000000  0.5109980000000 1.0
C      1  0.4735550000000  0.4773350000000  0.4063950000000 1.0
C      1  0.5454360000000  0.5702230000000  0.4251270000000 1.0
C      1  0.3992730000000  0.5607690000000  0.5046770000000 1.0
C      1  0.4377280000000  0.5069090000000  0.5037660000000 1.0
C      1  0.5731550000000  0.5278870000000  0.4059930000000 1.0
C      1  0.5402510000000  0.5136250000000  0.5099400000000 1.0
C      1  0.4572170000000  0.4842140000000  0.5938030000000 1.0
C      1  0.4552050000000  0.5496640000000  0.4869240000000 1.0
C      1  0.3995700000000  0.5433860000000  0.4825740000000 1.0
C      1  0.5336340000000  0.5255710000000  0.4632860000000 1.0
C      1  0.5622720000000  0.5030340000000  0.5906380000000 1.0
C      1  0.5535640000000  0.4285350000000  0.4367710000000 1.0
C      1  0.5214900000000  0.4762810000000  0.5441350000000 1.0
C      1  0.4378200000000  0.4355760000000  0.4734450000000 1.0
C      1  0.5595020000000  0.5493130000000  0.5820590000000 1.0
C      1  0.5040630000000  0.5335740000000  0.5352710000000 1.0
C      1  0.4417190000000  0.4817040000000  0.4628840000000 1.0
C      1  0.5684310000000  0.5116700000000  0.5039780000000 1.0
C      1  0.4476020000000  0.4159960000000  0.5166390000000 1.0
C      1  0.4805980000000  0.4822100000000  0.6118410000000 1.0
C      1  0.5452270000000  0.6002890000000  0.5190720000000 1.0
C      1  0.5907400000000  0.4966440000000  0.5128240000000 1.0
C      1  0.4177060000000  0.5720460000000  0.5250600000000 1.0
C      1  0.3849820000000  0.5112390000000  0.5185350000000 1.0
C      1  0.5247060000000  0.5728550000000  0.5534080000000 1.0
C      1  0.5795770000000  0.4596810000000  0.5692820000000 1.0
C      1  0.5475180000000  0.4163140000000  0.5426690000000 1.0
C      1  0.4949200000000  0.5311250000000  0.6006160000000 1.0
C      1  0.5525620000000  0.4815040000000  0.4807580000000 1.0
C      1  0.3794610000000  0.4883100000000  0.5008930000000 1.0
C      1  0.5851070000000  0.5508490000000  0.5367150000000 1.0
C      1  0.5010830000000  0.4048430000000  0.5167870000000 1.0
C      1  0.5790320000000  0.5371310000000  0.5628990000000 1.0
C      1  0.4482260000000  0.4131110000000  0.4868770000000 1.0
C      1  0.4999160000000  0.4980440000000  0.5717710000000 1.0
C      1  0.5328710000000  0.5608450000000  0.5782680000000 1.0
C      1  0.5118930000000  0.4064620000000  0.4173730000000 1.0
C      1  0.5649870000000  0.4269190000000  0.5219520000000 1.0
C      1  0.4506110000000  0.5209510000000  0.4137060000000 1.0
C      1  0.4327970000000  0.4624050000000  0.4849850000000 1.0
C      1  0.4863340000000  0.5428470000000  0.4893280000000 1.0
C      1  0.4347900000000  0.4362020000000  0.5336700000000 1.0
C      1  0.4932630000000  0.3922740000000  0.4658390000000 1.0
C      1  0.4969220000000  0.5894980000000  0.4697680000000 1.0
C      1  0.5503020000000  0.4279030000000  0.4946970000000 1.0
C      1  0.4822580000000  0.5329030000000  0.5173000000000 1.0
C      1  0.5360570000000  0.4955680000000  0.4611810000000 1.0
C      1  0.5360270000000  0.4046420000000  0.4793310000000 1.0
C      1  0.4391730000000  0.4674530000000  0.4385240000000 1.0
C      1  0.5204110000000  0.6033220000000  0.4810520000000 1.0
C      1  0.5883760000000  0.5239280000000  0.4551280000000 1.0
C      1  0.5105390000000  0.3950370000000  0.4882310000000 1.0
C      1  0.4249620000000  0.4729140000000  0.5700890000000 1.0
C      1  0.5901760000000  0.4650370000000  0.4467710000000 1.0
C      1  0.5606190000000  0.4542140000000  0.5881090000000 1.0
C      1  0.5593150000000  0.4686540000000  0.4083550000000 1.0
C      1  0.5124250000000  0.3927670000000  0.4418810000000 1.0
C      1  0.4936670000000  0.5980080000000  0.5282310000000 1.0
C      1  0.5653690000000  0.4512030000000  0.4782610000000 1.0
C      1  0.5806980000000  0.5388140000000  0.5096140000000 1.0
C      1  0.5184890000000  0.4315330000000  0.4047630000000 1.0
C      1  0.4570710000000  0.5105430000000  0.5803160000000 1.0
C      1  0.5547940000000  0.5806440000000  0.4970330000000 1.0
C      1  0.3976340000000  0.5054730000000  0.4523250000000 1.0
C      1  0.4730910000000  0.5748890000000  0.5716610000000 1.0
C      1  0.4232160000000  0.5242400000000  0.5485890000000 1.0
C      1  0.3926330000000  0.4624890000000  0.5070070000000 1.0
C      1  0.4473700000000  0.5079580000000  0.5532180000000 1.0
C      1  0.5210360000000  0.4046520000000  0.5402060000000 1.0
C      1  0.4941530000000  0.4425270000000  0.4159950000000 1.0
C      1  0.4825260000000  0.4548040000000  0.5117510000000 1.0
C      1  0.4993830000000  0.4516450000000  0.5847610000000 1.0
C      1  0.4712180000000  0.6017470000000  0.4612010000000 1.0
C      1  0.4543830000000  0.4140380000000  0.4402690000000 1.0
C      1  0.4730830000000  0.4154490000000  0.5545000000000 1.0
C      1  0.5138510000000  0.4273450000000  0.5813590000000 1.0
C      1  0.4706950000000  0.5365590000000  0.5859220000000 1.0
C      1  0.5942110000000  0.4625500000000  0.5468960000000 1.0
C      1  0.4153940000000  0.5260930000000  0.4654030000000 1.0
C      1  0.5220950000000  0.4814280000000  0.6111690000000 1.0
C      1  0.6145990000000  0.5038200000000  0.4995370000000 1.0
C      1  0.3880050000000  0.4855930000000  0.4719540000000 1.0
C      1  0.3841190000000  0.5370560000000  0.5048060000000 1.0
C      1  0.4379370000000  0.4382540000000  0.4442880000000 1.0
C      1  0.5643250000000  0.5528920000000  0.4152160000000 1.0
C      1  0.4649270000000  0.4008840000000  0.4653330000000 1.0
C      1  0.4062280000000  0.4785250000000  0.5510430000000 1.0
C      1  0.6109490000000  0.5052710000000  0.5288530000000 1.0
C      1  0.5263640000000  0.5599930000000  0.5019800000000 1.0
C      1  0.5487760000000  0.5276370000000  0.5968780000000 1.0
C      1  0.5906680000000  0.4563760000000  0.4937780000000 1.0
C      1  0.6026830000000  0.5046430000000  0.4725080000000 1.0
C      1  0.4461990000000  0.5418290000000  0.4557540000000 1.0
C      1  0.4778450000000  0.4597840000000  0.4318460000000 1.0
C      1  0.4955710000000  0.4955220000000  0.4957180000000 1.0
C      1  0.5373870000000  0.4064600000000  0.4508600000000 1.0
C      1  0.4657240000000  0.5936200000000  0.5147420000000 1.0
C      1  0.4206080000000  0.5262470000000  0.4119630000000 1.0
C      1  0.4153310000000  0.4599800000000  0.5276790000000 1.0
C      1  0.5030920000000  0.5662740000000  0.4850150000000 1.0
C      1  0.5325250000000  0.5334520000000  0.4907590000000 1.0
C      1  0.4464910000000  0.5941730000000  0.4485530000000 1.0
C      1  0.4724200000000  0.5526470000000  0.5617480000000 1.0
C      1  0.5455430000000  0.4424120000000  0.4137510000000 1.0
C      1  0.4549020000000  0.4409850000000  0.5546850000000 1.0
C      1  0.4255220000000  0.5536520000000  0.5476670000000 1.0
C      1  0.5580750000000  0.5721590000000  0.4523370000000 1.0
C      1  0.5098700000000  0.4887500000000  0.4506090000000 1.0
C      1  0.5734780000000  0.4425320000000  0.4520790000000 1.0
C      1  0.5063990000000  0.5147460000000  0.3901540000000 1.0
C      1  0.5462760000000  0.5913670000000  0.4713450000000 1.0
C      1  0.5238810000000  0.5342240000000  0.3942140000000 1.0
C      1  0.4191680000000  0.4795840000000  0.4292240000000 1.0
C      1  0.4008310000000  0.5065450000000  0.5423400000000 1.0
C      1  0.5806510000000  0.4823830000000  0.4258660000000 1.0
C      1  0.4715390000000  0.4046090000000  0.5287950000000 1.0
C      1  0.4599960000000  0.4993090000000  0.3957440000000 1.0
END
