TITL C-884137-4758-185 2.18419520929558 125000 -24220.5350857804 0 0 160 (C1) n - 1
REM
REM in /home/nfs/bkarasulu/CARBON/AIRSS/Generating-Clusters/ReaxFF-fromJPCA2015/Units_Real/with-SteepDescent/Only-C1/SD-CG/Try1-3A/FIRE-CG
REM
REM
REM
REM
REM
REM ./C.cell (11c1c37f851c82e70ff6c80c92926a4b)
REM
REM compiler GCC version 9.2.1 20190827 (Red Hat 9.2.1-1)
REM options -cpp -mtune=generic -march=x86-64 -g -O0 -fpre-include=/usr/include/finclude/math-vector-fortran.h
REM seed -535905216 -1857887901 -1713470389 -601426344 -1728215566 490859736 1282133514 959082194 -1445357465 -1805004811 425280137 1928551562 640683225 -1749109701 1021893209 592846849 884904312 -896705537 340584423 -1700916344 391686427 2009688975 807518396 -322723873 -1686408412 1346180252 982613069 1003471238 1043073002 -1084759129 -85407419 678375379 1438838169
REM
CELL 1.54180   50.00000   50.00000   50.00000   90.00000   90.00000   90.00000
LATT -1
SFAC C  
C      1  0.5806790000000  0.4762830000000  0.5537980000000 1.0
C      1  0.4850940000000  0.5876610000000  0.4454170000000 1.0
C      1  0.4798810000000  0.5577320000000  0.4961910000000 1.0
C      1  0.6082010000000  0.4882840000000  0.5256000000000 1.0
C      1  0.5019600000000  0.4594240000000  0.5939910000000 1.0
C      1  0.5879580000000  0.4342830000000  0.5180010000000 1.0
C      1  0.4991450000000  0.5303620000000  0.5426150000000 1.0
C      1  0.4477940000000  0.5578570000000  0.4248340000000 1.0
C      1  0.4493310000000  0.5084030000000  0.4467290000000 1.0
C      1  0.4894880000000  0.3886720000000  0.5190130000000 1.0
C      1  0.5237770000000  0.6029380000000  0.4750130000000 1.0
C      1  0.4249240000000  0.5415790000000  0.4307920000000 1.0
C      1  0.5433520000000  0.5219350000000  0.4689930000000 1.0
C      1  0.6039780000000  0.4586620000000  0.5182970000000 1.0
C      1  0.4387630000000  0.5293610000000  0.5697950000000 1.0
C      1  0.4442800000000  0.4590810000000  0.4444610000000 1.0
C      1  0.5072240000000  0.5140910000000  0.5977200000000 1.0
C      1  0.4763830000000  0.4782180000000  0.3997630000000 1.0
C      1  0.5584360000000  0.4807100000000  0.5339290000000 1.0
C      1  0.4695030000000  0.3988900000000  0.4704880000000 1.0
C      1  0.4726930000000  0.4608860000000  0.5319430000000 1.0
C      1  0.5582810000000  0.5728390000000  0.5416930000000 1.0
C      1  0.5234780000000  0.4532360000000  0.4828350000000 1.0
C      1  0.5695050000000  0.4554550000000  0.5740900000000 1.0
C      1  0.5743540000000  0.5623150000000  0.5202120000000 1.0
C      1  0.5405140000000  0.4332360000000  0.5184690000000 1.0
C      1  0.4428040000000  0.4924200000000  0.5027770000000 1.0
C      1  0.4845380000000  0.4545400000000  0.4104040000000 1.0
C      1  0.5471630000000  0.4430870000000  0.4927340000000 1.0
C      1  0.5307330000000  0.5689940000000  0.5342670000000 1.0
C      1  0.5124880000000  0.5544410000000  0.4109930000000 1.0
C      1  0.4495970000000  0.5934070000000  0.5203530000000 1.0
C      1  0.5271390000000  0.5822410000000  0.4586670000000 1.0
C      1  0.5422860000000  0.4965990000000  0.5150450000000 1.0
C      1  0.4598580000000  0.4477120000000  0.5738050000000 1.0
C      1  0.4107060000000  0.5411100000000  0.4562060000000 1.0
C      1  0.4020850000000  0.5447930000000  0.5262060000000 1.0
C      1  0.5969450000000  0.4948610000000  0.4791160000000 1.0
C      1  0.4589050000000  0.4480370000000  0.4955880000000 1.0
C      1  0.5154590000000  0.4849920000000  0.5142430000000 1.0
C      1  0.4909750000000  0.4400590000000  0.4321010000000 1.0
C      1  0.6118800000000  0.4780870000000  0.4979230000000 1.0
C      1  0.4246570000000  0.4815990000000  0.5681410000000 1.0
C      1  0.4042010000000  0.5141750000000  0.4657310000000 1.0
C      1  0.5361950000000  0.5171150000000  0.5905980000000 1.0
C      1  0.5981680000000  0.5165010000000  0.5185400000000 1.0
C      1  0.5884710000000  0.5185600000000  0.4916490000000 1.0
C      1  0.4832070000000  0.4423430000000  0.5107200000000 1.0
C      1  0.4272670000000  0.4986100000000  0.4612420000000 1.0
C      1  0.4193000000000  0.5611300000000  0.4756620000000 1.0
C      1  0.4479460000000  0.4713180000000  0.5828180000000 1.0
C      1  0.3960630000000  0.4966380000000  0.4874350000000 1.0
C      1  0.4106500000000  0.5628690000000  0.5038940000000 1.0
C      1  0.4968880000000  0.5249130000000  0.4395660000000 1.0
C      1  0.5460650000000  0.4904360000000  0.5827840000000 1.0
C      1  0.5126200000000  0.4253950000000  0.5247010000000 1.0
C      1  0.5501330000000  0.5026240000000  0.4251380000000 1.0
C      1  0.4710780000000  0.5929180000000  0.5390150000000 1.0
C      1  0.4602190000000  0.5303110000000  0.5205120000000 1.0
C      1  0.4501570000000  0.4168270000000  0.4648590000000 1.0
C      1  0.5314770000000  0.5860150000000  0.4308930000000 1.0
C      1  0.5212150000000  0.5418760000000  0.5206690000000 1.0
C      1  0.5473270000000  0.4476870000000  0.4303890000000 1.0
C      1  0.4337120000000  0.4327200000000  0.5369760000000 1.0
C      1  0.5862390000000  0.5389790000000  0.5335040000000 1.0
C      1  0.5624120000000  0.5699750000000  0.4918540000000 1.0
C      1  0.5513550000000  0.5651400000000  0.5708340000000 1.0
C      1  0.4422690000000  0.5770520000000  0.4689320000000 1.0
C      1  0.3922960000000  0.4946230000000  0.5160360000000 1.0
C      1  0.5186370000000  0.5582620000000  0.4704740000000 1.0
C      1  0.5258920000000  0.5745610000000  0.5781000000000 1.0
C      1  0.4931740000000  0.4885380000000  0.4974690000000 1.0
C      1  0.4880780000000  0.4410090000000  0.5758650000000 1.0
C      1  0.5072990000000  0.4840540000000  0.4550370000000 1.0
C      1  0.4674070000000  0.5688280000000  0.5607740000000 1.0
C      1  0.4757370000000  0.5468590000000  0.5400600000000 1.0
C      1  0.5023070000000  0.4225500000000  0.5562900000000 1.0
C      1  0.5215960000000  0.5919390000000  0.5191880000000 1.0
C      1  0.4607040000000  0.5814770000000  0.4924680000000 1.0
C      1  0.5518050000000  0.4643230000000  0.5951100000000 1.0
C      1  0.5691560000000  0.5641260000000  0.4622530000000 1.0
C      1  0.5282190000000  0.4273760000000  0.5715540000000 1.0
C      1  0.5387640000000  0.4835470000000  0.5544290000000 1.0
C      1  0.5628120000000  0.4065150000000  0.4812410000000 1.0
C      1  0.5386880000000  0.5434360000000  0.4067510000000 1.0
C      1  0.5432120000000  0.5246610000000  0.5112200000000 1.0
C      1  0.5605770000000  0.5341170000000  0.4900350000000 1.0
C      1  0.4326220000000  0.4373620000000  0.4608080000000 1.0
C      1  0.4471370000000  0.4702170000000  0.4152950000000 1.0
C      1  0.5209340000000  0.5335920000000  0.4546960000000 1.0
C      1  0.5149470000000  0.4002590000000  0.5094440000000 1.0
C      1  0.4157480000000  0.5637430000000  0.5457210000000 1.0
C      1  0.5560690000000  0.4322520000000  0.5622230000000 1.0
C      1  0.5041520000000  0.5787640000000  0.4238410000000 1.0
C      1  0.5765860000000  0.5404180000000  0.4445630000000 1.0
C      1  0.4513460000000  0.4515240000000  0.5481180000000 1.0
C      1  0.4658200000000  0.4905740000000  0.5932740000000 1.0
C      1  0.5076100000000  0.5548800000000  0.4969820000000 1.0
C      1  0.4637110000000  0.4703140000000  0.4617130000000 1.0
C      1  0.5715640000000  0.4466740000000  0.4757710000000 1.0
C      1  0.4900820000000  0.5112140000000  0.4805430000000 1.0
C      1  0.5268580000000  0.4798940000000  0.4754520000000 1.0
C      1  0.4918800000000  0.6003710000000  0.5202500000000 1.0
C      1  0.4973080000000  0.4414350000000  0.4814050000000 1.0
C      1  0.5407480000000  0.5145130000000  0.4005460000000 1.0
C      1  0.4609730000000  0.5369960000000  0.4104200000000 1.0
C      1  0.5305340000000  0.4663670000000  0.4128920000000 1.0
C      1  0.4934140000000  0.4874200000000  0.5989740000000 1.0
C      1  0.4402990000000  0.5181010000000  0.4207650000000 1.0
C      1  0.5885230000000  0.5036120000000  0.5578100000000 1.0
C      1  0.5641280000000  0.4280120000000  0.5342700000000 1.0
C      1  0.4852050000000  0.5083930000000  0.5536800000000 1.0
C      1  0.5217330000000  0.3978440000000  0.4809770000000 1.0
C      1  0.5229010000000  0.4912530000000  0.3960690000000 1.0
C      1  0.5431180000000  0.4040950000000  0.4616220000000 1.0
C      1  0.4950560000000  0.6022710000000  0.4689870000000 1.0
C      1  0.5287540000000  0.4837360000000  0.4356190000000 1.0
C      1  0.5154650000000  0.4752200000000  0.5405900000000 1.0
C      1  0.4156040000000  0.4430130000000  0.5168410000000 1.0
C      1  0.5027900000000  0.5762600000000  0.5818750000000 1.0
C      1  0.4497450000000  0.4075580000000  0.5388560000000 1.0
C      1  0.4858480000000  0.5333400000000  0.5949160000000 1.0
C      1  0.4580320000000  0.5769970000000  0.4450350000000 1.0
C      1  0.5389770000000  0.5903970000000  0.4962890000000 1.0
C      1  0.4286080000000  0.4894600000000  0.4063780000000 1.0
C      1  0.5502940000000  0.4946930000000  0.4709410000000 1.0
C      1  0.5837180000000  0.4227640000000  0.4904670000000 1.0
C      1  0.5539230000000  0.5364130000000  0.5773160000000 1.0
C      1  0.4676040000000  0.3848930000000  0.4966140000000 1.0
C      1  0.5349440000000  0.4227920000000  0.4393540000000 1.0
C      1  0.4650790000000  0.5166490000000  0.5800760000000 1.0
C      1  0.4111190000000  0.4682880000000  0.5490030000000 1.0
C      1  0.4891720000000  0.4591870000000  0.4574560000000 1.0
C      1  0.4487460000000  0.3916570000000  0.5158030000000 1.0
C      1  0.4261690000000  0.5093450000000  0.5510320000000 1.0
C      1  0.4225750000000  0.5818470000000  0.5233740000000 1.0
C      1  0.4902740000000  0.5295450000000  0.4103370000000 1.0
C      1  0.4811310000000  0.5612030000000  0.5878780000000 1.0
C      1  0.5279820000000  0.4466620000000  0.5935870000000 1.0
C      1  0.4987170000000  0.4113370000000  0.4662500000000 1.0
C      1  0.4651230000000  0.4771720000000  0.4912760000000 1.0
C      1  0.4881510000000  0.4803970000000  0.5467060000000 1.0
C      1  0.5596110000000  0.5773290000000  0.4374040000000 1.0
C      1  0.4735520000000  0.5308380000000  0.4950250000000 1.0
C      1  0.5633030000000  0.5534790000000  0.4214980000000 1.0
C      1  0.4434380000000  0.5088880000000  0.5254790000000 1.0
C      1  0.4016270000000  0.5164590000000  0.5321610000000 1.0
C      1  0.5719930000000  0.5117310000000  0.4406700000000 1.0
C      1  0.5079600000000  0.4193380000000  0.4398230000000 1.0
C      1  0.4295210000000  0.4486790000000  0.4903700000000 1.0
C      1  0.4801290000000  0.6033660000000  0.4935180000000 1.0
C      1  0.5680130000000  0.4564690000000  0.4486900000000 1.0
C      1  0.4375950000000  0.5564460000000  0.5636660000000 1.0
C      1  0.4759590000000  0.5136110000000  0.4544430000000 1.0
C      1  0.3979230000000  0.4655560000000  0.5257270000000 1.0
C      1  0.4953860000000  0.4999910000000  0.3979870000000 1.0
C      1  0.5762090000000  0.4867490000000  0.4572520000000 1.0
C      1  0.4224640000000  0.4830540000000  0.4855390000000 1.0
C      1  0.4791430000000  0.4031310000000  0.5415880000000 1.0
C      1  0.5784390000000  0.5294000000000  0.5616640000000 1.0
END
