TITL C-884132-5695-222 41.2801468759989 125000 -26102.5241906463 0 0 174 (C1) n - 1
REM
REM in /home/nfs/bkarasulu/CARBON/AIRSS/Generating-Clusters/ReaxFF-fromJPCA2015/Units_Real/with-SteepDescent/Only-C1/SD-CG/Try1-3A/FIRE-CG
REM
REM
REM
REM
REM
REM ./C.cell (11c1c37f851c82e70ff6c80c92926a4b)
REM
REM compiler GCC version 9.2.1 20190827 (Red Hat 9.2.1-1)
REM options -cpp -mtune=generic -march=x86-64 -g -O0 -fpre-include=/usr/include/finclude/math-vector-fortran.h
REM seed 955644963 1030368888 764659092 -2011289701 -785929655 1767025436 -302330052 910089961 -163784996 1721555673 633217005 -1431809393 -819072370 -561193466 -1911342367 1032441353 1411060650 -712279729 -186776146 -1516240369 -1855723097 -1788999481 -584337619 257467314 -1761625814 -1516481428 31818513 -1702419797 -1450006662 -1563495070 -1919375121 -228494450 -1073758097
REM
CELL 1.54180   50.00000   50.00000   50.00000   90.00000   90.00000   90.00000
LATT -1
SFAC C  
C      1  0.5387690000000  0.5369670000000  0.4596950000000 1.0
C      1  0.4834980000000  0.4703090000000  0.5895060000000 1.0
C      1  0.5726390000000  0.5430990000000  0.5281740000000 1.0
C      1  0.4716200000000  0.5699190000000  0.4554080000000 1.0
C      1  0.5636440000000  0.4900870000000  0.5068280000000 1.0
C      1  0.4148310000000  0.4457720000000  0.5186020000000 1.0
C      1  0.5452740000000  0.4331050000000  0.5476240000000 1.0
C      1  0.4623900000000  0.5656920000000  0.4136770000000 1.0
C      1  0.4999970000000  0.4990210000000  0.4939620000000 1.0
C      1  0.5236490000000  0.4868620000000  0.4516910000000 1.0
C      1  0.5263910000000  0.5440500000000  0.4850470000000 1.0
C      1  0.4795730000000  0.5807720000000  0.5118300000000 1.0
C      1  0.5378610000000  0.5615030000000  0.5594910000000 1.0
C      1  0.4951430000000  0.5568670000000  0.5953930000000 1.0
C      1  0.4360860000000  0.4294890000000  0.5581260000000 1.0
C      1  0.4698930000000  0.4266380000000  0.4523540000000 1.0
C      1  0.5118860000000  0.5243540000000  0.4123050000000 1.0
C      1  0.4859060000000  0.4997680000000  0.5857840000000 1.0
C      1  0.5765230000000  0.4424120000000  0.5450490000000 1.0
C      1  0.4847620000000  0.4206980000000  0.4127820000000 1.0
C      1  0.4427870000000  0.4092690000000  0.5375590000000 1.0
C      1  0.5464120000000  0.4401070000000  0.4535670000000 1.0
C      1  0.4403980000000  0.5072320000000  0.5924620000000 1.0
C      1  0.5476530000000  0.4548110000000  0.4147190000000 1.0
C      1  0.4296970000000  0.4711680000000  0.5077140000000 1.0
C      1  0.5406890000000  0.5970170000000  0.4767350000000 1.0
C      1  0.4762360000000  0.3991030000000  0.4698170000000 1.0
C      1  0.5641070000000  0.5200280000000  0.4652800000000 1.0
C      1  0.5153180000000  0.6080260000000  0.4775410000000 1.0
C      1  0.5766830000000  0.5062430000000  0.5891660000000 1.0
C      1  0.5404520000000  0.4079670000000  0.5322990000000 1.0
C      1  0.4151850000000  0.4244450000000  0.4756750000000 1.0
C      1  0.5222200000000  0.5436000000000  0.5818870000000 1.0
C      1  0.4489550000000  0.5324820000000  0.6008880000000 1.0
C      1  0.4195780000000  0.5158320000000  0.4275200000000 1.0
C      1  0.4560960000000  0.4623860000000  0.5891860000000 1.0
C      1  0.4773740000000  0.5385900000000  0.6097580000000 1.0
C      1  0.4002320000000  0.4459990000000  0.4894510000000 1.0
C      1  0.4417670000000  0.5163630000000  0.4799000000000 1.0
C      1  0.4433580000000  0.5763820000000  0.4571650000000 1.0
C      1  0.5319150000000  0.4748210000000  0.4011920000000 1.0
C      1  0.4415870000000  0.5558290000000  0.4117370000000 1.0
C      1  0.5085140000000  0.5272740000000  0.4992760000000 1.0
C      1  0.4341140000000  0.5270350000000  0.4042230000000 1.0
C      1  0.4365300000000  0.5782670000000  0.5317210000000 1.0
C      1  0.4177390000000  0.4503530000000  0.5488030000000 1.0
C      1  0.5217570000000  0.5062480000000  0.5435200000000 1.0
C      1  0.5761870000000  0.5683170000000  0.5442030000000 1.0
C      1  0.5189320000000  0.5169810000000  0.4424320000000 1.0
C      1  0.4804960000000  0.5132630000000  0.5607170000000 1.0
C      1  0.4318850000000  0.4050380000000  0.4910340000000 1.0
C      1  0.4333410000000  0.4820950000000  0.5841130000000 1.0
C      1  0.4602860000000  0.3970180000000  0.4937640000000 1.0
C      1  0.5714850000000  0.4710590000000  0.4335260000000 1.0
C      1  0.4109200000000  0.4934360000000  0.5137930000000 1.0
C      1  0.4567650000000  0.4764530000000  0.5164870000000 1.0
C      1  0.5416150000000  0.4353010000000  0.4958460000000 1.0
C      1  0.5349010000000  0.4580080000000  0.5344150000000 1.0
C      1  0.5884370000000  0.4593190000000  0.5655580000000 1.0
C      1  0.4144560000000  0.5361620000000  0.4470580000000 1.0
C      1  0.4559010000000  0.4432600000000  0.4708020000000 1.0
C      1  0.4507630000000  0.4982840000000  0.4588290000000 1.0
C      1  0.5127300000000  0.5308480000000  0.5310260000000 1.0
C      1  0.5735970000000  0.4386740000000  0.4652430000000 1.0
C      1  0.5139760000000  0.3912050000000  0.4846490000000 1.0
C      1  0.5986620000000  0.5633420000000  0.4727640000000 1.0
C      1  0.5009870000000  0.4449880000000  0.5866570000000 1.0
C      1  0.5708160000000  0.4333430000000  0.4941120000000 1.0
C      1  0.4548540000000  0.4782260000000  0.3953980000000 1.0
C      1  0.5464240000000  0.4857380000000  0.5307570000000 1.0
C      1  0.5249770000000  0.5140670000000  0.5718110000000 1.0
C      1  0.5667840000000  0.5342780000000  0.5886860000000 1.0
C      1  0.5446130000000  0.5010500000000  0.3938550000000 1.0
C      1  0.4821940000000  0.5370980000000  0.4903150000000 1.0
C      1  0.6038840000000  0.5449680000000  0.4916220000000 1.0
C      1  0.5844610000000  0.4446080000000  0.5171090000000 1.0
C      1  0.4295480000000  0.4436990000000  0.4587550000000 1.0
C      1  0.5412990000000  0.5370850000000  0.6036860000000 1.0
C      1  0.5367830000000  0.5905290000000  0.5481680000000 1.0
C      1  0.5797480000000  0.4999270000000  0.4270600000000 1.0
C      1  0.4798590000000  0.4933150000000  0.5129810000000 1.0
C      1  0.6156020000000  0.5186590000000  0.4902320000000 1.0
C      1  0.4823740000000  0.5438390000000  0.4626840000000 1.0
C      1  0.5882090000000  0.5136030000000  0.4513080000000 1.0
C      1  0.5664200000000  0.4613400000000  0.5809670000000 1.0
C      1  0.4820220000000  0.4664530000000  0.3905210000000 1.0
C      1  0.4995770000000  0.4449850000000  0.4763970000000 1.0
C      1  0.4152430000000  0.4767240000000  0.5597950000000 1.0
C      1  0.4830080000000  0.4420530000000  0.5186160000000 1.0
C      1  0.4961190000000  0.4746000000000  0.4377140000000 1.0
C      1  0.4671300000000  0.3988580000000  0.5233830000000 1.0
C      1  0.5202490000000  0.4835670000000  0.4812370000000 1.0
C      1  0.4585960000000  0.4231970000000  0.4253060000000 1.0
C      1  0.4316140000000  0.4909650000000  0.4376020000000 1.0
C      1  0.4378090000000  0.5323590000000  0.5503930000000 1.0
C      1  0.4654590000000  0.4564240000000  0.5359500000000 1.0
C      1  0.4983790000000  0.5469510000000  0.4055030000000 1.0
C      1  0.4386190000000  0.4695030000000  0.4187250000000 1.0
C      1  0.4917540000000  0.5207390000000  0.4494940000000 1.0
C      1  0.4901290000000  0.5720910000000  0.4135520000000 1.0
C      1  0.5320630000000  0.5634090000000  0.5058360000000 1.0
C      1  0.4784480000000  0.4965340000000  0.4491120000000 1.0
C      1  0.4160420000000  0.5776750000000  0.5512680000000 1.0
C      1  0.4912460000000  0.4943100000000  0.5407720000000 1.0
C      1  0.5305180000000  0.4955400000000  0.5935600000000 1.0
C      1  0.4580740000000  0.5315580000000  0.5304850000000 1.0
C      1  0.5912170000000  0.4720520000000  0.5042110000000 1.0
C      1  0.5912270000000  0.4913210000000  0.5680450000000 1.0
C      1  0.6141040000000  0.5104720000000  0.5187290000000 1.0
C      1  0.3971330000000  0.5261090000000  0.5447170000000 1.0
C      1  0.4283970000000  0.5600680000000  0.4376790000000 1.0
C      1  0.5238830000000  0.5152550000000  0.6140650000000 1.0
C      1  0.5742820000000  0.4986940000000  0.5456960000000 1.0
C      1  0.4406180000000  0.5881480000000  0.4839500000000 1.0
C      1  0.5572390000000  0.5470340000000  0.4150820000000 1.0
C      1  0.4828480000000  0.5895360000000  0.5555760000000 1.0
C      1  0.4951850000000  0.4428030000000  0.4488460000000 1.0
C      1  0.5648110000000  0.5163590000000  0.4939750000000 1.0
C      1  0.3988990000000  0.4999400000000  0.4874040000000 1.0
C      1  0.6163300000000  0.4818770000000  0.5214410000000 1.0
C      1  0.6071910000000  0.5017230000000  0.4696800000000 1.0
C      1  0.5191460000000  0.4300650000000  0.5690420000000 1.0
C      1  0.4861240000000  0.5956220000000  0.4501240000000 1.0
C      1  0.5280070000000  0.5243700000000  0.3875150000000 1.0
C      1  0.4401260000000  0.5452230000000  0.5760180000000 1.0
C      1  0.4133950000000  0.5268450000000  0.4760790000000 1.0
C      1  0.5477580000000  0.5593710000000  0.4402400000000 1.0
C      1  0.4251770000000  0.5736710000000  0.5035800000000 1.0
C      1  0.5179110000000  0.3931390000000  0.5175800000000 1.0
C      1  0.4760970000000  0.4465520000000  0.4907480000000 1.0
C      1  0.4498850000000  0.5072260000000  0.3895350000000 1.0
C      1  0.4986140000000  0.4104850000000  0.5618310000000 1.0
C      1  0.5095560000000  0.5973310000000  0.5411610000000 1.0
C      1  0.5447720000000  0.5509830000000  0.3890560000000 1.0
C      1  0.4580980000000  0.5275530000000  0.5013160000000 1.0
C      1  0.4854720000000  0.4364290000000  0.3878670000000 1.0
C      1  0.4881030000000  0.4674260000000  0.5492450000000 1.0
C      1  0.4941180000000  0.5152480000000  0.6100460000000 1.0
C      1  0.4040880000000  0.4974030000000  0.5423230000000 1.0
C      1  0.5909880000000  0.5201230000000  0.5364440000000 1.0
C      1  0.5086580000000  0.5875680000000  0.4343190000000 1.0
C      1  0.5667370000000  0.5569890000000  0.5691150000000 1.0
C      1  0.4873720000000  0.5742590000000  0.5770710000000 1.0
C      1  0.4665960000000  0.5989150000000  0.4928720000000 1.0
C      1  0.4809550000000  0.4233200000000  0.5831070000000 1.0
C      1  0.4026360000000  0.5383590000000  0.5212240000000 1.0
C      1  0.5280810000000  0.4192350000000  0.5128150000000 1.0
C      1  0.5634120000000  0.5157410000000  0.4103810000000 1.0
C      1  0.4148160000000  0.5470420000000  0.5625330000000 1.0
C      1  0.5232320000000  0.4556130000000  0.4879890000000 1.0
C      1  0.5487110000000  0.4698410000000  0.4542880000000 1.0
C      1  0.5030140000000  0.4754830000000  0.4086300000000 1.0
C      1  0.4081230000000  0.5503870000000  0.4982810000000 1.0
C      1  0.4831700000000  0.5371690000000  0.5444750000000 1.0
C      1  0.5594310000000  0.5887340000000  0.5295050000000 1.0
C      1  0.4242850000000  0.4158050000000  0.5165520000000 1.0
C      1  0.5883050000000  0.4601660000000  0.4548640000000 1.0
C      1  0.4872010000000  0.6113240000000  0.4757380000000 1.0
C      1  0.5062680000000  0.4527760000000  0.5331660000000 1.0
C      1  0.4926740000000  0.3983100000000  0.5353510000000 1.0
C      1  0.3972460000000  0.4729890000000  0.4806580000000 1.0
C      1  0.6002740000000  0.4753210000000  0.4749980000000 1.0
C      1  0.5081410000000  0.5836700000000  0.5167250000000 1.0
C      1  0.4376610000000  0.4426340000000  0.4296410000000 1.0
C      1  0.5578940000000  0.4838240000000  0.5957440000000 1.0
C      1  0.5527010000000  0.5853350000000  0.5009660000000 1.0
C      1  0.4669730000000  0.5721000000000  0.5371320000000 1.0
C      1  0.5357290000000  0.4318350000000  0.4274220000000 1.0
C      1  0.5774450000000  0.5428280000000  0.5003720000000 1.0
C      1  0.4539940000000  0.4345600000000  0.5806890000000 1.0
C      1  0.5081250000000  0.4207770000000  0.4341530000000 1.0
C      1  0.5366710000000  0.5471140000000  0.5323360000000 1.0
C      1  0.5036730000000  0.3985760000000  0.4606880000000 1.0
C      1  0.5340370000000  0.5837630000000  0.4476290000000 1.0
END
