TITL C-883734-4173-158 61.0743739724525 125000 -24376.7896263885 0 0 164 (C1) n - 1
REM
REM in /home/nfs/bkarasulu/CARBON/AIRSS/Generating-Clusters/ReaxFF-fromJPCA2015/Units_Real/with-SteepDescent/Only-C1/SD-CG/Try1-3A/FIRE-CG
REM
REM
REM
REM
REM
REM ./C.cell (11c1c37f851c82e70ff6c80c92926a4b)
REM
REM compiler GCC version 9.2.1 20190827 (Red Hat 9.2.1-1)
REM options -cpp -mtune=generic -march=x86-64 -g -O0 -fpre-include=/usr/include/finclude/math-vector-fortran.h
REM seed 866283349 1407167241 682133803 -1003402876 1172282424 1757043617 -495309587 -1746701382 78921435 -287645136 1238578049 -226936395 -1088113892 -98947651 -120679195 -373824396 -387388340 2696329 492853544 -1524315659 1431387516 218544538 -189670196 -2091783341 1010083234 -241140756 1100554040 -873854076 -479984107 -449779105 1417481360 -1150283460 1099777027
REM
CELL 1.54180   50.00000   50.00000   50.00000   90.00000   90.00000   90.00000
LATT -1
SFAC C  
C      1  0.4845340000000  0.5206630000000  0.4499900000000 1.0
C      1  0.5540020000000  0.4109160000000  0.4982130000000 1.0
C      1  0.5595440000000  0.4640080000000  0.4526550000000 1.0
C      1  0.5547470000000  0.4590770000000  0.5346380000000 1.0
C      1  0.5683930000000  0.4224130000000  0.4737730000000 1.0
C      1  0.4163870000000  0.5851840000000  0.5003970000000 1.0
C      1  0.4648190000000  0.5827810000000  0.4485320000000 1.0
C      1  0.5609150000000  0.5450530000000  0.4560570000000 1.0
C      1  0.3910200000000  0.5172460000000  0.4470820000000 1.0
C      1  0.5653900000000  0.5405990000000  0.6009050000000 1.0
C      1  0.5472860000000  0.5006310000000  0.4773970000000 1.0
C      1  0.5348230000000  0.4301910000000  0.4279580000000 1.0
C      1  0.4520020000000  0.4646170000000  0.4862040000000 1.0
C      1  0.4945580000000  0.5583450000000  0.5148500000000 1.0
C      1  0.6051980000000  0.4666600000000  0.5183830000000 1.0
C      1  0.4310370000000  0.4794410000000  0.5309880000000 1.0
C      1  0.5107940000000  0.4627120000000  0.6066970000000 1.0
C      1  0.4712220000000  0.4423540000000  0.5971430000000 1.0
C      1  0.5231220000000  0.3974340000000  0.5351140000000 1.0
C      1  0.5641420000000  0.5758180000000  0.4663160000000 1.0
C      1  0.5179990000000  0.3942480000000  0.4605420000000 1.0
C      1  0.5201940000000  0.4989580000000  0.4718930000000 1.0
C      1  0.5147110000000  0.4102270000000  0.4354460000000 1.0
C      1  0.4879560000000  0.4001320000000  0.4969530000000 1.0
C      1  0.4919840000000  0.5869770000000  0.4382750000000 1.0
C      1  0.4663720000000  0.4279390000000  0.4175300000000 1.0
C      1  0.4206530000000  0.5222430000000  0.5114820000000 1.0
C      1  0.4389910000000  0.5223440000000  0.4880620000000 1.0
C      1  0.4531570000000  0.5881470000000  0.5397510000000 1.0
C      1  0.5084020000000  0.4982700000000  0.5752520000000 1.0
C      1  0.5419760000000  0.5513200000000  0.4091360000000 1.0
C      1  0.5673750000000  0.5211140000000  0.4733160000000 1.0
C      1  0.4288870000000  0.4865460000000  0.4430960000000 1.0
C      1  0.4928610000000  0.5227850000000  0.3997930000000 1.0
C      1  0.5261940000000  0.5437400000000  0.4559520000000 1.0
C      1  0.5396350000000  0.4386270000000  0.5453940000000 1.0
C      1  0.5188880000000  0.5171390000000  0.5236130000000 1.0
C      1  0.4676590000000  0.5355820000000  0.4310580000000 1.0
C      1  0.5023750000000  0.4275740000000  0.5023870000000 1.0
C      1  0.4650540000000  0.5852170000000  0.4812100000000 1.0
C      1  0.4727740000000  0.5606090000000  0.4967850000000 1.0
C      1  0.5607600000000  0.4751690000000  0.4835440000000 1.0
C      1  0.4665630000000  0.4929340000000  0.6054050000000 1.0
C      1  0.5832230000000  0.4319360000000  0.5318910000000 1.0
C      1  0.5709760000000  0.5611380000000  0.5540360000000 1.0
C      1  0.5234340000000  0.6024790000000  0.5221740000000 1.0
C      1  0.4598390000000  0.4000020000000  0.5047150000000 1.0
C      1  0.5734880000000  0.5354520000000  0.5137130000000 1.0
C      1  0.4798730000000  0.4912310000000  0.5115300000000 1.0
C      1  0.4405840000000  0.5961190000000  0.4922490000000 1.0
C      1  0.4108170000000  0.4930850000000  0.5160480000000 1.0
C      1  0.6020240000000  0.4912850000000  0.4992450000000 1.0
C      1  0.4416220000000  0.4175990000000  0.4881480000000 1.0
C      1  0.5152110000000  0.5904800000000  0.4848090000000 1.0
C      1  0.4272020000000  0.4367560000000  0.5349900000000 1.0
C      1  0.4700140000000  0.4515620000000  0.5372410000000 1.0
C      1  0.6101500000000  0.4498930000000  0.4371470000000 1.0
C      1  0.4393650000000  0.5254450000000  0.5862450000000 1.0
C      1  0.5371400000000  0.5466620000000  0.6093900000000 1.0
C      1  0.6005330000000  0.4380780000000  0.5096200000000 1.0
C      1  0.5186290000000  0.4786870000000  0.4017980000000 1.0
C      1  0.4660890000000  0.4024520000000  0.5325580000000 1.0
C      1  0.4151360000000  0.5339400000000  0.4461270000000 1.0
C      1  0.5479110000000  0.5201980000000  0.5293790000000 1.0
C      1  0.4640860000000  0.5404030000000  0.5915890000000 1.0
C      1  0.4314290000000  0.5421580000000  0.5630820000000 1.0
C      1  0.5702360000000  0.5087040000000  0.4237490000000 1.0
C      1  0.5495210000000  0.5938210000000  0.5205250000000 1.0
C      1  0.5306670000000  0.5468440000000  0.4844640000000 1.0
C      1  0.4677980000000  0.4775890000000  0.4084730000000 1.0
C      1  0.4770300000000  0.4509450000000  0.4040220000000 1.0
C      1  0.5541870000000  0.5001660000000  0.5416310000000 1.0
C      1  0.5754520000000  0.5393580000000  0.5733020000000 1.0
C      1  0.4239270000000  0.4561960000000  0.4860690000000 1.0
C      1  0.4812670000000  0.5965520000000  0.5389420000000 1.0
C      1  0.4538740000000  0.4269800000000  0.5425750000000 1.0
C      1  0.5249530000000  0.4500840000000  0.4073720000000 1.0
C      1  0.4500420000000  0.4207420000000  0.4598260000000 1.0
C      1  0.5260200000000  0.6036600000000  0.4612470000000 1.0
C      1  0.4970960000000  0.6076490000000  0.5161400000000 1.0
C      1  0.4632340000000  0.5350820000000  0.4957350000000 1.0
C      1  0.5473770000000  0.4648900000000  0.5088210000000 1.0
C      1  0.5913120000000  0.4787520000000  0.4760900000000 1.0
C      1  0.5544090000000  0.4366680000000  0.4498260000000 1.0
C      1  0.4210410000000  0.4610470000000  0.5506380000000 1.0
C      1  0.5946380000000  0.5117140000000  0.5653130000000 1.0
C      1  0.4708660000000  0.4804920000000  0.4716270000000 1.0
C      1  0.4588760000000  0.4710340000000  0.5152510000000 1.0
C      1  0.4896410000000  0.6048330000000  0.4847650000000 1.0
C      1  0.4364980000000  0.5124440000000  0.4606580000000 1.0
C      1  0.5156690000000  0.5450140000000  0.5880580000000 1.0
C      1  0.5899760000000  0.4826070000000  0.5631330000000 1.0
C      1  0.4011100000000  0.4751710000000  0.4946660000000 1.0
C      1  0.5906090000000  0.5505330000000  0.5351750000000 1.0
C      1  0.5015690000000  0.4738400000000  0.4691990000000 1.0
C      1  0.5201800000000  0.4661540000000  0.5177980000000 1.0
C      1  0.4407240000000  0.5197730000000  0.4002180000000 1.0
C      1  0.5079720000000  0.5182470000000  0.5970620000000 1.0
C      1  0.4048230000000  0.5616510000000  0.4873080000000 1.0
C      1  0.4657580000000  0.5182080000000  0.5428250000000 1.0
C      1  0.5077000000000  0.4704120000000  0.4405370000000 1.0
C      1  0.4480510000000  0.4537410000000  0.5868950000000 1.0
C      1  0.4488650000000  0.4692930000000  0.4305950000000 1.0
C      1  0.4794750000000  0.5194560000000  0.6052870000000 1.0
C      1  0.4473750000000  0.5685320000000  0.5607980000000 1.0
C      1  0.4045240000000  0.4963130000000  0.4298840000000 1.0
C      1  0.5349270000000  0.4003050000000  0.4823110000000 1.0
C      1  0.5123620000000  0.5183050000000  0.4534210000000 1.0
C      1  0.5634500000000  0.5373850000000  0.4264600000000 1.0
C      1  0.3874590000000  0.4928710000000  0.4784780000000 1.0
C      1  0.4765030000000  0.5182820000000  0.5159400000000 1.0
C      1  0.5065620000000  0.4916440000000  0.5174890000000 1.0
C      1  0.5609820000000  0.4784810000000  0.5548950000000 1.0
C      1  0.5228390000000  0.5774820000000  0.5615240000000 1.0
C      1  0.4243320000000  0.4340340000000  0.5048260000000 1.0
C      1  0.4989980000000  0.6104820000000  0.4544610000000 1.0
C      1  0.4903030000000  0.3899500000000  0.4701270000000 1.0
C      1  0.5465210000000  0.5757260000000  0.4228890000000 1.0
C      1  0.4779020000000  0.4723360000000  0.5518710000000 1.0
C      1  0.5181890000000  0.4357700000000  0.5953560000000 1.0
C      1  0.5161830000000  0.5665290000000  0.4978630000000 1.0
C      1  0.5546380000000  0.5533740000000  0.4988420000000 1.0
C      1  0.4818720000000  0.4674690000000  0.6090960000000 1.0
C      1  0.3828040000000  0.5197880000000  0.4766330000000 1.0
C      1  0.5877570000000  0.5168540000000  0.4940290000000 1.0
C      1  0.5344620000000  0.4488450000000  0.5749930000000 1.0
C      1  0.5118650000000  0.5443370000000  0.4102120000000 1.0
C      1  0.5490200000000  0.5805610000000  0.5467380000000 1.0
C      1  0.4649890000000  0.5052440000000  0.4616540000000 1.0
C      1  0.4963920000000  0.3964110000000  0.5427240000000 1.0
C      1  0.5253750000000  0.4754800000000  0.5840050000000 1.0
C      1  0.5019710000000  0.4473810000000  0.4857740000000 1.0
C      1  0.4861020000000  0.4088950000000  0.4285370000000 1.0
C      1  0.4930530000000  0.4269740000000  0.5828370000000 1.0
C      1  0.4704800000000  0.4011670000000  0.4517510000000 1.0
C      1  0.4207000000000  0.5070190000000  0.4086750000000 1.0
C      1  0.4601140000000  0.5617750000000  0.4314560000000 1.0
C      1  0.4827760000000  0.4969550000000  0.5605580000000 1.0
C      1  0.5198520000000  0.5485980000000  0.5589390000000 1.0
C      1  0.5581830000000  0.4181870000000  0.5287060000000 1.0
C      1  0.6055190000000  0.4535260000000  0.4629700000000 1.0
C      1  0.4344380000000  0.5966270000000  0.5190840000000 1.0
C      1  0.5251920000000  0.4896770000000  0.4281760000000 1.0
C      1  0.5105140000000  0.4406690000000  0.5310700000000 1.0
C      1  0.5973270000000  0.4615860000000  0.5445530000000 1.0
C      1  0.4120830000000  0.5605090000000  0.4573120000000 1.0
C      1  0.4389450000000  0.5273910000000  0.5396150000000 1.0
C      1  0.4653140000000  0.5341390000000  0.4009850000000 1.0
C      1  0.5093780000000  0.5611750000000  0.4338280000000 1.0
C      1  0.4289870000000  0.4708470000000  0.5788740000000 1.0
C      1  0.4415070000000  0.4960670000000  0.5910110000000 1.0
C      1  0.3971520000000  0.5359360000000  0.4972190000000 1.0
C      1  0.5497120000000  0.5919580000000  0.4464290000000 1.0
C      1  0.4975920000000  0.4240080000000  0.5542830000000 1.0
C      1  0.4924770000000  0.4936560000000  0.4016570000000 1.0
C      1  0.4931060000000  0.5815500000000  0.5612970000000 1.0
C      1  0.5939760000000  0.4316200000000  0.4816030000000 1.0
C      1  0.5052800000000  0.5398500000000  0.5346130000000 1.0
C      1  0.4718370000000  0.5642500000000  0.5741130000000 1.0
C      1  0.5629530000000  0.5808960000000  0.4948430000000 1.0
C      1  0.4490310000000  0.4399350000000  0.4374780000000 1.0
C      1  0.6042250000000  0.5290280000000  0.5471700000000 1.0
C      1  0.5548530000000  0.4845770000000  0.4319680000000 1.0
C      1  0.5002160000000  0.4494080000000  0.4223880000000 1.0
END
