TITL C-883740-3686-219 13.3336989822505 125000 -9642.7362288108 0 0 66 (C1) n - 1
REM
REM in /home/nfs/bkarasulu/CARBON/AIRSS/Generating-Clusters/ReaxFF-fromJPCA2015/Units_Real/with-SteepDescent/Only-C1/SD-CG/Try1-3A/FIRE-CG
REM
REM
REM
REM
REM
REM ./C.cell (11c1c37f851c82e70ff6c80c92926a4b)
REM
REM compiler GCC version 9.2.1 20190827 (Red Hat 9.2.1-1)
REM options -cpp -mtune=generic -march=x86-64 -g -O0 -fpre-include=/usr/include/finclude/math-vector-fortran.h
REM seed 899263028 -567726276 2073683647 -66822291 -385593639 -153210322 -112455878 1158882829 915576492 -286951351 116157052 -306541752 -96459555 -158265812 -653475724 1529629698 428246099 -779278043 -1018217491 177588706 220648688 -1564287330 -1735850170 1057111747 1362801766 -1732588035 -906653269 255713662 -805722947 1770276823 806030765 1036355075 -646451144
REM
CELL 1.54180   50.00000   50.00000   50.00000   90.00000   90.00000   90.00000
LATT -1
SFAC C  
C      1  0.4419340000000  0.4622450000000  0.5201360000000 1.0
C      1  0.5200450000000  0.5164360000000  0.5205040000000 1.0
C      1  0.5523230000000  0.4790400000000  0.4379670000000 1.0
C      1  0.4567070000000  0.4572960000000  0.4484480000000 1.0
C      1  0.5028330000000  0.4802910000000  0.4199180000000 1.0
C      1  0.4794760000000  0.5671690000000  0.4972710000000 1.0
C      1  0.4741440000000  0.5590790000000  0.4716560000000 1.0
C      1  0.4913330000000  0.5343340000000  0.4292160000000 1.0
C      1  0.5058530000000  0.5029560000000  0.5705400000000 1.0
C      1  0.5329490000000  0.5746030000000  0.5139780000000 1.0
C      1  0.4615090000000  0.5601800000000  0.5471930000000 1.0
C      1  0.4668270000000  0.5003920000000  0.5392060000000 1.0
C      1  0.4379930000000  0.4480020000000  0.4690010000000 1.0
C      1  0.4850260000000  0.5061730000000  0.4928150000000 1.0
C      1  0.4839330000000  0.4480890000000  0.4572830000000 1.0
C      1  0.4256490000000  0.5098610000000  0.5171750000000 1.0
C      1  0.5461570000000  0.4434470000000  0.5257530000000 1.0
C      1  0.5263700000000  0.4864880000000  0.5521960000000 1.0
C      1  0.5011340000000  0.4333510000000  0.5043560000000 1.0
C      1  0.4364930000000  0.5114250000000  0.4904330000000 1.0
C      1  0.5664600000000  0.5167780000000  0.5437460000000 1.0
C      1  0.5728370000000  0.5141340000000  0.5141370000000 1.0
C      1  0.5624000000000  0.4686300000000  0.5302880000000 1.0
C      1  0.5254930000000  0.4348140000000  0.5435830000000 1.0
C      1  0.5063790000000  0.4583710000000  0.4420140000000 1.0
C      1  0.4693300000000  0.5508530000000  0.4460840000000 1.0
C      1  0.4562350000000  0.4511810000000  0.5405530000000 1.0
C      1  0.5183820000000  0.4885020000000  0.5218920000000 1.0
C      1  0.5055620000000  0.5791800000000  0.5050610000000 1.0
C      1  0.5102770000000  0.5425910000000  0.5283840000000 1.0
C      1  0.4811340000000  0.4890380000000  0.5631350000000 1.0
C      1  0.5597670000000  0.5242580000000  0.4678700000000 1.0
C      1  0.5278460000000  0.5212520000000  0.4649230000000 1.0
C      1  0.4376430000000  0.5349650000000  0.5072800000000 1.0
C      1  0.4995480000000  0.4279360000000  0.5325920000000 1.0
C      1  0.4540000000000  0.4872950000000  0.4518060000000 1.0
C      1  0.4430890000000  0.5425880000000  0.4485970000000 1.0
C      1  0.4813660000000  0.4447480000000  0.4862020000000 1.0
C      1  0.4788310000000  0.5187350000000  0.5190960000000 1.0
C      1  0.5125360000000  0.5029210000000  0.4826620000000 1.0
C      1  0.5340190000000  0.4829240000000  0.4968030000000 1.0
C      1  0.5564040000000  0.4892700000000  0.5501440000000 1.0
C      1  0.4945980000000  0.5277280000000  0.5706280000000 1.0
C      1  0.5641050000000  0.4873480000000  0.5084100000000 1.0
C      1  0.4866190000000  0.4602270000000  0.5674810000000 1.0
C      1  0.5369050000000  0.4564220000000  0.4808180000000 1.0
C      1  0.5509010000000  0.5400180000000  0.5464880000000 1.0
C      1  0.5451270000000  0.5537200000000  0.4956380000000 1.0
C      1  0.4556150000000  0.4600390000000  0.4922450000000 1.0
C      1  0.5302570000000  0.4862850000000  0.4214160000000 1.0
C      1  0.5173360000000  0.5390070000000  0.4430220000000 1.0
C      1  0.4176010000000  0.5292630000000  0.4445270000000 1.0
C      1  0.5336030000000  0.4578800000000  0.4521390000000 1.0
C      1  0.5318730000000  0.5591500000000  0.5409100000000 1.0
C      1  0.4402830000000  0.4894720000000  0.5328970000000 1.0
C      1  0.4794330000000  0.5466190000000  0.5631040000000 1.0
C      1  0.4635340000000  0.5463730000000  0.5171430000000 1.0
C      1  0.5677710000000  0.5350350000000  0.4943340000000 1.0
C      1  0.5207890000000  0.5382380000000  0.5014470000000 1.0
C      1  0.5181660000000  0.4572530000000  0.5653080000000 1.0
C      1  0.4946020000000  0.5075360000000  0.4230680000000 1.0
C      1  0.5617030000000  0.5011620000000  0.4532240000000 1.0
C      1  0.5312050000000  0.4367000000000  0.5011560000000 1.0
C      1  0.4329790000000  0.5023370000000  0.4397310000000 1.0
C      1  0.4592670000000  0.4931780000000  0.4814350000000 1.0
C      1  0.4775000000000  0.4371820000000  0.5515320000000 1.0
END
