TITL C-884132-5695-128 -4.74154227337285 125000 -5465.2090665928 0 0 38 (C1) n - 1
REM
REM in /home/nfs/bkarasulu/CARBON/AIRSS/Generating-Clusters/ReaxFF-fromJPCA2015/Units_Real/with-SteepDescent/Only-C1/SD-CG/Try1-3A/FIRE-CG
REM
REM
REM
REM
REM
REM ./C.cell (11c1c37f851c82e70ff6c80c92926a4b)
REM
REM compiler GCC version 9.2.1 20190827 (Red Hat 9.2.1-1)
REM options -cpp -mtune=generic -march=x86-64 -g -O0 -fpre-include=/usr/include/finclude/math-vector-fortran.h
REM seed 127972880 -543603995 -1321410167 -1647512308 1361153189 -77416424 1216237006 -288011118 1032226606 60304132 262912734 -1885800599 319272062 1601957058 360509281 -486819005 -550316089 1111741069 -1272287701 1597248597 1590380274 831936018 -215598587 1474507385 1978991436 1646320616 -754543775 1063122311 1800569287 -13573189 -1718658959 -955592744 -793070872
REM
CELL 1.54180   50.00000   50.00000   50.00000   90.00000   90.00000   90.00000
LATT -1
SFAC C  
C      1  0.4925090000000  0.4439790000000  0.5031790000000 1.0
C      1  0.4564870000000  0.5027100000000  0.4610600000000 1.0
C      1  0.5010470000000  0.5018470000000  0.4419920000000 1.0
C      1  0.5248710000000  0.5666870000000  0.5101060000000 1.0
C      1  0.5113830000000  0.4821910000000  0.5239380000000 1.0
C      1  0.4770550000000  0.5154800000000  0.4479330000000 1.0
C      1  0.5166420000000  0.5236070000000  0.4503360000000 1.0
C      1  0.5409090000000  0.5212480000000  0.5072500000000 1.0
C      1  0.4791270000000  0.4308850000000  0.4564500000000 1.0
C      1  0.5013540000000  0.5378030000000  0.4711390000000 1.0
C      1  0.5224670000000  0.5421060000000  0.5535690000000 1.0
C      1  0.5126630000000  0.5082080000000  0.5090630000000 1.0
C      1  0.4786400000000  0.4603490000000  0.4542810000000 1.0
C      1  0.4583500000000  0.5217520000000  0.5275450000000 1.0
C      1  0.5473800000000  0.4907500000000  0.4748090000000 1.0
C      1  0.5423550000000  0.5167370000000  0.4608610000000 1.0
C      1  0.5221690000000  0.5556710000000  0.4817260000000 1.0
C      1  0.5153790000000  0.4618600000000  0.5012970000000 1.0
C      1  0.5313900000000  0.4880780000000  0.5501330000000 1.0
C      1  0.4563450000000  0.4751630000000  0.4673630000000 1.0
C      1  0.5282990000000  0.5151290000000  0.5542000000000 1.0
C      1  0.5237410000000  0.4714580000000  0.4751750000000 1.0
C      1  0.4687140000000  0.5465930000000  0.5398230000000 1.0
C      1  0.4944890000000  0.5537250000000  0.5536700000000 1.0
C      1  0.5003110000000  0.4127470000000  0.4607830000000 1.0
C      1  0.5364630000000  0.5468120000000  0.5283790000000 1.0
C      1  0.4832860000000  0.4697280000000  0.5369220000000 1.0
C      1  0.4640690000000  0.5108710000000  0.5004450000000 1.0
C      1  0.4877870000000  0.4210300000000  0.4842760000000 1.0
C      1  0.4695960000000  0.5512470000000  0.5700460000000 1.0
C      1  0.4670360000000  0.4817490000000  0.5571680000000 1.0
C      1  0.4574640000000  0.4818430000000  0.4962100000000 1.0
C      1  0.5440670000000  0.5366140000000  0.4810120000000 1.0
C      1  0.4699770000000  0.4605600000000  0.5128080000000 1.0
C      1  0.4597070000000  0.5016030000000  0.5477650000000 1.0
C      1  0.5604220000000  0.4968390000000  0.5000290000000 1.0
C      1  0.4921010000000  0.5195960000000  0.4933920000000 1.0
C      1  0.5039490000000  0.4747440000000  0.4538690000000 1.0
END
