TITL C-883733-4178-40 1557188.66293533 125000 -11208.9795557244 0 0 76 (C1) n - 1
REM
REM in /home/nfs/bkarasulu/CARBON/AIRSS/Generating-Clusters/ReaxFF-fromJPCA2015/Units_Real/with-SteepDescent/Only-C1/SD-CG/Try1-3A/FIRE-CG
REM
REM
REM
REM
REM
REM ./C.cell (11c1c37f851c82e70ff6c80c92926a4b)
REM
REM compiler GCC version 9.2.1 20190827 (Red Hat 9.2.1-1)
REM options -cpp -mtune=generic -march=x86-64 -g -O0 -fpre-include=/usr/include/finclude/math-vector-fortran.h
REM seed -1645128024 1672350468 -1312679266 -1622757332 -1942200966 1646448460 -2138458306 -953422031 -281465272 2073924205 2120944897 900666729 53174204 -1348618436 -1512508589 1039971802 22876952 1379965066 801625666 -1319490263 1576686494 1345530543 2048369288 -133709105 746368446 1105400090 392202816 411165950 1547591781 404713171 193629934 -582857353 990389430
REM
CELL 1.54180   50.00000   50.00000   50.00000   90.00000   90.00000   90.00000
LATT -1
SFAC C  
C      1  0.5307970000000  0.4389670000000  0.5045160000000 1.0
C      1  0.4852670000000  0.5821050000000  0.4623290000000 1.0
C      1  0.4401820000000  0.4417860000000  0.5076430000000 1.0
C      1  0.5273040000000  0.4454940000000  0.5523560000000 1.0
C      1  0.4912240000000  0.5121430000000  0.4684890000000 1.0
C      1  0.4442980000000  0.4488840000000  0.5527920000000 1.0
C      1  0.5048690000000  0.4896270000000  0.4830410000000 1.0
C      1  0.5412210000000  0.4963080000000  0.5166500000000 1.0
C      1  0.4909350000000  0.4592680000000  0.5673240000000 1.0
C      1  0.5237180000000  0.5211460000000  0.4265730000000 1.0
C      1  0.5450510000000  0.4772470000000  0.4309360000000 1.0
C      1  0.4936920000000  0.5640440000000  0.5146840000000 1.0
C      1  0.5411490000000  0.5604960000000  0.5170660000000 1.0
C      1  0.4929450000000  0.5113410000000  0.4339050000000 1.0
C      1  0.4494320000000  0.4668600000000  0.4466550000000 1.0
C      1  0.5574590000000  0.5069540000000  0.5671350000000 1.0
C      1  0.5399530000000  0.5489920000000  0.5446650000000 1.0
C      1  0.5064650000000  0.5383410000000  0.4726310000000 1.0
C      1  0.5714610000000  0.4895310000000  0.5476850000000 1.0
C      1  0.4386200000000  0.5196430000000  0.4678870000000 1.0
C      1  0.4628650000000  0.5131360000000  0.4826100000000 1.0
C      1  0.4733070000000  0.4628860000000  0.4326730000000 1.0
C      1  0.4924580000000  0.4646510000000  0.4913620000000 1.0
C      1  0.5462510000000  0.5035880000000  0.4328710000000 1.0
C      1  0.5445910000000  0.5455090000000  0.4514790000000 1.0
C      1  0.5551200000000  0.4684350000000  0.4768690000000 1.0
C      1  0.5024800000000  0.4435490000000  0.5096230000000 1.0
C      1  0.5285550000000  0.5121590000000  0.5669910000000 1.0
C      1  0.4595490000000  0.5207520000000  0.5104920000000 1.0
C      1  0.4895190000000  0.4420580000000  0.4495410000000 1.0
C      1  0.4674360000000  0.5672280000000  0.5022850000000 1.0
C      1  0.4307110000000  0.4634310000000  0.4664260000000 1.0
C      1  0.4195200000000  0.4816090000000  0.4884280000000 1.0
C      1  0.4626400000000  0.5668820000000  0.4736220000000 1.0
C      1  0.5793900000000  0.5149610000000  0.4769580000000 1.0
C      1  0.5606100000000  0.5481060000000  0.4988090000000 1.0
C      1  0.5626570000000  0.5309760000000  0.5508660000000 1.0
C      1  0.5817060000000  0.5277230000000  0.5034870000000 1.0
C      1  0.5200760000000  0.4946470000000  0.5438360000000 1.0
C      1  0.5185030000000  0.4661730000000  0.4315260000000 1.0
C      1  0.4176530000000  0.5100580000000  0.4857990000000 1.0
C      1  0.5181430000000  0.5392830000000  0.5618840000000 1.0
C      1  0.4684360000000  0.5014640000000  0.5299320000000 1.0
C      1  0.4856700000000  0.4305440000000  0.5302500000000 1.0
C      1  0.4520290000000  0.5433370000000  0.4544230000000 1.0
C      1  0.4944420000000  0.5153650000000  0.5383790000000 1.0
C      1  0.4631070000000  0.4674720000000  0.5660950000000 1.0
C      1  0.4511830000000  0.4898680000000  0.5504860000000 1.0
C      1  0.4537710000000  0.5524720000000  0.5241050000000 1.0
C      1  0.5512430000000  0.5315280000000  0.4756080000000 1.0
C      1  0.5186400000000  0.5728720000000  0.5027580000000 1.0
C      1  0.5156800000000  0.4710600000000  0.5597110000000 1.0
C      1  0.4241020000000  0.4658460000000  0.5126550000000 1.0
C      1  0.5361540000000  0.4468320000000  0.4763530000000 1.0
C      1  0.5000930000000  0.4334560000000  0.5555300000000 1.0
C      1  0.5683070000000  0.5118300000000  0.5275610000000 1.0
C      1  0.5180440000000  0.4458040000000  0.4525240000000 1.0
C      1  0.5022530000000  0.5365430000000  0.5190010000000 1.0
C      1  0.4472740000000  0.4417080000000  0.4793190000000 1.0
C      1  0.5088420000000  0.5668800000000  0.4749550000000 1.0
C      1  0.4941380000000  0.4821730000000  0.4268760000000 1.0
C      1  0.4883430000000  0.5374990000000  0.5593570000000 1.0
C      1  0.4128000000000  0.5268110000000  0.5127120000000 1.0
C      1  0.4295230000000  0.4717190000000  0.5409110000000 1.0
C      1  0.5177150000000  0.5288140000000  0.4973510000000 1.0
C      1  0.4654960000000  0.5456000000000  0.5464550000000 1.0
C      1  0.5664620000000  0.4652070000000  0.5310220000000 1.0
C      1  0.5589570000000  0.4866870000000  0.4539120000000 1.0
C      1  0.5328080000000  0.5476940000000  0.4297100000000 1.0
C      1  0.4763700000000  0.4455110000000  0.4751010000000 1.0
C      1  0.4695380000000  0.5310990000000  0.4354450000000 1.0
C      1  0.5279860000000  0.5042110000000  0.4931460000000 1.0
C      1  0.4290980000000  0.5403110000000  0.5297180000000 1.0
C      1  0.4565650000000  0.4336950000000  0.5304900000000 1.0
C      1  0.5454550000000  0.4444610000000  0.5297070000000 1.0
C      1  0.5596950000000  0.4766510000000  0.5050450000000 1.0
END
