TITL C-883732-77-135 -11.270038672692 125000 -11109.3592813199 0 0 76 (C1) n - 1
REM
REM in /home/nfs/bkarasulu/CARBON/AIRSS/Generating-Clusters/ReaxFF-fromJPCA2015/Units_Real/with-SteepDescent/Only-C1/SD-CG/Try1-3A/FIRE-CG
REM
REM
REM
REM
REM
REM ./C.cell (11c1c37f851c82e70ff6c80c92926a4b)
REM
REM compiler GCC version 9.2.1 20190827 (Red Hat 9.2.1-1)
REM options -cpp -mtune=generic -march=x86-64 -g -O0 -fpre-include=/usr/include/finclude/math-vector-fortran.h
REM seed -1106858196 131166345 992609655 -1393173499 1177842956 -15279167 768136514 -958668717 -1525322534 -2039324119 1242480054 1477936010 -1620959423 -1172139711 -1601149902 -1666904419 460896449 1697392950 -1184043911 951728585 1250945914 1905262101 -544843765 -1881200636 -2065105670 1440941755 269547929 657446270 1898831854 1938012824 -402667780 -906277836 -2135526391
REM
CELL 1.54180   50.00000   50.00000   50.00000   90.00000   90.00000   90.00000
LATT -1
SFAC C  
C      1  0.4309660000000  0.4597670000000  0.4675760000000 1.0
C      1  0.5332750000000  0.4692990000000  0.4282150000000 1.0
C      1  0.4389930000000  0.4909230000000  0.5439220000000 1.0
C      1  0.5176320000000  0.5248510000000  0.4279950000000 1.0
C      1  0.5293090000000  0.4391830000000  0.5458430000000 1.0
C      1  0.5530250000000  0.5426420000000  0.5425940000000 1.0
C      1  0.5072810000000  0.4965270000000  0.5331190000000 1.0
C      1  0.5754610000000  0.4785370000000  0.5007160000000 1.0
C      1  0.4743810000000  0.4669280000000  0.4405960000000 1.0
C      1  0.5314740000000  0.4886580000000  0.5337540000000 1.0
C      1  0.4513610000000  0.4419770000000  0.4710200000000 1.0
C      1  0.4480610000000  0.5364210000000  0.3988220000000 1.0
C      1  0.4788560000000  0.4391830000000  0.4731990000000 1.0
C      1  0.5671320000000  0.5459230000000  0.4881980000000 1.0
C      1  0.5494820000000  0.4355220000000  0.5239140000000 1.0
C      1  0.5295870000000  0.4612720000000  0.5652660000000 1.0
C      1  0.4434020000000  0.5271060000000  0.4493750000000 1.0
C      1  0.4667130000000  0.5028330000000  0.5868330000000 1.0
C      1  0.4076860000000  0.4973750000000  0.4865980000000 1.0
C      1  0.5034640000000  0.4372800000000  0.5328570000000 1.0
C      1  0.5129480000000  0.5308320000000  0.5717660000000 1.0
C      1  0.5090340000000  0.4494930000000  0.5060570000000 1.0
C      1  0.5277610000000  0.5484140000000  0.5306020000000 1.0
C      1  0.5591960000000  0.4768700000000  0.4763210000000 1.0
C      1  0.5634240000000  0.5302220000000  0.5171700000000 1.0
C      1  0.4875430000000  0.4908410000000  0.4523900000000 1.0
C      1  0.4933590000000  0.4465670000000  0.4492940000000 1.0
C      1  0.4927820000000  0.5544550000000  0.4605880000000 1.0
C      1  0.4226160000000  0.4732150000000  0.4943910000000 1.0
C      1  0.4424380000000  0.5062390000000  0.4054870000000 1.0
C      1  0.5790490000000  0.4871300000000  0.5424170000000 1.0
C      1  0.5476910000000  0.5040200000000  0.4661830000000 1.0
C      1  0.4392240000000  0.5004770000000  0.4345590000000 1.0
C      1  0.5467920000000  0.5645840000000  0.4829440000000 1.0
C      1  0.5056620000000  0.5492540000000  0.5504100000000 1.0
C      1  0.4804220000000  0.5528390000000  0.5360240000000 1.0
C      1  0.4663230000000  0.5281690000000  0.5417940000000 1.0
C      1  0.5055820000000  0.5019170000000  0.4342100000000 1.0
C      1  0.4396710000000  0.4735310000000  0.5202560000000 1.0
C      1  0.4789000000000  0.4636830000000  0.5663200000000 1.0
C      1  0.4881710000000  0.4906630000000  0.4803990000000 1.0
C      1  0.4472600000000  0.5408370000000  0.4274550000000 1.0
C      1  0.4337970000000  0.5557930000000  0.4987590000000 1.0
C      1  0.4556020000000  0.4831940000000  0.5683730000000 1.0
C      1  0.5050900000000  0.4727970000000  0.5743330000000 1.0
C      1  0.5793380000000  0.5023480000000  0.5186410000000 1.0
C      1  0.5444840000000  0.4527790000000  0.4720880000000 1.0
C      1  0.4870580000000  0.5072470000000  0.5476120000000 1.0
C      1  0.5258470000000  0.5162700000000  0.4854460000000 1.0
C      1  0.4825010000000  0.5394290000000  0.4839070000000 1.0
C      1  0.5343320000000  0.5005830000000  0.4354370000000 1.0
C      1  0.4452790000000  0.4727970000000  0.4446590000000 1.0
C      1  0.4780140000000  0.4482190000000  0.5414360000000 1.0
C      1  0.4990090000000  0.5147110000000  0.4898680000000 1.0
C      1  0.5032350000000  0.5823630000000  0.5029760000000 1.0
C      1  0.5582140000000  0.4619160000000  0.5179030000000 1.0
C      1  0.5694390000000  0.5261660000000  0.4671380000000 1.0
C      1  0.5307770000000  0.4704930000000  0.5122970000000 1.0
C      1  0.5083470000000  0.5487960000000  0.4388570000000 1.0
C      1  0.4649440000000  0.4602980000000  0.5182230000000 1.0
C      1  0.4389660000000  0.5196820000000  0.5392770000000 1.0
C      1  0.5324970000000  0.5274250000000  0.5095790000000 1.0
C      1  0.4325700000000  0.5144280000000  0.4938040000000 1.0
C      1  0.5256890000000  0.5818810000000  0.4813950000000 1.0
C      1  0.4491680000000  0.5343750000000  0.4785800000000 1.0
C      1  0.5536470000000  0.5062530000000  0.5806190000000 1.0
C      1  0.4836780000000  0.4638350000000  0.4941770000000 1.0
C      1  0.5448250000000  0.4308850000000  0.4937270000000 1.0
C      1  0.4256400000000  0.5338470000000  0.5161120000000 1.0
C      1  0.4968560000000  0.5042300000000  0.5779560000000 1.0
C      1  0.5423440000000  0.5308160000000  0.5689430000000 1.0
C      1  0.5239930000000  0.4520400000000  0.4486280000000 1.0
C      1  0.5183110000000  0.4223590000000  0.4881830000000 1.0
C      1  0.4851230000000  0.5608600000000  0.5078220000000 1.0
C      1  0.5519040000000  0.4835120000000  0.5600460000000 1.0
C      1  0.5160890000000  0.5709160000000  0.4557470000000 1.0
END
