TITL C-884139-6216-201 7.97956482691941 125000 -19602.9454033638 0 0 133 (C1) n - 1
REM
REM in /home/nfs/bkarasulu/CARBON/AIRSS/Generating-Clusters/ReaxFF-fromJPCA2015/Units_Real/with-SteepDescent/Only-C1/SD-CG/Try1-3A/FIRE-CG
REM
REM
REM
REM
REM
REM ./C.cell (11c1c37f851c82e70ff6c80c92926a4b)
REM
REM compiler GCC version 9.2.1 20190827 (Red Hat 9.2.1-1)
REM options -cpp -mtune=generic -march=x86-64 -g -O0 -fpre-include=/usr/include/finclude/math-vector-fortran.h
REM seed 2018506718 -1914591016 -626844142 1153906586 -55582796 104410853 -714929179 -371930687 -619240089 -2005834529 -65438278 -2088398931 -1871060009 394576819 -827180816 1910684138 -1996965348 -1429058089 -728452682 -1445740454 -1212116668 1768085706 -1699903507 1721495727 1747551762 -376747913 1257299770 -1167612144 -900748784 310907661 -69245005 -794010611 101538565
REM
CELL 1.54180   50.00000   50.00000   50.00000   90.00000   90.00000   90.00000
LATT -1
SFAC C  
C      1  0.4949910000000  0.4560620000000  0.5382760000000 1.0
C      1  0.4774060000000  0.5892300000000  0.4872170000000 1.0
C      1  0.5601730000000  0.5468900000000  0.4285990000000 1.0
C      1  0.4368360000000  0.4384250000000  0.5570070000000 1.0
C      1  0.4975310000000  0.5751470000000  0.5520120000000 1.0
C      1  0.4487730000000  0.5718090000000  0.5478460000000 1.0
C      1  0.4466040000000  0.4911210000000  0.4701540000000 1.0
C      1  0.4772010000000  0.5235100000000  0.5932170000000 1.0
C      1  0.5630600000000  0.4433970000000  0.4771520000000 1.0
C      1  0.5598960000000  0.4947100000000  0.5706920000000 1.0
C      1  0.5016830000000  0.5143100000000  0.5446270000000 1.0
C      1  0.5151490000000  0.5941700000000  0.4528480000000 1.0
C      1  0.4635280000000  0.5454100000000  0.4548310000000 1.0
C      1  0.5760650000000  0.4513020000000  0.5592730000000 1.0
C      1  0.4248970000000  0.5321490000000  0.4666940000000 1.0
C      1  0.4583080000000  0.4987260000000  0.4999040000000 1.0
C      1  0.4745410000000  0.5688900000000  0.5326980000000 1.0
C      1  0.4415340000000  0.4289620000000  0.5082010000000 1.0
C      1  0.5292390000000  0.3887400000000  0.4852740000000 1.0
C      1  0.5924720000000  0.5014330000000  0.5114270000000 1.0
C      1  0.5308180000000  0.4755540000000  0.4122300000000 1.0
C      1  0.4505850000000  0.4911150000000  0.5719900000000 1.0
C      1  0.5200850000000  0.4781740000000  0.4393140000000 1.0
C      1  0.5053780000000  0.5819070000000  0.4919660000000 1.0
C      1  0.4535580000000  0.5169850000000  0.5841690000000 1.0
C      1  0.4593230000000  0.4128600000000  0.4885560000000 1.0
C      1  0.4256040000000  0.4999800000000  0.4274870000000 1.0
C      1  0.5088950000000  0.4808010000000  0.5449980000000 1.0
C      1  0.5340770000000  0.4773290000000  0.5204580000000 1.0
C      1  0.4644440000000  0.5374330000000  0.4061890000000 1.0
C      1  0.5161710000000  0.4774350000000  0.5742600000000 1.0
C      1  0.4994980000000  0.4185380000000  0.4555140000000 1.0
C      1  0.4376360000000  0.5422910000000  0.4418640000000 1.0
C      1  0.5453760000000  0.4717970000000  0.4528020000000 1.0
C      1  0.4727230000000  0.5809090000000  0.4364730000000 1.0
C      1  0.5682190000000  0.5181900000000  0.5599380000000 1.0
C      1  0.4661120000000  0.4542630000000  0.4759780000000 1.0
C      1  0.4352760000000  0.5719650000000  0.5218470000000 1.0
C      1  0.5438190000000  0.5258800000000  0.4166830000000 1.0
C      1  0.5749730000000  0.4500390000000  0.5021990000000 1.0
C      1  0.5375090000000  0.4223970000000  0.5779000000000 1.0
C      1  0.5242130000000  0.4006650000000  0.5614900000000 1.0
C      1  0.4665230000000  0.4760150000000  0.4550410000000 1.0
C      1  0.4725320000000  0.4270650000000  0.4666720000000 1.0
C      1  0.5527930000000  0.5636360000000  0.5312460000000 1.0
C      1  0.4881850000000  0.3944590000000  0.5254880000000 1.0
C      1  0.4864360000000  0.4976940000000  0.4946400000000 1.0
C      1  0.5276780000000  0.4330620000000  0.5097770000000 1.0
C      1  0.4549720000000  0.5266590000000  0.5131150000000 1.0
C      1  0.5273120000000  0.4837320000000  0.4909480000000 1.0
C      1  0.4099360000000  0.5250830000000  0.5277290000000 1.0
C      1  0.5291600000000  0.5471220000000  0.5251990000000 1.0
C      1  0.5214360000000  0.4454250000000  0.4143000000000 1.0
C      1  0.4861580000000  0.5002360000000  0.4158100000000 1.0
C      1  0.4598130000000  0.5824980000000  0.5090410000000 1.0
C      1  0.4035460000000  0.4788790000000  0.5420740000000 1.0
C      1  0.5463620000000  0.5817330000000  0.5542840000000 1.0
C      1  0.5013430000000  0.4729040000000  0.4937730000000 1.0
C      1  0.5465500000000  0.4421290000000  0.4541270000000 1.0
C      1  0.4547000000000  0.4552200000000  0.5032290000000 1.0
C      1  0.5019380000000  0.5215160000000  0.4918170000000 1.0
C      1  0.5505720000000  0.4968880000000  0.4173180000000 1.0
C      1  0.5430010000000  0.5686180000000  0.4187130000000 1.0
C      1  0.5678790000000  0.4864980000000  0.4393040000000 1.0
C      1  0.5480180000000  0.5880790000000  0.4928830000000 1.0
C      1  0.4761450000000  0.4672980000000  0.3943630000000 1.0
C      1  0.4526910000000  0.4782150000000  0.5197520000000 1.0
C      1  0.5727330000000  0.5543040000000  0.4946050000000 1.0
C      1  0.5101410000000  0.5269230000000  0.5716100000000 1.0
C      1  0.4603420000000  0.4455000000000  0.5723850000000 1.0
C      1  0.5470200000000  0.5025470000000  0.5229600000000 1.0
C      1  0.4242210000000  0.4695170000000  0.4233660000000 1.0
C      1  0.5019560000000  0.3965430000000  0.4750940000000 1.0
C      1  0.4135460000000  0.4527380000000  0.5434420000000 1.0
C      1  0.4906600000000  0.5246240000000  0.4043230000000 1.0
C      1  0.4959880000000  0.4954280000000  0.4424700000000 1.0
C      1  0.5020650000000  0.4486960000000  0.5114570000000 1.0
C      1  0.4807350000000  0.3959040000000  0.4966510000000 1.0
C      1  0.4983220000000  0.4530320000000  0.4005630000000 1.0
C      1  0.4533220000000  0.4660060000000  0.4278440000000 1.0
C      1  0.4029090000000  0.4738330000000  0.5013030000000 1.0
C      1  0.4906290000000  0.5546260000000  0.5715370000000 1.0
C      1  0.5041060000000  0.5440040000000  0.5113950000000 1.0
C      1  0.4372190000000  0.5197600000000  0.5398880000000 1.0
C      1  0.4425480000000  0.5354310000000  0.5669070000000 1.0
C      1  0.4610950000000  0.5573110000000  0.5696180000000 1.0
C      1  0.5211270000000  0.4316610000000  0.4408560000000 1.0
C      1  0.4414090000000  0.5235450000000  0.4185810000000 1.0
C      1  0.4170320000000  0.5497740000000  0.5130400000000 1.0
C      1  0.5185700000000  0.5592590000000  0.4771650000000 1.0
C      1  0.4456520000000  0.4193610000000  0.5370530000000 1.0
C      1  0.4644020000000  0.5637560000000  0.4180270000000 1.0
C      1  0.4355550000000  0.5395870000000  0.4932320000000 1.0
C      1  0.5746540000000  0.5270660000000  0.4835180000000 1.0
C      1  0.5901830000000  0.4597720000000  0.5395770000000 1.0
C      1  0.4667090000000  0.4705110000000  0.5846690000000 1.0
C      1  0.5466440000000  0.5597700000000  0.5713030000000 1.0
C      1  0.5249810000000  0.5934840000000  0.5108960000000 1.0
C      1  0.5650040000000  0.5061680000000  0.5019120000000 1.0
C      1  0.5564580000000  0.4453330000000  0.5775490000000 1.0
C      1  0.4129580000000  0.4502070000000  0.5140880000000 1.0
C      1  0.5166020000000  0.5370420000000  0.4092410000000 1.0
C      1  0.5437610000000  0.5322110000000  0.5741540000000 1.0
C      1  0.4449570000000  0.4913420000000  0.5439650000000 1.0
C      1  0.5489240000000  0.4507390000000  0.5168540000000 1.0
C      1  0.5779840000000  0.5488110000000  0.5241170000000 1.0
C      1  0.5868210000000  0.4980080000000  0.4571440000000 1.0
C      1  0.5266650000000  0.5092590000000  0.4781820000000 1.0
C      1  0.5586720000000  0.5735200000000  0.4428480000000 1.0
C      1  0.5447270000000  0.5596800000000  0.4895690000000 1.0
C      1  0.5162650000000  0.3935090000000  0.5339690000000 1.0
C      1  0.4778700000000  0.5307290000000  0.4724830000000 1.0
C      1  0.5424240000000  0.5897200000000  0.4620580000000 1.0
C      1  0.5148400000000  0.5602750000000  0.4268440000000 1.0
C      1  0.5283230000000  0.5201700000000  0.5339310000000 1.0
C      1  0.5323400000000  0.4033800000000  0.5112890000000 1.0
C      1  0.5939160000000  0.4714720000000  0.5151400000000 1.0
C      1  0.4812210000000  0.5355880000000  0.5270480000000 1.0
C      1  0.5122640000000  0.5456820000000  0.4520880000000 1.0
C      1  0.5455250000000  0.4734010000000  0.5814500000000 1.0
C      1  0.5984250000000  0.5102470000000  0.4790910000000 1.0
C      1  0.3988420000000  0.4986280000000  0.5230000000000 1.0
C      1  0.4249300000000  0.5039590000000  0.4576690000000 1.0
C      1  0.5091390000000  0.4203670000000  0.5756650000000 1.0
C      1  0.5836660000000  0.5228990000000  0.5345240000000 1.0
C      1  0.4719960000000  0.4101660000000  0.5433040000000 1.0
C      1  0.4854190000000  0.5946090000000  0.4581040000000 1.0
C      1  0.5137290000000  0.5168950000000  0.4538210000000 1.0
C      1  0.5211560000000  0.5886040000000  0.5402160000000 1.0
C      1  0.4936380000000  0.4810520000000  0.5919230000000 1.0
C      1  0.4981280000000  0.5089120000000  0.5919410000000 1.0
C      1  0.4854600000000  0.4335230000000  0.5588760000000 1.0
C      1  0.4606200000000  0.4880590000000  0.4077080000000 1.0
END
