TITL C-884141-4321-169 -0.647731723685596 125000 -3261.92704351 0 0 24 (C1) n - 1
REM
REM in /home/nfs/bkarasulu/CARBON/AIRSS/Generating-Clusters/ReaxFF-fromJPCA2015/Units_Real/with-SteepDescent/Only-C1/SD-CG/Try1-3A/FIRE-CG
REM
REM
REM
REM
REM
REM ./C.cell (11c1c37f851c82e70ff6c80c92926a4b)
REM
REM compiler GCC version 9.2.1 20190827 (Red Hat 9.2.1-1)
REM options -cpp -mtune=generic -march=x86-64 -g -O0 -fpre-include=/usr/include/finclude/math-vector-fortran.h
REM seed -1056063276 -33271467 1229792576 1421093065 -1918976118 -1734325680 -1520714246 -1292107206 -941376495 -394536788 -902782431 118712562 1231214935 1305149752 1642666394 1498418803 -383462615 2136864079 1115030493 771270686 1165754418 -211988400 632919784 469627911 -1576165621 221492886 1946120566 1177282335 -190710064 -117115298 -1227206438 -1012227038 554907921
REM
CELL 1.54180   50.00000   50.00000   50.00000   90.00000   90.00000   90.00000
LATT -1
SFAC C  
C      1  0.5396630000000  0.5259150000000  0.5047260000000 1.0
C      1  0.4872560000000  0.5015730000000  0.5171550000000 1.0
C      1  0.4939110000000  0.4754150000000  0.5286370000000 1.0
C      1  0.5270900000000  0.4800790000000  0.4677020000000 1.0
C      1  0.4798440000000  0.5597700000000  0.4899480000000 1.0
C      1  0.4523240000000  0.5308760000000  0.4608590000000 1.0
C      1  0.5476090000000  0.4970310000000  0.5127100000000 1.0
C      1  0.4986760000000  0.5617860000000  0.5138850000000 1.0
C      1  0.4611710000000  0.5136890000000  0.5582490000000 1.0
C      1  0.5216970000000  0.5441310000000  0.5156890000000 1.0
C      1  0.5223770000000  0.5220270000000  0.4804490000000 1.0
C      1  0.4930940000000  0.4547260000000  0.4689890000000 1.0
C      1  0.4769510000000  0.4399640000000  0.5163790000000 1.0
C      1  0.4725320000000  0.4556400000000  0.5332080000000 1.0
C      1  0.4770490000000  0.5216770000000  0.5384080000000 1.0
C      1  0.5348840000000  0.5096300000000  0.4576900000000 1.0
C      1  0.4722890000000  0.5339250000000  0.4781620000000 1.0
C      1  0.4971490000000  0.4413250000000  0.4961310000000 1.0
C      1  0.5166130000000  0.4527140000000  0.4516340000000 1.0
C      1  0.4973680000000  0.4844010000000  0.4706060000000 1.0
C      1  0.4891350000000  0.5513200000000  0.5398130000000 1.0
C      1  0.5350070000000  0.4751750000000  0.4985880000000 1.0
C      1  0.5138600000000  0.4593230000000  0.5117490000000 1.0
C      1  0.4924480000000  0.5078910000000  0.4886320000000 1.0
END
