TITL C-884131-4643-467 1.76730047571989 125000 -10933.0331920167 0 0 75 (C1) n - 1
REM
REM in /home/nfs/bkarasulu/CARBON/AIRSS/Generating-Clusters/ReaxFF-fromJPCA2015/Units_Real/with-SteepDescent/Only-C1/SD-CG/Try1-3A/FIRE-CG
REM
REM
REM
REM
REM
REM ./C.cell (11c1c37f851c82e70ff6c80c92926a4b)
REM
REM compiler GCC version 9.2.1 20190827 (Red Hat 9.2.1-1)
REM options -cpp -mtune=generic -march=x86-64 -g -O0 -fpre-include=/usr/include/finclude/math-vector-fortran.h
REM seed 875535789 -2142152002 1650995964 791337209 1856110340 1746642075 1645119791 -138207447 46063310 -54894587 -1572992073 2041163893 1757925887 1588736305 762449118 1081047939 1751367405 1514453739 -1577340441 1336855945 1921920986 -596347123 -862524900 -1584341561 -1298003540 1703387248 -869990243 -131056474 -1717382385 -1940030072 -375147318 1536062613 -1460873082
REM
CELL 1.54180   50.00000   50.00000   50.00000   90.00000   90.00000   90.00000
LATT -1
SFAC C  
C      1  0.4502140000000  0.5024120000000  0.5643850000000 1.0
C      1  0.4645930000000  0.5146370000000  0.5404670000000 1.0
C      1  0.4548050000000  0.5595790000000  0.5081490000000 1.0
C      1  0.4537610000000  0.5350010000000  0.4888090000000 1.0
C      1  0.4694690000000  0.4209920000000  0.4911540000000 1.0
C      1  0.5570330000000  0.5398920000000  0.4828950000000 1.0
C      1  0.5583740000000  0.5012610000000  0.5476010000000 1.0
C      1  0.5678390000000  0.4558650000000  0.5089490000000 1.0
C      1  0.5469480000000  0.4945640000000  0.4779980000000 1.0
C      1  0.4364930000000  0.5651660000000  0.5255010000000 1.0
C      1  0.4708980000000  0.5400320000000  0.5541870000000 1.0
C      1  0.5104050000000  0.4504770000000  0.4959680000000 1.0
C      1  0.5732510000000  0.5317110000000  0.4625530000000 1.0
C      1  0.4878020000000  0.4159190000000  0.5144920000000 1.0
C      1  0.5586410000000  0.5159780000000  0.4427870000000 1.0
C      1  0.5086440000000  0.4840890000000  0.4730940000000 1.0
C      1  0.4783770000000  0.5368290000000  0.4720470000000 1.0
C      1  0.5637610000000  0.4482790000000  0.4814860000000 1.0
C      1  0.5126800000000  0.4325020000000  0.5203980000000 1.0
C      1  0.5054390000000  0.5452900000000  0.5769380000000 1.0
C      1  0.4644080000000  0.4949520000000  0.4466310000000 1.0
C      1  0.5041460000000  0.4419310000000  0.4685250000000 1.0
C      1  0.4908890000000  0.4627890000000  0.5636520000000 1.0
C      1  0.5313510000000  0.5675740000000  0.5225660000000 1.0
C      1  0.5162510000000  0.5250570000000  0.5205830000000 1.0
C      1  0.5314560000000  0.5252460000000  0.4374060000000 1.0
C      1  0.4273910000000  0.4900670000000  0.5059260000000 1.0
C      1  0.4883680000000  0.4712650000000  0.4209990000000 1.0
C      1  0.4698150000000  0.4846900000000  0.4997780000000 1.0
C      1  0.5173880000000  0.4778890000000  0.4994480000000 1.0
C      1  0.4524020000000  0.4370560000000  0.5083750000000 1.0
C      1  0.5276230000000  0.5257720000000  0.5769270000000 1.0
C      1  0.4940500000000  0.5580890000000  0.5522360000000 1.0
C      1  0.5200370000000  0.4972230000000  0.5752080000000 1.0
C      1  0.4773800000000  0.4324530000000  0.4647000000000 1.0
C      1  0.5122670000000  0.5351590000000  0.4935410000000 1.0
C      1  0.4389410000000  0.4660010000000  0.4667020000000 1.0
C      1  0.5766790000000  0.4815670000000  0.5013310000000 1.0
C      1  0.5491520000000  0.5283540000000  0.5571010000000 1.0
C      1  0.5315740000000  0.4899040000000  0.5500200000000 1.0
C      1  0.4824570000000  0.5761470000000  0.5063980000000 1.0
C      1  0.5211260000000  0.4628100000000  0.4533060000000 1.0
C      1  0.4682180000000  0.4294050000000  0.5321850000000 1.0
C      1  0.4716420000000  0.5039660000000  0.5850730000000 1.0
C      1  0.4352760000000  0.5118750000000  0.4866370000000 1.0
C      1  0.4801930000000  0.4967370000000  0.5238750000000 1.0
C      1  0.4901460000000  0.5815130000000  0.4786480000000 1.0
C      1  0.5443020000000  0.5599720000000  0.4698170000000 1.0
C      1  0.5720080000000  0.5016170000000  0.4657090000000 1.0
C      1  0.5262350000000  0.5630280000000  0.4941230000000 1.0
C      1  0.5241770000000  0.5503820000000  0.4504360000000 1.0
C      1  0.4673870000000  0.5393790000000  0.4204900000000 1.0
C      1  0.4622960000000  0.4674970000000  0.4305880000000 1.0
C      1  0.5377030000000  0.5407760000000  0.5330830000000 1.0
C      1  0.5027970000000  0.5723200000000  0.5277120000000 1.0
C      1  0.4933240000000  0.4844820000000  0.5812460000000 1.0
C      1  0.4275500000000  0.4872540000000  0.5571850000000 1.0
C      1  0.4613350000000  0.5417080000000  0.4491890000000 1.0
C      1  0.4811050000000  0.4903000000000  0.4735760000000 1.0
C      1  0.5361680000000  0.5198860000000  0.4851160000000 1.0
C      1  0.5535860000000  0.4191510000000  0.4922390000000 1.0
C      1  0.4792730000000  0.5318730000000  0.5819280000000 1.0
C      1  0.5146210000000  0.4776890000000  0.4256510000000 1.0
C      1  0.5704600000000  0.4943560000000  0.5229770000000 1.0
C      1  0.4815930000000  0.5126460000000  0.4266170000000 1.0
C      1  0.5474830000000  0.4681400000000  0.4671080000000 1.0
C      1  0.4439770000000  0.4649780000000  0.4971280000000 1.0
C      1  0.5433720000000  0.4326070000000  0.5155620000000 1.0
C      1  0.5105550000000  0.5068190000000  0.4254860000000 1.0
C      1  0.4252530000000  0.4878510000000  0.5339780000000 1.0
C      1  0.4971170000000  0.5584980000000  0.4599560000000 1.0
C      1  0.5121180000000  0.4947840000000  0.5249380000000 1.0
C      1  0.4900880000000  0.4429900000000  0.5467340000000 1.0
C      1  0.4557010000000  0.4479140000000  0.4512030000000 1.0
C      1  0.4383650000000  0.4951370000000  0.4625920000000 1.0
END
