TITL C-883735-9890-22 -884899.385088338 125000 -6928.31796594834 0 0 48 (C1) n - 1
REM
REM in /home/nfs/bkarasulu/CARBON/AIRSS/Generating-Clusters/ReaxFF-fromJPCA2015/Units_Real/with-SteepDescent/Only-C1/SD-CG/Try1-3A/FIRE-CG
REM
REM
REM
REM
REM
REM ./C.cell (11c1c37f851c82e70ff6c80c92926a4b)
REM
REM compiler GCC version 9.2.1 20190827 (Red Hat 9.2.1-1)
REM options -cpp -mtune=generic -march=x86-64 -g -O0 -fpre-include=/usr/include/finclude/math-vector-fortran.h
REM seed 1987449250 -1215060354 116648278 531889101 1090941681 1082390477 1345671231 1993526521 -703098438 2036505488 -1920345613 -2013350794 490423369 626325574 1007842892 53264236 -582562975 1938536653 2070956919 294637962 325329673 -394685302 723717813 2071678611 58578895 -1779111324 -822553355 1611030494 1610549988 566857975 -241554136 1078465423 -1544985815
REM
CELL 1.54180   50.00000   50.00000   50.00000   90.00000   90.00000   90.00000
LATT -1
SFAC C  
C      1  0.5501640000000  0.4963940000000  0.4807750000000 1.0
C      1  0.5461720000000  0.5474650000000  0.5475080000000 1.0
C      1  0.4849350000000  0.5038140000000  0.4949060000000 1.0
C      1  0.4834710000000  0.4590490000000  0.4509230000000 1.0
C      1  0.4741010000000  0.4994120000000  0.4680660000000 1.0
C      1  0.5017770000000  0.5292530000000  0.5272560000000 1.0
C      1  0.5132030000000  0.5032790000000  0.4425390000000 1.0
C      1  0.4736700000000  0.4594730000000  0.5358910000000 1.0
C      1  0.4919990000000  0.5634380000000  0.5480030000000 1.0
C      1  0.5397570000000  0.5499250000000  0.4985960000000 1.0
C      1  0.5566970000000  0.5376680000000  0.5206450000000 1.0
C      1  0.4927380000000  0.5704390000000  0.5192110000000 1.0
C      1  0.5203670000000  0.4649300000000  0.5507190000000 1.0
C      1  0.5388250000000  0.5389670000000  0.4711160000000 1.0
C      1  0.4485350000000  0.4709670000000  0.4923480000000 1.0
C      1  0.4616030000000  0.5151790000000  0.5457430000000 1.0
C      1  0.4860540000000  0.5146520000000  0.4462150000000 1.0
C      1  0.5249910000000  0.4819780000000  0.4824330000000 1.0
C      1  0.5036940000000  0.4768050000000  0.4437480000000 1.0
C      1  0.5668960000000  0.4843330000000  0.5240240000000 1.0
C      1  0.4706530000000  0.5411870000000  0.4493540000000 1.0
C      1  0.4864730000000  0.4381030000000  0.4951540000000 1.0
C      1  0.4782390000000  0.5275340000000  0.5102330000000 1.0
C      1  0.5655960000000  0.4755390000000  0.4957710000000 1.0
C      1  0.4356950000000  0.4963140000000  0.4985160000000 1.0
C      1  0.4427430000000  0.5330000000000  0.4578680000000 1.0
C      1  0.5087770000000  0.4894150000000  0.5053210000000 1.0
C      1  0.4309350000000  0.4879460000000  0.4494970000000 1.0
C      1  0.4674310000000  0.4864970000000  0.5459820000000 1.0
C      1  0.4290460000000  0.5087260000000  0.4692100000000 1.0
C      1  0.5445060000000  0.4801690000000  0.5438000000000 1.0
C      1  0.4573560000000  0.4743600000000  0.4631760000000 1.0
C      1  0.4417940000000  0.5108360000000  0.5226550000000 1.0
C      1  0.4986730000000  0.4440470000000  0.4696160000000 1.0
C      1  0.4731120000000  0.5550880000000  0.4732900000000 1.0
C      1  0.5188640000000  0.4888450000000  0.5334780000000 1.0
C      1  0.5081030000000  0.4334430000000  0.5143080000000 1.0
C      1  0.5388270000000  0.5125590000000  0.4579040000000 1.0
C      1  0.4855880000000  0.5347630000000  0.5506860000000 1.0
C      1  0.5333220000000  0.4344360000000  0.5001790000000 1.0
C      1  0.5207990000000  0.5574500000000  0.5571460000000 1.0
C      1  0.5155790000000  0.5530840000000  0.5155030000000 1.0
C      1  0.4739230000000  0.5563420000000  0.5010250000000 1.0
C      1  0.5535510000000  0.4499510000000  0.4910740000000 1.0
C      1  0.5652790000000  0.5113770000000  0.5166390000000 1.0
C      1  0.5005100000000  0.4471170000000  0.5389270000000 1.0
C      1  0.4649790000000  0.4536270000000  0.5081870000000 1.0
C      1  0.5300000000000  0.4508270000000  0.4748340000000 1.0
END
