TITL C-884139-6216-172 -20.0555115178997 125000 -12473.3914399298 0 0 83 (C1) n - 1
REM
REM in /home/nfs/bkarasulu/CARBON/AIRSS/Generating-Clusters/ReaxFF-fromJPCA2015/Units_Real/with-SteepDescent/Only-C1/SD-CG/Try1-3A/FIRE-CG
REM
REM
REM
REM
REM
REM ./C.cell (11c1c37f851c82e70ff6c80c92926a4b)
REM
REM compiler GCC version 9.2.1 20190827 (Red Hat 9.2.1-1)
REM options -cpp -mtune=generic -march=x86-64 -g -O0 -fpre-include=/usr/include/finclude/math-vector-fortran.h
REM seed 1947766056 1555631034 650374169 -2136239366 -1043058110 -828728183 961807595 -864481516 1303983089 958246080 -423202949 1519406939 1848263134 1640577891 -164333328 1705472033 1125613255 -473937704 60876938 -1788306600 -1167723282 1906847537 1144148876 1854072104 1563138054 -489700555 -1117342972 604927930 -1591637713 -962923449 -29759178 1957849938 1764522430
REM
CELL 1.54180   50.00000   50.00000   50.00000   90.00000   90.00000   90.00000
LATT -1
SFAC C  
C      1  0.4801480000000  0.4663520000000  0.5164880000000 1.0
C      1  0.4886780000000  0.5136990000000  0.5163700000000 1.0
C      1  0.4990940000000  0.4158170000000  0.5210180000000 1.0
C      1  0.5100740000000  0.5672480000000  0.5274210000000 1.0
C      1  0.4415840000000  0.4990130000000  0.4490080000000 1.0
C      1  0.5265790000000  0.4185220000000  0.5254900000000 1.0
C      1  0.4214750000000  0.4795060000000  0.4438590000000 1.0
C      1  0.5407390000000  0.5038830000000  0.5065910000000 1.0
C      1  0.4780420000000  0.4444460000000  0.4930050000000 1.0
C      1  0.4918160000000  0.5070270000000  0.5890220000000 1.0
C      1  0.4619230000000  0.4552020000000  0.4635630000000 1.0
C      1  0.5481110000000  0.4498630000000  0.4605610000000 1.0
C      1  0.4587530000000  0.4630520000000  0.5425580000000 1.0
C      1  0.5088560000000  0.4664930000000  0.5286190000000 1.0
C      1  0.4946540000000  0.5602650000000  0.5045750000000 1.0
C      1  0.5021500000000  0.5121790000000  0.5412000000000 1.0
C      1  0.5709800000000  0.4922630000000  0.5379650000000 1.0
C      1  0.4532090000000  0.5232070000000  0.5525500000000 1.0
C      1  0.5749750000000  0.4922910000000  0.4805140000000 1.0
C      1  0.5185840000000  0.5226180000000  0.4415960000000 1.0
C      1  0.5283460000000  0.4776070000000  0.5028620000000 1.0
C      1  0.4670390000000  0.5054370000000  0.5730710000000 1.0
C      1  0.5309200000000  0.4322720000000  0.4770780000000 1.0
C      1  0.4177960000000  0.4760660000000  0.4871220000000 1.0
C      1  0.5366060000000  0.5789080000000  0.4725090000000 1.0
C      1  0.4303780000000  0.4402440000000  0.5218560000000 1.0
C      1  0.5149560000000  0.5233220000000  0.5811270000000 1.0
C      1  0.4332740000000  0.4789410000000  0.5358630000000 1.0
C      1  0.5042430000000  0.4702940000000  0.4308690000000 1.0
C      1  0.4293200000000  0.4606700000000  0.4631470000000 1.0
C      1  0.4291270000000  0.5234240000000  0.5121430000000 1.0
C      1  0.5284410000000  0.5277060000000  0.5079720000000 1.0
C      1  0.5651360000000  0.4653330000000  0.4795720000000 1.0
C      1  0.5017130000000  0.5002760000000  0.4263440000000 1.0
C      1  0.5021570000000  0.5324500000000  0.4978570000000 1.0
C      1  0.5087940000000  0.5849020000000  0.4673060000000 1.0
C      1  0.4839140000000  0.5705940000000  0.4805070000000 1.0
C      1  0.5701000000000  0.5417000000000  0.4841810000000 1.0
C      1  0.5508300000000  0.5618320000000  0.4912900000000 1.0
C      1  0.4990160000000  0.5242130000000  0.4674180000000 1.0
C      1  0.5230290000000  0.5738250000000  0.4450840000000 1.0
C      1  0.4178490000000  0.4645200000000  0.5154320000000 1.0
C      1  0.4656490000000  0.5313130000000  0.4233870000000 1.0
C      1  0.5380340000000  0.5530030000000  0.5195770000000 1.0
C      1  0.4798640000000  0.5127420000000  0.4220260000000 1.0
C      1  0.5218160000000  0.4423290000000  0.5429420000000 1.0
C      1  0.5343120000000  0.4626850000000  0.4372960000000 1.0
C      1  0.5563170000000  0.4549300000000  0.5067700000000 1.0
C      1  0.4892380000000  0.5575760000000  0.5452140000000 1.0
C      1  0.4836300000000  0.5522900000000  0.4317830000000 1.0
C      1  0.5130670000000  0.5503500000000  0.4309310000000 1.0
C      1  0.5433760000000  0.4285070000000  0.5028060000000 1.0
C      1  0.5102190000000  0.4744710000000  0.4799440000000 1.0
C      1  0.5765320000000  0.5347820000000  0.5118930000000 1.0
C      1  0.4784630000000  0.4923480000000  0.5037270000000 1.0
C      1  0.5046160000000  0.4464530000000  0.4789470000000 1.0
C      1  0.5432800000000  0.4565420000000  0.5558230000000 1.0
C      1  0.5487960000000  0.5134180000000  0.4444620000000 1.0
C      1  0.4341330000000  0.5081620000000  0.5367300000000 1.0
C      1  0.5677030000000  0.5167390000000  0.4667730000000 1.0
C      1  0.5603680000000  0.5391770000000  0.5353710000000 1.0
C      1  0.5279510000000  0.4790470000000  0.5705710000000 1.0
C      1  0.4622960000000  0.5461470000000  0.5375830000000 1.0
C      1  0.4731540000000  0.4217740000000  0.5131520000000 1.0
C      1  0.4967720000000  0.4755030000000  0.5861690000000 1.0
C      1  0.5381170000000  0.5074770000000  0.5723660000000 1.0
C      1  0.4528060000000  0.5594440000000  0.4864490000000 1.0
C      1  0.4428620000000  0.5290830000000  0.4427740000000 1.0
C      1  0.5448990000000  0.4867990000000  0.4410830000000 1.0
C      1  0.5135160000000  0.4876000000000  0.5471000000000 1.0
C      1  0.5584210000000  0.5148670000000  0.5521400000000 1.0
C      1  0.4628120000000  0.4846620000000  0.4627630000000 1.0
C      1  0.4198420000000  0.5051180000000  0.4904100000000 1.0
C      1  0.4869640000000  0.4949260000000  0.4756630000000 1.0
C      1  0.5076550000000  0.5369830000000  0.5561540000000 1.0
C      1  0.4817020000000  0.4551910000000  0.4400200000000 1.0
C      1  0.4452980000000  0.5446910000000  0.4651360000000 1.0
C      1  0.4701460000000  0.4770500000000  0.5690100000000 1.0
C      1  0.4470790000000  0.5471170000000  0.5122180000000 1.0
C      1  0.4541600000000  0.4334460000000  0.5337590000000 1.0
C      1  0.4857520000000  0.5487850000000  0.4606830000000 1.0
C      1  0.5725650000000  0.5038620000000  0.5096620000000 1.0
C      1  0.5624070000000  0.4651270000000  0.5361470000000 1.0
END
