TITL C-883740-3686-114 1.69371270273376 125000 -9214.79276088646 0 0 63 (C1) n - 1
REM
REM in /home/nfs/bkarasulu/CARBON/AIRSS/Generating-Clusters/ReaxFF-fromJPCA2015/Units_Real/with-SteepDescent/Only-C1/SD-CG/Try1-3A/FIRE-CG
REM
REM
REM
REM
REM
REM ./C.cell (11c1c37f851c82e70ff6c80c92926a4b)
REM
REM compiler GCC version 9.2.1 20190827 (Red Hat 9.2.1-1)
REM options -cpp -mtune=generic -march=x86-64 -g -O0 -fpre-include=/usr/include/finclude/math-vector-fortran.h
REM seed -125600262 1309733706 -298737669 168093914 -1787085990 -1094599182 -1987216065 -1781540416 -1731792445 1387617678 -1656269271 -564963586 -1185363782 114236596 -1312532451 -1236062124 12534568 -2043355503 607952851 -1598070041 -1399920925 643005241 1378109989 -439202707 142522218 -1828156312 -1911787045 -1759530918 1639161279 1462730411 -1533971904 -1777563710 -216576895
REM
CELL 1.54180   50.00000   50.00000   50.00000   90.00000   90.00000   90.00000
LATT -1
SFAC C  
C      1  0.4430850000000  0.4772010000000  0.4542580000000 1.0
C      1  0.5064250000000  0.5168620000000  0.4683390000000 1.0
C      1  0.4816280000000  0.4798210000000  0.4379100000000 1.0
C      1  0.5877320000000  0.5481330000000  0.4532020000000 1.0
C      1  0.4755440000000  0.4490350000000  0.4775550000000 1.0
C      1  0.5615810000000  0.4740400000000  0.5151060000000 1.0
C      1  0.4734580000000  0.5092950000000  0.5528370000000 1.0
C      1  0.5229810000000  0.4547700000000  0.4558880000000 1.0
C      1  0.5039820000000  0.4934380000000  0.4863840000000 1.0
C      1  0.4914090000000  0.4621150000000  0.5255260000000 1.0
C      1  0.5425720000000  0.4750170000000  0.5525910000000 1.0
C      1  0.4731310000000  0.4340560000000  0.5746600000000 1.0
C      1  0.4973000000000  0.4337900000000  0.5271800000000 1.0
C      1  0.5591540000000  0.5192380000000  0.5491270000000 1.0
C      1  0.4460940000000  0.4650720000000  0.5430300000000 1.0
C      1  0.4825360000000  0.4749220000000  0.4983970000000 1.0
C      1  0.5036890000000  0.5496720000000  0.4350660000000 1.0
C      1  0.4934740000000  0.5233810000000  0.4431800000000 1.0
C      1  0.4703610000000  0.5552610000000  0.5251100000000 1.0
C      1  0.5447560000000  0.4743760000000  0.4620100000000 1.0
C      1  0.4490530000000  0.5525420000000  0.5038120000000 1.0
C      1  0.5460940000000  0.5103380000000  0.4984570000000 1.0
C      1  0.4965730000000  0.5575490000000  0.5122820000000 1.0
C      1  0.4645610000000  0.4593900000000  0.4505260000000 1.0
C      1  0.5485950000000  0.5400410000000  0.4877280000000 1.0
C      1  0.5211660000000  0.4342250000000  0.4926300000000 1.0
C      1  0.5208240000000  0.5612720000000  0.5289020000000 1.0
C      1  0.5580390000000  0.5423580000000  0.5335820000000 1.0
C      1  0.4517290000000  0.5441720000000  0.4750360000000 1.0
C      1  0.4571750000000  0.4929940000000  0.4998260000000 1.0
C      1  0.4693940000000  0.5172920000000  0.5078110000000 1.0
C      1  0.5668250000000  0.5457110000000  0.4645980000000 1.0
C      1  0.4820730000000  0.5364060000000  0.5459850000000 1.0
C      1  0.5110080000000  0.5419100000000  0.5491840000000 1.0
C      1  0.4327740000000  0.5114010000000  0.5273710000000 1.0
C      1  0.4386830000000  0.4958440000000  0.4751770000000 1.0
C      1  0.5362290000000  0.4908230000000  0.4376430000000 1.0
C      1  0.4683730000000  0.5620420000000  0.4680470000000 1.0
C      1  0.4250700000000  0.5365220000000  0.5159090000000 1.0
C      1  0.5262530000000  0.5387100000000  0.4681830000000 1.0
C      1  0.4699770000000  0.4240530000000  0.5199840000000 1.0
C      1  0.5107190000000  0.4739710000000  0.4371040000000 1.0
C      1  0.4956520000000  0.5276820000000  0.5074600000000 1.0
C      1  0.5268120000000  0.4328710000000  0.5196480000000 1.0
C      1  0.5419360000000  0.5183300000000  0.4290620000000 1.0
C      1  0.4628180000000  0.4575840000000  0.5661560000000 1.0
C      1  0.5185230000000  0.5072420000000  0.5073320000000 1.0
C      1  0.4486300000000  0.5177160000000  0.4588480000000 1.0
C      1  0.4470060000000  0.4433110000000  0.5233730000000 1.0
C      1  0.5326630000000  0.5447830000000  0.4398220000000 1.0
C      1  0.5463010000000  0.5583670000000  0.5146160000000 1.0
C      1  0.5222330000000  0.4950600000000  0.5615020000000 1.0
C      1  0.4496340000000  0.4945470000000  0.5432010000000 1.0
C      1  0.4942010000000  0.4915800000000  0.5615740000000 1.0
C      1  0.5438720000000  0.4554800000000  0.5298640000000 1.0
C      1  0.5309800000000  0.5223030000000  0.5590230000000 1.0
C      1  0.4569910000000  0.4351010000000  0.4967780000000 1.0
C      1  0.4690410000000  0.5072390000000  0.4402410000000 1.0
C      1  0.4887860000000  0.4654920000000  0.5546660000000 1.0
C      1  0.4881450000000  0.5723160000000  0.4501190000000 1.0
C      1  0.5045290000000  0.4379080000000  0.4718090000000 1.0
C      1  0.5554370000000  0.4852370000000  0.4874950000000 1.0
C      1  0.5637270000000  0.4907900000000  0.5402740000000 1.0
END
