TITL C-883728-9229-237 3.45899921499945 125000 -13764.1912202465 0 0 94 (C1) n - 1
REM
REM in /home/nfs/bkarasulu/CARBON/AIRSS/Generating-Clusters/ReaxFF-fromJPCA2015/Units_Real/with-SteepDescent/Only-C1/SD-CG/Try1-3A/FIRE-CG
REM
REM
REM
REM
REM
REM ./C.cell (11c1c37f851c82e70ff6c80c92926a4b)
REM
REM compiler GCC version 9.2.1 20190827 (Red Hat 9.2.1-1)
REM options -cpp -mtune=generic -march=x86-64 -g -O0 -fpre-include=/usr/include/finclude/math-vector-fortran.h
REM seed 2032430370 1092562450 1597509908 -64744733 970624579 1692742757 723602289 -106145502 1903484991 552275622 359061837 -905272340 -708352239 2106828804 -1264691716 450750560 1663352088 1116137718 1526579661 122893300 464752692 -356708113 467064101 -753489005 750901525 -790284587 -1523956938 1207637604 -171978148 795632550 158581077 444159906 -1465975066
REM
CELL 1.54180   50.00000   50.00000   50.00000   90.00000   90.00000   90.00000
LATT -1
SFAC C  
C      1  0.4730990000000  0.4914860000000  0.5157850000000 1.0
C      1  0.5142340000000  0.4842670000000  0.4624760000000 1.0
C      1  0.5061700000000  0.5153670000000  0.4632240000000 1.0
C      1  0.4369310000000  0.5095970000000  0.5505580000000 1.0
C      1  0.5844900000000  0.5001540000000  0.4812350000000 1.0
C      1  0.5705210000000  0.5373160000000  0.5367170000000 1.0
C      1  0.4316420000000  0.4830460000000  0.5402690000000 1.0
C      1  0.4357350000000  0.4483730000000  0.4787260000000 1.0
C      1  0.4657860000000  0.5148080000000  0.4966210000000 1.0
C      1  0.5421060000000  0.4755960000000  0.4617030000000 1.0
C      1  0.5704170000000  0.5324920000000  0.4459120000000 1.0
C      1  0.4884450000000  0.5908890000000  0.5329430000000 1.0
C      1  0.5014990000000  0.4263120000000  0.5384530000000 1.0
C      1  0.5666140000000  0.5170400000000  0.4985310000000 1.0
C      1  0.4847490000000  0.4947270000000  0.4277840000000 1.0
C      1  0.4830580000000  0.4518960000000  0.4359720000000 1.0
C      1  0.5197990000000  0.5066960000000  0.5745100000000 1.0
C      1  0.5702770000000  0.4537640000000  0.4972490000000 1.0
C      1  0.5179800000000  0.5444120000000  0.5381070000000 1.0
C      1  0.4177940000000  0.5343220000000  0.5143360000000 1.0
C      1  0.4118570000000  0.5090350000000  0.5022130000000 1.0
C      1  0.5477780000000  0.4645310000000  0.4869040000000 1.0
C      1  0.4307010000000  0.5341170000000  0.5387160000000 1.0
C      1  0.4494670000000  0.4657440000000  0.5549800000000 1.0
C      1  0.5369110000000  0.4502240000000  0.5643470000000 1.0
C      1  0.4835450000000  0.4542550000000  0.5760550000000 1.0
C      1  0.4186870000000  0.4833130000000  0.5132040000000 1.0
C      1  0.5133960000000  0.4552370000000  0.5806790000000 1.0
C      1  0.5832180000000  0.5097380000000  0.5421490000000 1.0
C      1  0.5271330000000  0.4679550000000  0.5053690000000 1.0
C      1  0.4689820000000  0.5395420000000  0.5119770000000 1.0
C      1  0.4864740000000  0.5598500000000  0.4993520000000 1.0
C      1  0.5512370000000  0.5315580000000  0.4228630000000 1.0
C      1  0.5904580000000  0.4759320000000  0.4978300000000 1.0
C      1  0.5154220000000  0.5656310000000  0.4669070000000 1.0
C      1  0.4776700000000  0.5303350000000  0.5745790000000 1.0
C      1  0.4731180000000  0.4248560000000  0.4751960000000 1.0
C      1  0.4673460000000  0.5741240000000  0.5375240000000 1.0
C      1  0.5091730000000  0.5695590000000  0.5165910000000 1.0
C      1  0.4625910000000  0.5066430000000  0.5652780000000 1.0
C      1  0.4833730000000  0.4969580000000  0.5435060000000 1.0
C      1  0.4643930000000  0.4766150000000  0.4336000000000 1.0
C      1  0.4540240000000  0.5500160000000  0.5355870000000 1.0
C      1  0.5581170000000  0.4264860000000  0.4928120000000 1.0
C      1  0.5188570000000  0.5222040000000  0.5162750000000 1.0
C      1  0.4633810000000  0.5325030000000  0.4455800000000 1.0
C      1  0.5018080000000  0.4995090000000  0.5070100000000 1.0
C      1  0.4165430000000  0.4645930000000  0.4913030000000 1.0
C      1  0.5078250000000  0.4785480000000  0.4894430000000 1.0
C      1  0.5776810000000  0.5052860000000  0.4530590000000 1.0
C      1  0.4232470000000  0.4662630000000  0.4632260000000 1.0
C      1  0.4247630000000  0.5457490000000  0.4877230000000 1.0
C      1  0.5056150000000  0.5134740000000  0.4227190000000 1.0
C      1  0.5438050000000  0.5084520000000  0.5146170000000 1.0
C      1  0.5459800000000  0.5394270000000  0.5509720000000 1.0
C      1  0.4627930000000  0.4505140000000  0.4836260000000 1.0
C      1  0.5660580000000  0.4959890000000  0.5620590000000 1.0
C      1  0.5543280000000  0.4917440000000  0.4408780000000 1.0
C      1  0.5468490000000  0.5169600000000  0.5694100000000 1.0
C      1  0.5095670000000  0.4931690000000  0.5511320000000 1.0
C      1  0.5915090000000  0.4918450000000  0.5215580000000 1.0
C      1  0.5461270000000  0.4279900000000  0.5187270000000 1.0
C      1  0.5547750000000  0.5471660000000  0.4652170000000 1.0
C      1  0.4780380000000  0.4380040000000  0.5511430000000 1.0
C      1  0.4389220000000  0.4832710000000  0.4471000000000 1.0
C      1  0.4890740000000  0.4478840000000  0.5261660000000 1.0
C      1  0.4918770000000  0.5612230000000  0.4509600000000 1.0
C      1  0.4434860000000  0.5632720000000  0.4734030000000 1.0
C      1  0.4444560000000  0.5557290000000  0.4451760000000 1.0
C      1  0.5103320000000  0.4583770000000  0.4423990000000 1.0
C      1  0.5544660000000  0.5606530000000  0.4906450000000 1.0
C      1  0.4634150000000  0.4754620000000  0.5762780000000 1.0
C      1  0.4987240000000  0.5446210000000  0.5614420000000 1.0
C      1  0.5305250000000  0.4290080000000  0.5419790000000 1.0
C      1  0.5032430000000  0.5282890000000  0.5834430000000 1.0
C      1  0.4560200000000  0.4255760000000  0.5189040000000 1.0
C      1  0.5176240000000  0.4307700000000  0.4519880000000 1.0
C      1  0.5712200000000  0.5448100000000  0.5085980000000 1.0
C      1  0.5269570000000  0.5719340000000  0.4927610000000 1.0
C      1  0.5339200000000  0.4828570000000  0.5314240000000 1.0
C      1  0.5272770000000  0.5419690000000  0.4572750000000 1.0
C      1  0.4680560000000  0.4567130000000  0.5105930000000 1.0
C      1  0.5364120000000  0.5070390000000  0.4237350000000 1.0
C      1  0.4175820000000  0.5202170000000  0.4757620000000 1.0
C      1  0.4863970000000  0.4256640000000  0.4496590000000 1.0
C      1  0.4387640000000  0.5299190000000  0.4348590000000 1.0
C      1  0.4295670000000  0.5100940000000  0.4505600000000 1.0
C      1  0.4727950000000  0.5665580000000  0.4739950000000 1.0
C      1  0.5528060000000  0.4719800000000  0.5523990000000 1.0
C      1  0.4781310000000  0.5186660000000  0.4692670000000 1.0
C      1  0.4650700000000  0.4063370000000  0.4987540000000 1.0
C      1  0.5376220000000  0.4237630000000  0.4706660000000 1.0
C      1  0.5008060000000  0.5439660000000  0.4275650000000 1.0
C      1  0.5284870000000  0.5491780000000  0.4272370000000 1.0
END
