TITL C-883735-9890-428 -0.401676859551903 125000 -1855.5884498244 0 0 14 (C1) n - 1
REM
REM in /home/nfs/bkarasulu/CARBON/AIRSS/Generating-Clusters/ReaxFF-fromJPCA2015/Units_Real/with-SteepDescent/Only-C1/SD-CG/Try1-3A/FIRE-CG
REM
REM
REM
REM
REM
REM ./C.cell (11c1c37f851c82e70ff6c80c92926a4b)
REM
REM compiler GCC version 9.2.1 20190827 (Red Hat 9.2.1-1)
REM options -cpp -mtune=generic -march=x86-64 -g -O0 -fpre-include=/usr/include/finclude/math-vector-fortran.h
REM seed -152658696 -2066354928 -916876440 -409363597 -1277786667 1203848452 -973466079 356488399 -737350990 -238716487 -432358620 2082509826 435386067 -1312927853 69841855 1679808114 -353744102 1615586229 -1266452438 -1983843119 758277914 1687915873 1439775122 -1774082494 1528126650 293320170 408444838 -969974071 -1018675304 1135232107 -371132848 -1238908739 1797953287
REM
CELL 1.54180   50.00000   50.00000   50.00000   90.00000   90.00000   90.00000
LATT -1
SFAC C  
C      1  0.5382560000000  0.5205700000000  0.4851170000000 1.0
C      1  0.4864230000000  0.5239920000000  0.5363260000000 1.0
C      1  0.5390980000000  0.4900030000000  0.4866980000000 1.0
C      1  0.4930990000000  0.4735520000000  0.4846940000000 1.0
C      1  0.4522540000000  0.4871810000000  0.5173060000000 1.0
C      1  0.5210280000000  0.5191370000000  0.4628290000000 1.0
C      1  0.5073630000000  0.5005730000000  0.4469850000000 1.0
C      1  0.4621460000000  0.5119720000000  0.5361450000000 1.0
C      1  0.5348840000000  0.5201780000000  0.5155010000000 1.0
C      1  0.5119420000000  0.5337540000000  0.5339340000000 1.0
C      1  0.5144710000000  0.4793500000000  0.4711830000000 1.0
C      1  0.5388680000000  0.4927950000000  0.5151870000000 1.0
C      1  0.4304920000000  0.4797460000000  0.5085920000000 1.0
C      1  0.4696760000000  0.4671980000000  0.4995020000000 1.0
END
