TITL C-884136-4169-117 -1.57961697458171 125000 -29493.4117451559 0 0 196 (C1) n - 1
REM
REM in /home/nfs/bkarasulu/CARBON/AIRSS/Generating-Clusters/ReaxFF-fromJPCA2015/Units_Real/with-SteepDescent/Only-C1/SD-CG/Try1-3A/FIRE-CG
REM
REM
REM
REM
REM
REM ./C.cell (11c1c37f851c82e70ff6c80c92926a4b)
REM
REM compiler GCC version 9.2.1 20190827 (Red Hat 9.2.1-1)
REM options -cpp -mtune=generic -march=x86-64 -g -O0 -fpre-include=/usr/include/finclude/math-vector-fortran.h
REM seed 2097434872 1515268351 1100598257 312227658 -485879882 823408950 -82411936 -1419794488 598551514 -1814855260 -1383190557 349205260 -1016939179 -562705553 1078261313 -51018970 218746124 -72949189 -1986208681 1495380570 184788518 -900499506 -1584150208 1773355598 -245072948 -1733972627 -68230048 -195813583 -182379184 -1932164988 -1681443831 -1453812167 93116569
REM
CELL 1.54180   50.00000   50.00000   50.00000   90.00000   90.00000   90.00000
LATT -1
SFAC C  
C      1  0.4869940000000  0.5650220000000  0.5383670000000 1.0
C      1  0.5698530000000  0.5871500000000  0.4571020000000 1.0
C      1  0.5132130000000  0.4528590000000  0.4747080000000 1.0
C      1  0.5769500000000  0.5708020000000  0.5456080000000 1.0
C      1  0.5815740000000  0.4222280000000  0.4957800000000 1.0
C      1  0.4936300000000  0.5676420000000  0.5109000000000 1.0
C      1  0.5111100000000  0.4244050000000  0.4341430000000 1.0
C      1  0.4677170000000  0.5116620000000  0.5256490000000 1.0
C      1  0.4425970000000  0.6018890000000  0.4777550000000 1.0
C      1  0.5500800000000  0.5246000000000  0.4747690000000 1.0
C      1  0.4713090000000  0.4839610000000  0.5423210000000 1.0
C      1  0.3968130000000  0.4263870000000  0.4437680000000 1.0
C      1  0.4283460000000  0.4862010000000  0.5195030000000 1.0
C      1  0.5238010000000  0.4580590000000  0.4005780000000 1.0
C      1  0.5647820000000  0.4826280000000  0.4178240000000 1.0
C      1  0.4404820000000  0.4022250000000  0.4869780000000 1.0
C      1  0.5169760000000  0.3998160000000  0.4518280000000 1.0
C      1  0.5795200000000  0.5885830000000  0.4821400000000 1.0
C      1  0.5348860000000  0.5487550000000  0.4169740000000 1.0
C      1  0.4869180000000  0.4939910000000  0.6081290000000 1.0
C      1  0.5206360000000  0.4895860000000  0.4332810000000 1.0
C      1  0.4235100000000  0.4831350000000  0.5727850000000 1.0
C      1  0.4515380000000  0.4386130000000  0.4513010000000 1.0
C      1  0.4727290000000  0.4354580000000  0.4730730000000 1.0
C      1  0.5561140000000  0.5102480000000  0.5476000000000 1.0
C      1  0.4836500000000  0.5414490000000  0.4515620000000 1.0
C      1  0.5818140000000  0.4329260000000  0.4331600000000 1.0
C      1  0.4835020000000  0.5504860000000  0.4234280000000 1.0
C      1  0.4060490000000  0.4987580000000  0.4729360000000 1.0
C      1  0.3908270000000  0.5250080000000  0.4708360000000 1.0
C      1  0.4879280000000  0.5213950000000  0.5704030000000 1.0
C      1  0.3957710000000  0.5486260000000  0.4530030000000 1.0
C      1  0.5169060000000  0.4018550000000  0.5718430000000 1.0
C      1  0.5002400000000  0.5055810000000  0.4722200000000 1.0
C      1  0.5002720000000  0.3882970000000  0.5522270000000 1.0
C      1  0.4154890000000  0.5379590000000  0.5696290000000 1.0
C      1  0.4309050000000  0.4860910000000  0.4585710000000 1.0
C      1  0.4787410000000  0.4933960000000  0.4574970000000 1.0
C      1  0.5312130000000  0.5957700000000  0.5166870000000 1.0
C      1  0.4346740000000  0.4199500000000  0.5457290000000 1.0
C      1  0.4873580000000  0.5691150000000  0.5967340000000 1.0
C      1  0.5374700000000  0.5427260000000  0.5786280000000 1.0
C      1  0.4976350000000  0.4811880000000  0.5545070000000 1.0
C      1  0.5477300000000  0.3999690000000  0.4592150000000 1.0
C      1  0.4891690000000  0.5427480000000  0.6092900000000 1.0
C      1  0.4841090000000  0.4448710000000  0.5881950000000 1.0
C      1  0.4755500000000  0.3973650000000  0.5650490000000 1.0
C      1  0.5003410000000  0.4635390000000  0.4971680000000 1.0
C      1  0.4026620000000  0.5444140000000  0.5449030000000 1.0
C      1  0.5750820000000  0.5900870000000  0.5244370000000 1.0
C      1  0.5611730000000  0.5493890000000  0.5114480000000 1.0
C      1  0.5062830000000  0.5854220000000  0.4487140000000 1.0
C      1  0.5045220000000  0.5178760000000  0.6095980000000 1.0
C      1  0.5062450000000  0.5285660000000  0.4597410000000 1.0
C      1  0.4076200000000  0.4993990000000  0.5375880000000 1.0
C      1  0.4414250000000  0.5292560000000  0.4110490000000 1.0
C      1  0.4116890000000  0.5086730000000  0.5659530000000 1.0
C      1  0.4573230000000  0.4032550000000  0.5409870000000 1.0
C      1  0.4868040000000  0.4297370000000  0.4151710000000 1.0
C      1  0.5448780000000  0.4101880000000  0.5617770000000 1.0
C      1  0.4469280000000  0.5017000000000  0.5005070000000 1.0
C      1  0.5310040000000  0.5983270000000  0.5454520000000 1.0
C      1  0.4194480000000  0.4337850000000  0.5231940000000 1.0
C      1  0.6115820000000  0.4661890000000  0.4503140000000 1.0
C      1  0.4722740000000  0.4007850000000  0.5158450000000 1.0
C      1  0.4921740000000  0.4868740000000  0.4331660000000 1.0
C      1  0.5436390000000  0.4614560000000  0.6031920000000 1.0
C      1  0.5501590000000  0.5127570000000  0.5006350000000 1.0
C      1  0.5038610000000  0.4542900000000  0.5625580000000 1.0
C      1  0.3852790000000  0.5238150000000  0.4993780000000 1.0
C      1  0.3845820000000  0.4714210000000  0.5168770000000 1.0
C      1  0.4717030000000  0.6103360000000  0.4814130000000 1.0
C      1  0.5353550000000  0.4305800000000  0.5149000000000 1.0
C      1  0.5614040000000  0.4015680000000  0.4852580000000 1.0
C      1  0.4791910000000  0.5777270000000  0.4314040000000 1.0
C      1  0.3928730000000  0.4948470000000  0.4989660000000 1.0
C      1  0.4946640000000  0.4408590000000  0.5374780000000 1.0
C      1  0.4128350000000  0.4585640000000  0.5614610000000 1.0
C      1  0.5173800000000  0.3766200000000  0.4854090000000 1.0
C      1  0.4087470000000  0.5460230000000  0.4281670000000 1.0
C      1  0.4377130000000  0.4484040000000  0.4117670000000 1.0
C      1  0.5889280000000  0.5430960000000  0.5473740000000 1.0
C      1  0.4952930000000  0.4521680000000  0.4000750000000 1.0
C      1  0.5832200000000  0.5018950000000  0.4304950000000 1.0
C      1  0.4309400000000  0.5905720000000  0.5031810000000 1.0
C      1  0.3980830000000  0.4214180000000  0.4731570000000 1.0
C      1  0.5549080000000  0.4208200000000  0.5354090000000 1.0
C      1  0.4985040000000  0.4385860000000  0.4580530000000 1.0
C      1  0.4973150000000  0.3892120000000  0.4700280000000 1.0
C      1  0.5505170000000  0.4343980000000  0.5737880000000 1.0
C      1  0.4657300000000  0.5515810000000  0.4714580000000 1.0
C      1  0.5641710000000  0.4160470000000  0.4446860000000 1.0
C      1  0.5395170000000  0.4830180000000  0.4547530000000 1.0
C      1  0.5154170000000  0.4510140000000  0.5198690000000 1.0
C      1  0.5793140000000  0.5224290000000  0.5679480000000 1.0
C      1  0.4921900000000  0.4974610000000  0.3845300000000 1.0
C      1  0.6077010000000  0.4994200000000  0.5363140000000 1.0
C      1  0.5112830000000  0.6201430000000  0.4899020000000 1.0
C      1  0.4711540000000  0.4037580000000  0.4862750000000 1.0
C      1  0.4832600000000  0.5240620000000  0.3799510000000 1.0
C      1  0.4973900000000  0.6099900000000  0.4664680000000 1.0
C      1  0.4508270000000  0.5787470000000  0.4319490000000 1.0
C      1  0.5301750000000  0.5760350000000  0.4279410000000 1.0
C      1  0.6112760000000  0.4985670000000  0.4768550000000 1.0
C      1  0.5095500000000  0.5325830000000  0.3746800000000 1.0
C      1  0.4100560000000  0.4904640000000  0.4103700000000 1.0
C      1  0.5327230000000  0.4543510000000  0.5767260000000 1.0
C      1  0.4989690000000  0.4081510000000  0.5279220000000 1.0
C      1  0.5403570000000  0.4727240000000  0.5231210000000 1.0
C      1  0.5050910000000  0.4963880000000  0.4991050000000 1.0
C      1  0.4479580000000  0.4752210000000  0.4079040000000 1.0
C      1  0.4157290000000  0.5654740000000  0.5103330000000 1.0
C      1  0.5809820000000  0.4291900000000  0.5247080000000 1.0
C      1  0.4790390000000  0.4786220000000  0.4051240000000 1.0
C      1  0.5897050000000  0.5384980000000  0.4711260000000 1.0
C      1  0.5395940000000  0.4600390000000  0.4714490000000 1.0
C      1  0.4703380000000  0.5045780000000  0.5868640000000 1.0
C      1  0.4920710000000  0.4141340000000  0.5828940000000 1.0
C      1  0.4673550000000  0.5821080000000  0.5503650000000 1.0
C      1  0.4386910000000  0.4597120000000  0.5218690000000 1.0
C      1  0.4715470000000  0.5694110000000  0.4935000000000 1.0
C      1  0.4777810000000  0.6045400000000  0.5335320000000 1.0
C      1  0.5298550000000  0.5424300000000  0.4635380000000 1.0
C      1  0.5609360000000  0.4992700000000  0.4648160000000 1.0
C      1  0.4286670000000  0.4571110000000  0.4543470000000 1.0
C      1  0.4682480000000  0.4582970000000  0.5244230000000 1.0
C      1  0.4680000000000  0.5356380000000  0.4022220000000 1.0
C      1  0.5313840000000  0.4957250000000  0.5084560000000 1.0
C      1  0.4505770000000  0.5363000000000  0.5325630000000 1.0
C      1  0.5809320000000  0.4718390000000  0.5561440000000 1.0
C      1  0.5403550000000  0.4862690000000  0.6188590000000 1.0
C      1  0.4565480000000  0.4838560000000  0.4759890000000 1.0
C      1  0.4328590000000  0.5558410000000  0.4181880000000 1.0
C      1  0.4566950000000  0.4529870000000  0.5802300000000 1.0
C      1  0.5304950000000  0.5211010000000  0.5548340000000 1.0
C      1  0.5984450000000  0.4408710000000  0.4814390000000 1.0
C      1  0.4623680000000  0.5542230000000  0.5987010000000 1.0
C      1  0.4721120000000  0.4592430000000  0.4927090000000 1.0
C      1  0.4857700000000  0.6155910000000  0.5064390000000 1.0
C      1  0.4197220000000  0.5627110000000  0.4642230000000 1.0
C      1  0.4333150000000  0.5415810000000  0.5118370000000 1.0
C      1  0.5201720000000  0.5727770000000  0.5006140000000 1.0
C      1  0.5936640000000  0.4531980000000  0.5365540000000 1.0
C      1  0.5593400000000  0.5796640000000  0.4327020000000 1.0
C      1  0.4542050000000  0.4821070000000  0.5726070000000 1.0
C      1  0.5221720000000  0.4073290000000  0.5108050000000 1.0
C      1  0.5039610000000  0.5999580000000  0.5548010000000 1.0
C      1  0.3932870000000  0.5477070000000  0.5183660000000 1.0
C      1  0.5564380000000  0.5265480000000  0.5922450000000 1.0
C      1  0.5524560000000  0.5833970000000  0.5592840000000 1.0
C      1  0.5548170000000  0.4607300000000  0.4965350000000 1.0
C      1  0.6074040000000  0.4935990000000  0.4474190000000 1.0
C      1  0.5200460000000  0.4648120000000  0.6215390000000 1.0
C      1  0.5299970000000  0.5348060000000  0.3916300000000 1.0
C      1  0.5154390000000  0.5326310000000  0.5312630000000 1.0
C      1  0.6047570000000  0.4392740000000  0.4531600000000 1.0
C      1  0.5725630000000  0.4799680000000  0.4851060000000 1.0
C      1  0.4169790000000  0.4167170000000  0.4949670000000 1.0
C      1  0.5359350000000  0.4404630000000  0.4182500000000 1.0
C      1  0.5065240000000  0.5827640000000  0.5775070000000 1.0
C      1  0.5620480000000  0.4528690000000  0.4223620000000 1.0
C      1  0.5356740000000  0.5131180000000  0.6084550000000 1.0
C      1  0.6019670000000  0.4725960000000  0.4918800000000 1.0
C      1  0.5219010000000  0.5698480000000  0.4683360000000 1.0
C      1  0.6031380000000  0.5228180000000  0.4900020000000 1.0
C      1  0.4589980000000  0.4313620000000  0.4238920000000 1.0
C      1  0.5947990000000  0.4970430000000  0.5620290000000 1.0
C      1  0.3987160000000  0.4523590000000  0.5357360000000 1.0
C      1  0.5391740000000  0.6180800000000  0.5009610000000 1.0
C      1  0.4342620000000  0.4391390000000  0.5680020000000 1.0
C      1  0.5365810000000  0.4863060000000  0.4078020000000 1.0
C      1  0.4415510000000  0.5511460000000  0.5782490000000 1.0
C      1  0.3813940000000  0.4894970000000  0.5379490000000 1.0
C      1  0.6069670000000  0.4740090000000  0.5218200000000 1.0
C      1  0.5397050000000  0.3875440000000  0.4997250000000 1.0
C      1  0.5792250000000  0.5584430000000  0.4897680000000 1.0
C      1  0.5666790000000  0.5220950000000  0.5213030000000 1.0
C      1  0.4582320000000  0.5864120000000  0.5112540000000 1.0
C      1  0.4952700000000  0.5168510000000  0.5167840000000 1.0
C      1  0.5775510000000  0.5285610000000  0.4424780000000 1.0
C      1  0.4340020000000  0.5870090000000  0.4542940000000 1.0
C      1  0.4334470000000  0.4980570000000  0.4235720000000 1.0
C      1  0.5678630000000  0.6079400000000  0.5032920000000 1.0
C      1  0.4939260000000  0.4654270000000  0.6097710000000 1.0
C      1  0.5561830000000  0.4816050000000  0.5463420000000 1.0
C      1  0.5101450000000  0.5038130000000  0.5659610000000 1.0
C      1  0.4391190000000  0.5415820000000  0.4696300000000 1.0
C      1  0.4143340000000  0.4470580000000  0.4310120000000 1.0
C      1  0.5342370000000  0.5719640000000  0.5783150000000 1.0
C      1  0.5208760000000  0.5073180000000  0.3834070000000 1.0
C      1  0.5993320000000  0.5259180000000  0.5243190000000 1.0
C      1  0.4499290000000  0.5587590000000  0.5517840000000 1.0
C      1  0.5339730000000  0.5518570000000  0.5152900000000 1.0
C      1  0.4324740000000  0.5238320000000  0.4900000000000 1.0
C      1  0.5625300000000  0.5486230000000  0.4275500000000 1.0
C      1  0.4937910000000  0.5410200000000  0.5492220000000 1.0
END
