TITL C-884140-4336-138 -1.10018340402876 125000 -5593.28666767188 0 0 39 (C1) n - 1
REM
REM in /home/nfs/bkarasulu/CARBON/AIRSS/Generating-Clusters/ReaxFF-fromJPCA2015/Units_Real/with-SteepDescent/Only-C1/SD-CG/Try1-3A/FIRE-CG
REM
REM
REM
REM
REM
REM ./C.cell (11c1c37f851c82e70ff6c80c92926a4b)
REM
REM compiler GCC version 9.2.1 20190827 (Red Hat 9.2.1-1)
REM options -cpp -mtune=generic -march=x86-64 -g -O0 -fpre-include=/usr/include/finclude/math-vector-fortran.h
REM seed -754823477 -625354911 -2016871168 -1727609027 -697947222 -435235056 1515034814 -1460833356 -1759648691 1628479567 1013235776 -45523488 -1318274157 -1060627653 1988273490 -1358490552 -1077598906 -944502518 -623185390 -403705336 -1618654536 2124226962 -1057774252 -936449101 793165088 1490258328 -1242281136 1224814334 -1778322678 -1456046963 -1199647117 -985911185 -558388475
REM
CELL 1.54180   50.00000   50.00000   50.00000   90.00000   90.00000   90.00000
LATT -1
SFAC C  
C      1  0.4729790000000  0.4349840000000  0.5095400000000 1.0
C      1  0.4927050000000  0.4687110000000  0.5597150000000 1.0
C      1  0.5309640000000  0.5560020000000  0.4803510000000 1.0
C      1  0.4806880000000  0.4835640000000  0.4567260000000 1.0
C      1  0.5336210000000  0.5665890000000  0.5206780000000 1.0
C      1  0.5188320000000  0.4487960000000  0.4911770000000 1.0
C      1  0.4936520000000  0.4983690000000  0.5566660000000 1.0
C      1  0.4419270000000  0.4706340000000  0.5177650000000 1.0
C      1  0.5062550000000  0.4515230000000  0.5403380000000 1.0
C      1  0.4768830000000  0.4465790000000  0.5488430000000 1.0
C      1  0.5207800000000  0.4609440000000  0.5172440000000 1.0
C      1  0.5012500000000  0.5134980000000  0.4962620000000 1.0
C      1  0.4697110000000  0.5340580000000  0.4518080000000 1.0
C      1  0.4825600000000  0.4917280000000  0.4860450000000 1.0
C      1  0.4942490000000  0.4371410000000  0.4965280000000 1.0
C      1  0.4377070000000  0.4963780000000  0.5296530000000 1.0
C      1  0.5638520000000  0.4856940000000  0.5267840000000 1.0
C      1  0.4590090000000  0.5378660000000  0.5041760000000 1.0
C      1  0.5097680000000  0.5034820000000  0.4352960000000 1.0
C      1  0.5357630000000  0.5215700000000  0.5641970000000 1.0
C      1  0.4503210000000  0.5219750000000  0.5304960000000 1.0
C      1  0.5071820000000  0.4758510000000  0.4469290000000 1.0
C      1  0.5430710000000  0.5069020000000  0.4694210000000 1.0
C      1  0.5310950000000  0.5130520000000  0.4975160000000 1.0
C      1  0.5423920000000  0.5418630000000  0.5013160000000 1.0
C      1  0.5223890000000  0.5504250000000  0.4535350000000 1.0
C      1  0.4893740000000  0.5378500000000  0.5044120000000 1.0
C      1  0.4945120000000  0.5461360000000  0.4515000000000 1.0
C      1  0.5066290000000  0.5593330000000  0.5126770000000 1.0
C      1  0.5375680000000  0.4897890000000  0.5236850000000 1.0
C      1  0.5265230000000  0.4620830000000  0.4643420000000 1.0
C      1  0.5297090000000  0.5213110000000  0.4478040000000 1.0
C      1  0.4804100000000  0.5081150000000  0.4403160000000 1.0
C      1  0.4614150000000  0.4810400000000  0.5001170000000 1.0
C      1  0.5233260000000  0.5051160000000  0.5507080000000 1.0
C      1  0.4724290000000  0.5116600000000  0.5447970000000 1.0
C      1  0.5515690000000  0.4784020000000  0.4645950000000 1.0
C      1  0.4512110000000  0.5362740000000  0.4771380000000 1.0
C      1  0.4557200000000  0.4447140000000  0.5289010000000 1.0
END
