TITL C-883738-3659-317 2.6500140223243 125000 -6504.86409577481 0 0 45 (C1) n - 1
REM
REM in /home/nfs/bkarasulu/CARBON/AIRSS/Generating-Clusters/ReaxFF-fromJPCA2015/Units_Real/with-SteepDescent/Only-C1/SD-CG/Try1-3A/FIRE-CG
REM
REM
REM
REM
REM
REM ./C.cell (11c1c37f851c82e70ff6c80c92926a4b)
REM
REM compiler GCC version 9.2.1 20190827 (Red Hat 9.2.1-1)
REM options -cpp -mtune=generic -march=x86-64 -g -O0 -fpre-include=/usr/include/finclude/math-vector-fortran.h
REM seed 347634489 743772671 -1860439153 -239579174 -1049746884 1072789862 -129079446 1506168793 913251587 1218954857 -2034221042 -2049649549 -947474556 -1778363359 399730107 164624487 1257230313 -868335875 -1490233580 34948090 1255601179 1881967987 -1360601350 2126960647 1438159327 1172872106 -418990291 -304862011 1404209719 65652970 1982616929 1335278514 1866877499
REM
CELL 1.54180   50.00000   50.00000   50.00000   90.00000   90.00000   90.00000
LATT -1
SFAC C  
C      1  0.5326020000000  0.4745680000000  0.5111790000000 1.0
C      1  0.5052620000000  0.4956590000000  0.4515700000000 1.0
C      1  0.4842050000000  0.5542050000000  0.4739170000000 1.0
C      1  0.5354710000000  0.5153110000000  0.5519490000000 1.0
C      1  0.4518000000000  0.4908990000000  0.4572350000000 1.0
C      1  0.4849830000000  0.4965770000000  0.4938940000000 1.0
C      1  0.5319150000000  0.4644270000000  0.5389560000000 1.0
C      1  0.5152640000000  0.5224420000000  0.4453370000000 1.0
C      1  0.4148280000000  0.5062830000000  0.4899850000000 1.0
C      1  0.4411740000000  0.4649300000000  0.4978830000000 1.0
C      1  0.5601580000000  0.4678740000000  0.4813480000000 1.0
C      1  0.4801890000000  0.4919900000000  0.4667410000000 1.0
C      1  0.5271770000000  0.4774040000000  0.4585190000000 1.0
C      1  0.5318330000000  0.4618610000000  0.4844510000000 1.0
C      1  0.5544600000000  0.5354600000000  0.5007830000000 1.0
C      1  0.4454550000000  0.5031600000000  0.5319680000000 1.0
C      1  0.4971850000000  0.5407210000000  0.5159250000000 1.0
C      1  0.5782890000000  0.4893850000000  0.4883700000000 1.0
C      1  0.4980490000000  0.4505070000000  0.5060830000000 1.0
C      1  0.4868300000000  0.5144160000000  0.5614860000000 1.0
C      1  0.4713680000000  0.5465010000000  0.5278140000000 1.0
C      1  0.5125970000000  0.5447820000000  0.4654500000000 1.0
C      1  0.5659350000000  0.5149310000000  0.4537150000000 1.0
C      1  0.5034410000000  0.5141310000000  0.5044130000000 1.0
C      1  0.4800980000000  0.5596560000000  0.5025970000000 1.0
C      1  0.5115560000000  0.5308330000000  0.5623430000000 1.0
C      1  0.4650880000000  0.5220150000000  0.5429810000000 1.0
C      1  0.5424290000000  0.5167940000000  0.4362360000000 1.0
C      1  0.5289810000000  0.5036720000000  0.5106740000000 1.0
C      1  0.4796350000000  0.4744830000000  0.5092800000000 1.0
C      1  0.4785430000000  0.4333190000000  0.4956130000000 1.0
C      1  0.5508200000000  0.4903030000000  0.4460740000000 1.0
C      1  0.5080320000000  0.4473850000000  0.5349640000000 1.0
C      1  0.4989630000000  0.4866140000000  0.5669010000000 1.0
C      1  0.4217150000000  0.5145820000000  0.5176500000000 1.0
C      1  0.4643620000000  0.5376240000000  0.4648560000000 1.0
C      1  0.4530960000000  0.4767960000000  0.5215240000000 1.0
C      1  0.5336670000000  0.5414100000000  0.4830830000000 1.0
C      1  0.4947130000000  0.4613760000000  0.5554530000000 1.0
C      1  0.5707790000000  0.5186620000000  0.4821520000000 1.0
C      1  0.4316950000000  0.4845520000000  0.4774750000000 1.0
C      1  0.4508990000000  0.4361120000000  0.4892410000000 1.0
C      1  0.4495040000000  0.5183540000000  0.4585280000000 1.0
C      1  0.5478680000000  0.5198810000000  0.5257210000000 1.0
C      1  0.5270850000000  0.4871540000000  0.5576830000000 1.0
END
