TITL C-884130-5973-76 12.2755472843835 125000 -21966.6578159962 0 0 147 (C1) n - 1
REM
REM in /home/nfs/bkarasulu/CARBON/AIRSS/Generating-Clusters/ReaxFF-fromJPCA2015/Units_Real/with-SteepDescent/Only-C1/SD-CG/Try1-3A/FIRE-CG
REM
REM
REM
REM
REM
REM ./C.cell (11c1c37f851c82e70ff6c80c92926a4b)
REM
REM compiler GCC version 9.2.1 20190827 (Red Hat 9.2.1-1)
REM options -cpp -mtune=generic -march=x86-64 -g -O0 -fpre-include=/usr/include/finclude/math-vector-fortran.h
REM seed -236789691 -1451460109 -909800381 -572984020 -32982923 -1310254967 1871821685 44639760 -2027977636 1006423660 1706039025 531491380 -1305228140 -642903666 -1431079020 -565381927 246515754 -1546347124 -735757660 -1636546946 743812950 -701644953 -1461274593 -224911794 -395821664 1776894799 1634369340 -1564455936 -1462180368 -314134447 -1298769563 72583329 -245590656
REM
CELL 1.54180   50.00000   50.00000   50.00000   90.00000   90.00000   90.00000
LATT -1
SFAC C  
C      1  0.4961590000000  0.4095690000000  0.5621970000000 1.0
C      1  0.4413600000000  0.4522680000000  0.4291670000000 1.0
C      1  0.5011600000000  0.4664970000000  0.5863380000000 1.0
C      1  0.4995450000000  0.4782410000000  0.4087970000000 1.0
C      1  0.4736050000000  0.4736850000000  0.4974060000000 1.0
C      1  0.5795030000000  0.4573030000000  0.5441350000000 1.0
C      1  0.4846000000000  0.5497280000000  0.4414840000000 1.0
C      1  0.4163010000000  0.4908910000000  0.5362270000000 1.0
C      1  0.5453910000000  0.4364000000000  0.5816300000000 1.0
C      1  0.5920070000000  0.4878550000000  0.4514310000000 1.0
C      1  0.4159910000000  0.4674150000000  0.5522990000000 1.0
C      1  0.5035780000000  0.5152630000000  0.5852090000000 1.0
C      1  0.5146240000000  0.5931900000000  0.5286080000000 1.0
C      1  0.5347650000000  0.4178660000000  0.4802340000000 1.0
C      1  0.4781950000000  0.4842400000000  0.5916950000000 1.0
C      1  0.5466830000000  0.5319300000000  0.4950960000000 1.0
C      1  0.3861950000000  0.5206750000000  0.4518400000000 1.0
C      1  0.4614820000000  0.4742440000000  0.4711920000000 1.0
C      1  0.4665650000000  0.4143800000000  0.5039230000000 1.0
C      1  0.4490750000000  0.4503730000000  0.5355610000000 1.0
C      1  0.5596600000000  0.5307720000000  0.4666020000000 1.0
C      1  0.5007490000000  0.4423430000000  0.5315130000000 1.0
C      1  0.4256360000000  0.5841050000000  0.5100280000000 1.0
C      1  0.5606340000000  0.5610740000000  0.5403800000000 1.0
C      1  0.5536320000000  0.4638070000000  0.4615940000000 1.0
C      1  0.5208790000000  0.4190000000000  0.5287710000000 1.0
C      1  0.4568310000000  0.5005570000000  0.4588820000000 1.0
C      1  0.4640600000000  0.4325500000000  0.4358710000000 1.0
C      1  0.4877960000000  0.5982740000000  0.5176600000000 1.0
C      1  0.4548010000000  0.4100320000000  0.4572630000000 1.0
C      1  0.5883590000000  0.5503080000000  0.4370090000000 1.0
C      1  0.4872570000000  0.5406300000000  0.4144740000000 1.0
C      1  0.5767030000000  0.5367640000000  0.5379160000000 1.0
C      1  0.5379940000000  0.5683670000000  0.4459100000000 1.0
C      1  0.5491050000000  0.4132620000000  0.5646960000000 1.0
C      1  0.5499380000000  0.4722970000000  0.4153040000000 1.0
C      1  0.5431500000000  0.5666550000000  0.5640390000000 1.0
C      1  0.4967800000000  0.5135720000000  0.4794000000000 1.0
C      1  0.4655290000000  0.5197260000000  0.4110430000000 1.0
C      1  0.4753190000000  0.4539700000000  0.4550300000000 1.0
C      1  0.4735790000000  0.5750370000000  0.5280780000000 1.0
C      1  0.4591840000000  0.4658180000000  0.5811890000000 1.0
C      1  0.6049880000000  0.4763840000000  0.4725190000000 1.0
C      1  0.5031600000000  0.5563270000000  0.4951440000000 1.0
C      1  0.4799320000000  0.5022080000000  0.5003820000000 1.0
C      1  0.5246220000000  0.5091870000000  0.4284000000000 1.0
C      1  0.5806680000000  0.4303930000000  0.4798530000000 1.0
C      1  0.4202060000000  0.4491780000000  0.4496220000000 1.0
C      1  0.5134100000000  0.4152590000000  0.4395490000000 1.0
C      1  0.5363450000000  0.4462560000000  0.4143730000000 1.0
C      1  0.4585460000000  0.5404420000000  0.4799530000000 1.0
C      1  0.4527050000000  0.4375760000000  0.5765730000000 1.0
C      1  0.5258320000000  0.4917130000000  0.5245980000000 1.0
C      1  0.6076850000000  0.4986740000000  0.5283940000000 1.0
C      1  0.4441050000000  0.4174980000000  0.4828360000000 1.0
C      1  0.5924510000000  0.5118200000000  0.5012800000000 1.0
C      1  0.5146530000000  0.5710620000000  0.5541540000000 1.0
C      1  0.5906670000000  0.5094070000000  0.5481890000000 1.0
C      1  0.5022320000000  0.4652900000000  0.4553150000000 1.0
C      1  0.5390300000000  0.4711390000000  0.4834200000000 1.0
C      1  0.4587750000000  0.5244550000000  0.5544260000000 1.0
C      1  0.5393050000000  0.5994160000000  0.5152260000000 1.0
C      1  0.4652550000000  0.5857080000000  0.4679380000000 1.0
C      1  0.5165120000000  0.5314430000000  0.4887610000000 1.0
C      1  0.5959050000000  0.4533800000000  0.4890710000000 1.0
C      1  0.5296080000000  0.4895940000000  0.4052990000000 1.0
C      1  0.3826780000000  0.5467380000000  0.4960180000000 1.0
C      1  0.5651950000000  0.5374890000000  0.4249230000000 1.0
C      1  0.4724840000000  0.6029870000000  0.4906910000000 1.0
C      1  0.5545640000000  0.4337180000000  0.4608250000000 1.0
C      1  0.4767660000000  0.5254660000000  0.4625570000000 1.0
C      1  0.4093240000000  0.4641930000000  0.4880190000000 1.0
C      1  0.4156840000000  0.4867150000000  0.5065290000000 1.0
C      1  0.4483150000000  0.5995500000000  0.5036410000000 1.0
C      1  0.5095760000000  0.4089790000000  0.4696490000000 1.0
C      1  0.5716800000000  0.4811300000000  0.5867110000000 1.0
C      1  0.5399370000000  0.5276140000000  0.5520520000000 1.0
C      1  0.4297140000000  0.5068100000000  0.4650300000000 1.0
C      1  0.5506380000000  0.4610020000000  0.5961720000000 1.0
C      1  0.5144960000000  0.5423960000000  0.5451760000000 1.0
C      1  0.5862030000000  0.4477110000000  0.5172820000000 1.0
C      1  0.5070120000000  0.4481270000000  0.4089340000000 1.0
C      1  0.4242580000000  0.5593170000000  0.5311140000000 1.0
C      1  0.4300850000000  0.4432630000000  0.5573650000000 1.0
C      1  0.4195860000000  0.5707400000000  0.4846840000000 1.0
C      1  0.4905360000000  0.4843510000000  0.5470830000000 1.0
C      1  0.3955880000000  0.5617980000000  0.4744600000000 1.0
C      1  0.6004810000000  0.5046890000000  0.4726330000000 1.0
C      1  0.5387010000000  0.5540320000000  0.4224330000000 1.0
C      1  0.5716110000000  0.4239670000000  0.5066910000000 1.0
C      1  0.5544630000000  0.5145110000000  0.4427470000000 1.0
C      1  0.5129000000000  0.4621730000000  0.4826220000000 1.0
C      1  0.5566370000000  0.5815710000000  0.4946420000000 1.0
C      1  0.5371390000000  0.5822290000000  0.4689670000000 1.0
C      1  0.5329240000000  0.5024770000000  0.6113390000000 1.0
C      1  0.4420610000000  0.5005610000000  0.5485690000000 1.0
C      1  0.5159820000000  0.5362840000000  0.4163250000000 1.0
C      1  0.4891520000000  0.5303010000000  0.5357980000000 1.0
C      1  0.4035700000000  0.5493490000000  0.5163860000000 1.0
C      1  0.5397790000000  0.4259270000000  0.4348540000000 1.0
C      1  0.5893330000000  0.5413880000000  0.5117050000000 1.0
C      1  0.4813500000000  0.5503660000000  0.5144130000000 1.0
C      1  0.5088760000000  0.5777620000000  0.4753710000000 1.0
C      1  0.4738320000000  0.5186340000000  0.5844120000000 1.0
C      1  0.4425230000000  0.5619330000000  0.4669000000000 1.0
C      1  0.4260770000000  0.5004300000000  0.4226110000000 1.0
C      1  0.4698550000000  0.4919730000000  0.4076620000000 1.0
C      1  0.4584520000000  0.4758140000000  0.5507140000000 1.0
C      1  0.4540390000000  0.5227980000000  0.5013970000000 1.0
C      1  0.4285900000000  0.5474740000000  0.4413190000000 1.0
C      1  0.5043280000000  0.4600160000000  0.5565440000000 1.0
C      1  0.5828380000000  0.4824200000000  0.5590950000000 1.0
C      1  0.4018000000000  0.4696900000000  0.4597700000000 1.0
C      1  0.4880100000000  0.5762620000000  0.4534210000000 1.0
C      1  0.4861090000000  0.4103200000000  0.4856990000000 1.0
C      1  0.5859870000000  0.5434410000000  0.4675050000000 1.0
C      1  0.5651900000000  0.4821250000000  0.4421990000000 1.0
C      1  0.3766350000000  0.5261060000000  0.4771350000000 1.0
C      1  0.4287140000000  0.5096250000000  0.4943420000000 1.0
C      1  0.5840600000000  0.5611610000000  0.4914290000000 1.0
C      1  0.4932570000000  0.4278310000000  0.4228600000000 1.0
C      1  0.4793300000000  0.5478790000000  0.5914750000000 1.0
C      1  0.4442980000000  0.5501590000000  0.5515390000000 1.0
C      1  0.5038630000000  0.4878690000000  0.4372430000000 1.0
C      1  0.5256510000000  0.4745930000000  0.6021530000000 1.0
C      1  0.4699500000000  0.4183330000000  0.5616410000000 1.0
C      1  0.4452940000000  0.4787560000000  0.4164950000000 1.0
C      1  0.5101730000000  0.4983740000000  0.5640800000000 1.0
C      1  0.5464930000000  0.4848450000000  0.5063780000000 1.0
C      1  0.4954740000000  0.4568370000000  0.5047770000000 1.0
C      1  0.5629280000000  0.5084040000000  0.5050200000000 1.0
C      1  0.4638310000000  0.5715130000000  0.5555830000000 1.0
C      1  0.5580680000000  0.5019550000000  0.5997350000000 1.0
C      1  0.5415030000000  0.4179790000000  0.5077830000000 1.0
C      1  0.5226640000000  0.4036080000000  0.5536830000000 1.0
C      1  0.4874130000000  0.5684130000000  0.5725610000000 1.0
C      1  0.5499000000000  0.5598170000000  0.5129080000000 1.0
C      1  0.4058910000000  0.4965850000000  0.4457220000000 1.0
C      1  0.4381740000000  0.5269740000000  0.4230290000000 1.0
C      1  0.5266360000000  0.5287870000000  0.5985400000000 1.0
C      1  0.4250520000000  0.4408420000000  0.4779820000000 1.0
C      1  0.5441140000000  0.5411090000000  0.5782410000000 1.0
C      1  0.5343860000000  0.4997270000000  0.5500220000000 1.0
C      1  0.4982230000000  0.5018870000000  0.5238620000000 1.0
C      1  0.4691650000000  0.4289790000000  0.5316430000000 1.0
C      1  0.4009580000000  0.5466530000000  0.4501480000000 1.0
C      1  0.5600320000000  0.4386500000000  0.5559290000000 1.0
END
