TITL C-884131-4643-149 48.3125652406681 125000 -23828.0067762395 0 0 162 (C1) n - 1
REM
REM in /home/nfs/bkarasulu/CARBON/AIRSS/Generating-Clusters/ReaxFF-fromJPCA2015/Units_Real/with-SteepDescent/Only-C1/SD-CG/Try1-3A/FIRE-CG
REM
REM
REM
REM
REM
REM ./C.cell (11c1c37f851c82e70ff6c80c92926a4b)
REM
REM compiler GCC version 9.2.1 20190827 (Red Hat 9.2.1-1)
REM options -cpp -mtune=generic -march=x86-64 -g -O0 -fpre-include=/usr/include/finclude/math-vector-fortran.h
REM seed 999345575 697258988 -379174252 834386839 -1395214037 874874371 -1483997754 67453866 -1818694857 -1715794420 -132976322 1351017553 335809175 -712168246 1454555730 1434292553 -1848154507 -2053350785 -311932186 -1179981054 110018464 1853183240 1660290107 1202750943 529781671 -1567979831 -1026952201 -1868320636 353977960 -965764815 -675115477 -422380833 446534262
REM
CELL 1.54180   50.00000   50.00000   50.00000   90.00000   90.00000   90.00000
LATT -1
SFAC C  
C      1  0.4641050000000  0.4573780000000  0.4050150000000 1.0
C      1  0.4940670000000  0.4501760000000  0.4076080000000 1.0
C      1  0.4453200000000  0.5782460000000  0.5476910000000 1.0
C      1  0.4846140000000  0.4932780000000  0.5003300000000 1.0
C      1  0.4825720000000  0.3821400000000  0.5112330000000 1.0
C      1  0.5374390000000  0.4584690000000  0.4119540000000 1.0
C      1  0.4290320000000  0.4331330000000  0.4552160000000 1.0
C      1  0.5748680000000  0.5085610000000  0.4940600000000 1.0
C      1  0.5118580000000  0.5984160000000  0.4492920000000 1.0
C      1  0.5270970000000  0.5592890000000  0.5109210000000 1.0
C      1  0.5492050000000  0.5213940000000  0.5924590000000 1.0
C      1  0.4555960000000  0.5381930000000  0.5776520000000 1.0
C      1  0.4414420000000  0.5113680000000  0.5921890000000 1.0
C      1  0.4673120000000  0.5119360000000  0.4564440000000 1.0
C      1  0.4616400000000  0.5103200000000  0.4019100000000 1.0
C      1  0.4675690000000  0.4295670000000  0.4896770000000 1.0
C      1  0.5722630000000  0.5140860000000  0.5433020000000 1.0
C      1  0.4710920000000  0.4311450000000  0.5196910000000 1.0
C      1  0.5304990000000  0.5371970000000  0.5590470000000 1.0
C      1  0.4921680000000  0.5919620000000  0.5053760000000 1.0
C      1  0.5590690000000  0.4327280000000  0.5637360000000 1.0
C      1  0.4541880000000  0.4106230000000  0.5317350000000 1.0
C      1  0.4913230000000  0.4471340000000  0.5333710000000 1.0
C      1  0.4237420000000  0.4531980000000  0.4369890000000 1.0
C      1  0.5424060000000  0.4984830000000  0.4463920000000 1.0
C      1  0.4677530000000  0.4641320000000  0.4540480000000 1.0
C      1  0.5367490000000  0.4491170000000  0.5523190000000 1.0
C      1  0.4627260000000  0.4961410000000  0.5597160000000 1.0
C      1  0.5070330000000  0.5149670000000  0.5590670000000 1.0
C      1  0.5131800000000  0.5010610000000  0.3974630000000 1.0
C      1  0.5788380000000  0.5548660000000  0.5164540000000 1.0
C      1  0.5693470000000  0.4828520000000  0.4843510000000 1.0
C      1  0.4938110000000  0.4685150000000  0.4458430000000 1.0
C      1  0.5311110000000  0.5923240000000  0.4710600000000 1.0
C      1  0.4638730000000  0.5891960000000  0.4420970000000 1.0
C      1  0.5230800000000  0.4166170000000  0.4930750000000 1.0
C      1  0.5227440000000  0.5653700000000  0.4825820000000 1.0
C      1  0.5273920000000  0.5073190000000  0.4927810000000 1.0
C      1  0.4532470000000  0.4842070000000  0.4115670000000 1.0
C      1  0.5133620000000  0.4709040000000  0.3998580000000 1.0
C      1  0.5791980000000  0.5771200000000  0.5352140000000 1.0
C      1  0.5690100000000  0.4154550000000  0.5040050000000 1.0
C      1  0.5180980000000  0.5855780000000  0.5179000000000 1.0
C      1  0.4987430000000  0.3941320000000  0.5330700000000 1.0
C      1  0.5058230000000  0.5497130000000  0.5959090000000 1.0
C      1  0.5418440000000  0.4870410000000  0.4764060000000 1.0
C      1  0.4476830000000  0.5264480000000  0.5229390000000 1.0
C      1  0.3824600000000  0.5177100000000  0.4738100000000 1.0
C      1  0.5043990000000  0.4279090000000  0.4245820000000 1.0
C      1  0.4106450000000  0.4746980000000  0.5646730000000 1.0
C      1  0.4298010000000  0.4012860000000  0.5167650000000 1.0
C      1  0.4871930000000  0.5500060000000  0.4529570000000 1.0
C      1  0.4421670000000  0.5860560000000  0.5020550000000 1.0
C      1  0.4460450000000  0.5713390000000  0.4336420000000 1.0
C      1  0.5198010000000  0.4465020000000  0.5285370000000 1.0
C      1  0.4623900000000  0.4138820000000  0.5731040000000 1.0
C      1  0.4420830000000  0.4970860000000  0.5352170000000 1.0
C      1  0.4848030000000  0.4779660000000  0.6011120000000 1.0
C      1  0.4874700000000  0.3802790000000  0.4518660000000 1.0
C      1  0.6095460000000  0.4882610000000  0.5135140000000 1.0
C      1  0.5525840000000  0.3982360000000  0.5224130000000 1.0
C      1  0.4598330000000  0.4883960000000  0.5886150000000 1.0
C      1  0.4234840000000  0.5747200000000  0.4670690000000 1.0
C      1  0.4576930000000  0.5395900000000  0.4121360000000 1.0
C      1  0.5441420000000  0.5446430000000  0.4007470000000 1.0
C      1  0.4923820000000  0.4957410000000  0.4434730000000 1.0
C      1  0.5871890000000  0.5457370000000  0.4610740000000 1.0
C      1  0.4649220000000  0.4732400000000  0.5005960000000 1.0
C      1  0.4826130000000  0.5472300000000  0.3968320000000 1.0
C      1  0.5267390000000  0.5594140000000  0.5780200000000 1.0
C      1  0.4698380000000  0.5429160000000  0.5170110000000 1.0
C      1  0.4364260000000  0.5549470000000  0.5576490000000 1.0
C      1  0.5748710000000  0.4435280000000  0.4615990000000 1.0
C      1  0.5522860000000  0.4733580000000  0.5926440000000 1.0
C      1  0.5595910000000  0.5185170000000  0.5170330000000 1.0
C      1  0.4829510000000  0.5146510000000  0.4827570000000 1.0
C      1  0.6012240000000  0.4614910000000  0.5019760000000 1.0
C      1  0.5105980000000  0.4857220000000  0.5617340000000 1.0
C      1  0.4783310000000  0.6065070000000  0.5238980000000 1.0
C      1  0.4749970000000  0.5219250000000  0.5625590000000 1.0
C      1  0.5158210000000  0.5840700000000  0.4221260000000 1.0
C      1  0.5967740000000  0.4998440000000  0.5389340000000 1.0
C      1  0.5590480000000  0.5336600000000  0.5647910000000 1.0
C      1  0.4940660000000  0.4148270000000  0.4753520000000 1.0
C      1  0.4669070000000  0.4554810000000  0.4808050000000 1.0
C      1  0.5518360000000  0.5459380000000  0.5156440000000 1.0
C      1  0.4545200000000  0.3843180000000  0.5184110000000 1.0
C      1  0.5058350000000  0.5115430000000  0.5300230000000 1.0
C      1  0.5736730000000  0.5416890000000  0.4357180000000 1.0
C      1  0.4109530000000  0.4902310000000  0.5399900000000 1.0
C      1  0.5232890000000  0.4625160000000  0.4822210000000 1.0
C      1  0.4098890000000  0.5499210000000  0.5080090000000 1.0
C      1  0.4907960000000  0.5995590000000  0.5505880000000 1.0
C      1  0.5613130000000  0.5671920000000  0.5556490000000 1.0
C      1  0.5651170000000  0.4983020000000  0.5994350000000 1.0
C      1  0.5161290000000  0.5110420000000  0.4423370000000 1.0
C      1  0.4028930000000  0.4746350000000  0.5171160000000 1.0
C      1  0.3797790000000  0.4879050000000  0.4713680000000 1.0
C      1  0.5399970000000  0.5683150000000  0.4164130000000 1.0
C      1  0.5151950000000  0.4531290000000  0.4559850000000 1.0
C      1  0.4880100000000  0.4051350000000  0.5600780000000 1.0
C      1  0.5595690000000  0.5891710000000  0.4735760000000 1.0
C      1  0.4888450000000  0.5166280000000  0.3940890000000 1.0
C      1  0.5593730000000  0.4132430000000  0.5441490000000 1.0
C      1  0.4410760000000  0.5555840000000  0.4573850000000 1.0
C      1  0.4252220000000  0.5430770000000  0.5322430000000 1.0
C      1  0.5819420000000  0.5727190000000  0.4766100000000 1.0
C      1  0.4898860000000  0.3861760000000  0.4814860000000 1.0
C      1  0.5125930000000  0.4904220000000  0.5110360000000 1.0
C      1  0.5224030000000  0.3979930000000  0.5170220000000 1.0
C      1  0.4672180000000  0.5554180000000  0.4720310000000 1.0
C      1  0.6171810000000  0.5094320000000  0.4940250000000 1.0
C      1  0.4847080000000  0.6056110000000  0.4563320000000 1.0
C      1  0.4216140000000  0.4259300000000  0.5044340000000 1.0
C      1  0.4909800000000  0.4539940000000  0.5837850000000 1.0
C      1  0.4203390000000  0.4967600000000  0.5800120000000 1.0
C      1  0.5891260000000  0.4505390000000  0.5400930000000 1.0
C      1  0.5852220000000  0.5809590000000  0.5047520000000 1.0
C      1  0.5198890000000  0.5237880000000  0.6018300000000 1.0
C      1  0.4070670000000  0.5289550000000  0.4878660000000 1.0
C      1  0.4434500000000  0.4443410000000  0.4193860000000 1.0
C      1  0.4429060000000  0.4793440000000  0.4406120000000 1.0
C      1  0.4042120000000  0.4832100000000  0.4891780000000 1.0
C      1  0.5383180000000  0.5829830000000  0.5635140000000 1.0
C      1  0.4995860000000  0.5366590000000  0.5163130000000 1.0
C      1  0.5618190000000  0.5267010000000  0.4132750000000 1.0
C      1  0.5802720000000  0.4741060000000  0.5870410000000 1.0
C      1  0.5035880000000  0.4998880000000  0.6052630000000 1.0
C      1  0.4922360000000  0.4096980000000  0.4451660000000 1.0
C      1  0.5456550000000  0.4789680000000  0.4281240000000 1.0
C      1  0.5891910000000  0.4640790000000  0.4744050000000 1.0
C      1  0.4812920000000  0.5796960000000  0.5682960000000 1.0
C      1  0.4497740000000  0.5979120000000  0.5276890000000 1.0
C      1  0.4669970000000  0.5676170000000  0.4990280000000 1.0
C      1  0.5354160000000  0.5516640000000  0.4611170000000 1.0
C      1  0.5560040000000  0.4260010000000  0.4535810000000 1.0
C      1  0.4791030000000  0.5584590000000  0.5862600000000 1.0
C      1  0.5133100000000  0.5386520000000  0.4491530000000 1.0
C      1  0.4693840000000  0.5340910000000  0.4381310000000 1.0
C      1  0.5547610000000  0.5633090000000  0.4416500000000 1.0
C      1  0.5196000000000  0.5954270000000  0.5446110000000 1.0
C      1  0.5529380000000  0.4139630000000  0.4801550000000 1.0
C      1  0.5335390000000  0.4706810000000  0.5690780000000 1.0
C      1  0.4230330000000  0.4518870000000  0.5225430000000 1.0
C      1  0.5309170000000  0.4378260000000  0.4354940000000 1.0
C      1  0.4154130000000  0.5762170000000  0.4942030000000 1.0
C      1  0.4361510000000  0.4222260000000  0.4797470000000 1.0
C      1  0.4911780000000  0.4646920000000  0.5572370000000 1.0
C      1  0.4402850000000  0.5013930000000  0.4581380000000 1.0
C      1  0.4414930000000  0.4319020000000  0.5648470000000 1.0
C      1  0.4455890000000  0.4723030000000  0.5193870000000 1.0
C      1  0.4885330000000  0.4246290000000  0.5820300000000 1.0
C      1  0.5261540000000  0.4434220000000  0.5018080000000 1.0
C      1  0.5079530000000  0.5282640000000  0.4884210000000 1.0
C      1  0.4229880000000  0.4485470000000  0.5547980000000 1.0
C      1  0.5953550000000  0.5227520000000  0.4781190000000 1.0
C      1  0.5831510000000  0.4526440000000  0.5671710000000 1.0
C      1  0.5374300000000  0.5174490000000  0.3997750000000 1.0
C      1  0.4233280000000  0.5047990000000  0.4810550000000 1.0
C      1  0.5872580000000  0.4397570000000  0.5152460000000 1.0
C      1  0.4992290000000  0.5663260000000  0.4086510000000 1.0
C      1  0.4884900000000  0.6048800000000  0.4838680000000 1.0
END
