TITL C-884128-4793-280 7.42413644234521 125000 -10301.6444394572 0 0 71 (C1) n - 1
REM
REM in /home/nfs/bkarasulu/CARBON/AIRSS/Generating-Clusters/ReaxFF-fromJPCA2015/Units_Real/with-SteepDescent/Only-C1/SD-CG/Try1-3A/FIRE-CG
REM
REM
REM
REM
REM
REM ./C.cell (11c1c37f851c82e70ff6c80c92926a4b)
REM
REM compiler GCC version 9.2.1 20190827 (Red Hat 9.2.1-1)
REM options -cpp -mtune=generic -march=x86-64 -g -O0 -fpre-include=/usr/include/finclude/math-vector-fortran.h
REM seed 563266666 581574948 503303669 -1259644759 -700431931 -872050572 155499797 -2118043257 1482935435 1731575569 -100832973 1809640330 -1226041879 -1539548039 706828910 -750288173 1306310646 339084430 -2021189071 -1737962513 933937341 -1168482198 1720101975 -916975854 1302899706 -1347642106 -745571394 1662906661 -2069537345 -11083477 -2101982878 835527312 421491182
REM
CELL 1.54180   50.00000   50.00000   50.00000   90.00000   90.00000   90.00000
LATT -1
SFAC C  
C      1  0.5394190000000  0.5075690000000  0.4911250000000 1.0
C      1  0.4834120000000  0.5241430000000  0.4869230000000 1.0
C      1  0.4512240000000  0.5119430000000  0.5633930000000 1.0
C      1  0.4548160000000  0.4659330000000  0.4385770000000 1.0
C      1  0.5588410000000  0.4530440000000  0.4918410000000 1.0
C      1  0.5050930000000  0.4817020000000  0.4286640000000 1.0
C      1  0.5285500000000  0.4368500000000  0.5271760000000 1.0
C      1  0.5746060000000  0.5171590000000  0.5279010000000 1.0
C      1  0.4893280000000  0.5596420000000  0.4601830000000 1.0
C      1  0.5487440000000  0.5174610000000  0.4462070000000 1.0
C      1  0.5605750000000  0.5401390000000  0.5280050000000 1.0
C      1  0.5414220000000  0.5502160000000  0.5505400000000 1.0
C      1  0.4335880000000  0.4751130000000  0.4766940000000 1.0
C      1  0.5027290000000  0.5158530000000  0.5750190000000 1.0
C      1  0.4381510000000  0.4695270000000  0.5019650000000 1.0
C      1  0.5221210000000  0.5277840000000  0.5211800000000 1.0
C      1  0.5174470000000  0.4699550000000  0.5619060000000 1.0
C      1  0.4422970000000  0.5313140000000  0.5421210000000 1.0
C      1  0.5276960000000  0.5318150000000  0.5691360000000 1.0
C      1  0.4392750000000  0.5494060000000  0.4922910000000 1.0
C      1  0.5283210000000  0.4768650000000  0.4462050000000 1.0
C      1  0.5129520000000  0.5765840000000  0.4981510000000 1.0
C      1  0.4655400000000  0.4843670000000  0.5637390000000 1.0
C      1  0.5179410000000  0.4625030000000  0.4709350000000 1.0
C      1  0.5350720000000  0.4407090000000  0.4816910000000 1.0
C      1  0.5390610000000  0.4844390000000  0.5483220000000 1.0
C      1  0.4676480000000  0.4538410000000  0.5276720000000 1.0
C      1  0.5612030000000  0.4716060000000  0.5378160000000 1.0
C      1  0.5546960000000  0.4886670000000  0.4488620000000 1.0
C      1  0.4672170000000  0.5460940000000  0.5335290000000 1.0
C      1  0.4657690000000  0.5162000000000  0.4345130000000 1.0
C      1  0.5207840000000  0.5712420000000  0.5220020000000 1.0
C      1  0.4315210000000  0.4963770000000  0.4887290000000 1.0
C      1  0.4688480000000  0.5502520000000  0.5022350000000 1.0
C      1  0.5313630000000  0.5614390000000  0.4842720000000 1.0
C      1  0.5427560000000  0.5359350000000  0.5016110000000 1.0
C      1  0.5306360000000  0.5392450000000  0.4381570000000 1.0
C      1  0.5189860000000  0.4889120000000  0.5004560000000 1.0
C      1  0.5811040000000  0.4894820000000  0.5260920000000 1.0
C      1  0.4319450000000  0.5366950000000  0.5161520000000 1.0
C      1  0.4644900000000  0.4522620000000  0.5699890000000 1.0
C      1  0.4902090000000  0.5000080000000  0.4993820000000 1.0
C      1  0.4912630000000  0.5068880000000  0.4222730000000 1.0
C      1  0.4850870000000  0.4617700000000  0.4365220000000 1.0
C      1  0.5679640000000  0.4772130000000  0.4753580000000 1.0
C      1  0.5037570000000  0.5290090000000  0.4360080000000 1.0
C      1  0.5277700000000  0.5115340000000  0.4662710000000 1.0
C      1  0.4420840000000  0.5396670000000  0.4646030000000 1.0
C      1  0.4781070000000  0.5026660000000  0.5262150000000 1.0
C      1  0.5196630000000  0.5586720000000  0.4578170000000 1.0
C      1  0.4829340000000  0.5261310000000  0.5425260000000 1.0
C      1  0.5531900000000  0.4509520000000  0.5210480000000 1.0
C      1  0.4602790000000  0.4811770000000  0.5335410000000 1.0
C      1  0.4931180000000  0.4161380000000  0.4918840000000 1.0
C      1  0.4569330000000  0.4487130000000  0.5024620000000 1.0
C      1  0.4667150000000  0.5423650000000  0.4497980000000 1.0
C      1  0.4873080000000  0.5692090000000  0.4867910000000 1.0
C      1  0.5193540000000  0.4237570000000  0.5008680000000 1.0
C      1  0.4520240000000  0.4408070000000  0.4515610000000 1.0
C      1  0.4813330000000  0.4395060000000  0.5507540000000 1.0
C      1  0.5179300000000  0.5514140000000  0.5362740000000 1.0
C      1  0.5240770000000  0.4992830000000  0.5277450000000 1.0
C      1  0.4748400000000  0.5274190000000  0.5691510000000 1.0
C      1  0.5000040000000  0.5189070000000  0.4644430000000 1.0
C      1  0.4964860000000  0.4879150000000  0.5699920000000 1.0
C      1  0.4917640000000  0.4516160000000  0.4625470000000 1.0
C      1  0.5776220000000  0.4900530000000  0.4975510000000 1.0
C      1  0.4717910000000  0.4347840000000  0.4792510000000 1.0
C      1  0.4466280000000  0.4959710000000  0.4437600000000 1.0
C      1  0.5115050000000  0.4441730000000  0.5489320000000 1.0
C      1  0.4310740000000  0.5120010000000  0.4626990000000 1.0
END
