TITL C-883727-9645-215 2.01277925194757 125000 -27280.9191251413 0 0 181 (C1) n - 1
REM
REM in /home/nfs/bkarasulu/CARBON/AIRSS/Generating-Clusters/ReaxFF-fromJPCA2015/Units_Real/with-SteepDescent/Only-C1/SD-CG/Try1-3A/FIRE-CG
REM
REM
REM
REM
REM
REM ./C.cell (11c1c37f851c82e70ff6c80c92926a4b)
REM
REM compiler GCC version 9.2.1 20190827 (Red Hat 9.2.1-1)
REM options -cpp -mtune=generic -march=x86-64 -g -O0 -fpre-include=/usr/include/finclude/math-vector-fortran.h
REM seed -1167519137 -554217919 93569281 -87525163 823678220 -169370699 -1120810364 -1180830210 -910975303 -131224560 1021601236 -1059106067 1359450836 -280756136 -1361076086 -1676943044 -527460099 190431265 -631944965 1250716453 -205977791 432873936 -1131787819 1324156856 484062598 -500356732 1225973020 1263328850 -492535221 -286904165 -2027201979 285771967 -1325219909
REM
CELL 1.54180   50.00000   50.00000   50.00000   90.00000   90.00000   90.00000
LATT -1
SFAC C  
C      1  0.6036680000000  0.5433140000000  0.4912910000000 1.0
C      1  0.4661610000000  0.4540110000000  0.5929470000000 1.0
C      1  0.4241750000000  0.4274630000000  0.4883240000000 1.0
C      1  0.4343420000000  0.5242200000000  0.5178560000000 1.0
C      1  0.5383950000000  0.5841260000000  0.4383270000000 1.0
C      1  0.5823380000000  0.5132160000000  0.4309270000000 1.0
C      1  0.5525720000000  0.4416970000000  0.5818970000000 1.0
C      1  0.5517930000000  0.4975480000000  0.5479390000000 1.0
C      1  0.4835810000000  0.5592200000000  0.4758270000000 1.0
C      1  0.4969500000000  0.5367220000000  0.4856670000000 1.0
C      1  0.5942850000000  0.4841770000000  0.5190180000000 1.0
C      1  0.4777130000000  0.4494230000000  0.4589160000000 1.0
C      1  0.5267330000000  0.4163300000000  0.4292990000000 1.0
C      1  0.5741210000000  0.5450220000000  0.4259100000000 1.0
C      1  0.5165510000000  0.5179820000000  0.5396920000000 1.0
C      1  0.5908880000000  0.5237190000000  0.5592230000000 1.0
C      1  0.5035480000000  0.5084810000000  0.5640270000000 1.0
C      1  0.5859430000000  0.5482610000000  0.5129140000000 1.0
C      1  0.4696010000000  0.5125410000000  0.5578760000000 1.0
C      1  0.4366910000000  0.4718150000000  0.4969310000000 1.0
C      1  0.4483240000000  0.5297650000000  0.4179860000000 1.0
C      1  0.4455710000000  0.6091520000000  0.4947970000000 1.0
C      1  0.4682990000000  0.5025550000000  0.4904450000000 1.0
C      1  0.4932520000000  0.4604800000000  0.5016590000000 1.0
C      1  0.5169150000000  0.4263530000000  0.4800040000000 1.0
C      1  0.4747160000000  0.5657160000000  0.5867190000000 1.0
C      1  0.5251890000000  0.4418500000000  0.5321490000000 1.0
C      1  0.4081770000000  0.4795260000000  0.5409910000000 1.0
C      1  0.5705140000000  0.4546220000000  0.5036880000000 1.0
C      1  0.5053070000000  0.4379100000000  0.5929870000000 1.0
C      1  0.3958900000000  0.4641630000000  0.5187270000000 1.0
C      1  0.5200510000000  0.5654210000000  0.4541130000000 1.0
C      1  0.3915570000000  0.4811890000000  0.4957550000000 1.0
C      1  0.4406060000000  0.3992340000000  0.4910800000000 1.0
C      1  0.4239270000000  0.5812750000000  0.4620780000000 1.0
C      1  0.4255390000000  0.5612600000000  0.4407330000000 1.0
C      1  0.6091900000000  0.4697230000000  0.4985700000000 1.0
C      1  0.4647150000000  0.5075000000000  0.4010890000000 1.0
C      1  0.5454560000000  0.4599060000000  0.4881660000000 1.0
C      1  0.4536370000000  0.3941820000000  0.4676130000000 1.0
C      1  0.5470870000000  0.4236450000000  0.4488000000000 1.0
C      1  0.5513310000000  0.5012070000000  0.4690720000000 1.0
C      1  0.5032470000000  0.5048520000000  0.5189040000000 1.0
C      1  0.5822590000000  0.4475040000000  0.5515210000000 1.0
C      1  0.4135450000000  0.4931870000000  0.4286870000000 1.0
C      1  0.4989870000000  0.5510730000000  0.5963950000000 1.0
C      1  0.5612880000000  0.4003050000000  0.5208580000000 1.0
C      1  0.5103490000000  0.5943770000000  0.4679540000000 1.0
C      1  0.6104610000000  0.4412460000000  0.5065620000000 1.0
C      1  0.4124170000000  0.4700050000000  0.4752000000000 1.0
C      1  0.5876790000000  0.5758040000000  0.5192250000000 1.0
C      1  0.4845690000000  0.4851510000000  0.4342480000000 1.0
C      1  0.4673510000000  0.3984740000000  0.5420200000000 1.0
C      1  0.5575830000000  0.4537970000000  0.5316000000000 1.0
C      1  0.4086980000000  0.5369720000000  0.4460800000000 1.0
C      1  0.6024760000000  0.5530000000000  0.4652860000000 1.0
C      1  0.6042140000000  0.4475060000000  0.5336040000000 1.0
C      1  0.4869690000000  0.3926350000000  0.5051410000000 1.0
C      1  0.4707030000000  0.5793050000000  0.4211180000000 1.0
C      1  0.4645490000000  0.4787160000000  0.4534030000000 1.0
C      1  0.4306030000000  0.5427000000000  0.4963570000000 1.0
C      1  0.4440970000000  0.6027030000000  0.4655630000000 1.0
C      1  0.5713050000000  0.5445350000000  0.5641070000000 1.0
C      1  0.4569540000000  0.6042710000000  0.5215390000000 1.0
C      1  0.4756290000000  0.5486960000000  0.4507080000000 1.0
C      1  0.5445080000000  0.5239990000000  0.5376400000000 1.0
C      1  0.5531540000000  0.4761840000000  0.4064460000000 1.0
C      1  0.4438510000000  0.5678760000000  0.5022650000000 1.0
C      1  0.4733030000000  0.5870220000000  0.5660300000000 1.0
C      1  0.5385420000000  0.5241530000000  0.4221140000000 1.0
C      1  0.4838210000000  0.5981210000000  0.5097920000000 1.0
C      1  0.5438240000000  0.4890190000000  0.4941890000000 1.0
C      1  0.4994850000000  0.5494460000000  0.4333510000000 1.0
C      1  0.4547530000000  0.5357240000000  0.5400960000000 1.0
C      1  0.3987480000000  0.5182740000000  0.4679460000000 1.0
C      1  0.4572630000000  0.5048950000000  0.4638870000000 1.0
C      1  0.4906620000000  0.4836770000000  0.4843520000000 1.0
C      1  0.5215730000000  0.4469820000000  0.5013690000000 1.0
C      1  0.4934280000000  0.5069110000000  0.3983150000000 1.0
C      1  0.5087710000000  0.4979440000000  0.4431210000000 1.0
C      1  0.5852290000000  0.4311240000000  0.4943910000000 1.0
C      1  0.5931850000000  0.5037000000000  0.5387530000000 1.0
C      1  0.5262260000000  0.5488270000000  0.5856350000000 1.0
C      1  0.5068150000000  0.4485970000000  0.4571080000000 1.0
C      1  0.4887630000000  0.4767770000000  0.5286120000000 1.0
C      1  0.5482520000000  0.5493800000000  0.4131810000000 1.0
C      1  0.4066360000000  0.4363710000000  0.5148130000000 1.0
C      1  0.4600640000000  0.4153720000000  0.5639000000000 1.0
C      1  0.5039450000000  0.5044200000000  0.6151010000000 1.0
C      1  0.4347890000000  0.4468630000000  0.4376430000000 1.0
C      1  0.4653820000000  0.6001860000000  0.4432240000000 1.0
C      1  0.5694790000000  0.4900130000000  0.4121150000000 1.0
C      1  0.5172680000000  0.4137770000000  0.5421800000000 1.0
C      1  0.5730610000000  0.4580140000000  0.5776370000000 1.0
C      1  0.4287800000000  0.5456260000000  0.5731350000000 1.0
C      1  0.4510810000000  0.5868020000000  0.5469870000000 1.0
C      1  0.4768810000000  0.5434690000000  0.5259590000000 1.0
C      1  0.4847460000000  0.5246160000000  0.5071990000000 1.0
C      1  0.5000050000000  0.5817530000000  0.5556780000000 1.0
C      1  0.4459390000000  0.4451110000000  0.4992160000000 1.0
C      1  0.5499530000000  0.5617350000000  0.5686190000000 1.0
C      1  0.5805810000000  0.5626430000000  0.4480370000000 1.0
C      1  0.5326810000000  0.5437990000000  0.4697420000000 1.0
C      1  0.4994760000000  0.5590970000000  0.5351130000000 1.0
C      1  0.5617740000000  0.5841900000000  0.4561170000000 1.0
C      1  0.5588940000000  0.5368890000000  0.5154860000000 1.0
C      1  0.4918180000000  0.4154710000000  0.4884570000000 1.0
C      1  0.4852740000000  0.6013880000000  0.4597330000000 1.0
C      1  0.4054990000000  0.5213060000000  0.5215470000000 1.0
C      1  0.5146480000000  0.4989100000000  0.4925390000000 1.0
C      1  0.4520400000000  0.5474660000000  0.5901220000000 1.0
C      1  0.4707180000000  0.5761520000000  0.4949600000000 1.0
C      1  0.6098230000000  0.5260230000000  0.4698410000000 1.0
C      1  0.5339910000000  0.4033780000000  0.5640610000000 1.0
C      1  0.4308100000000  0.4546660000000  0.5713310000000 1.0
C      1  0.4954630000000  0.3958760000000  0.5334130000000 1.0
C      1  0.6007810000000  0.4775860000000  0.4683730000000 1.0
C      1  0.4844540000000  0.3878570000000  0.4431380000000 1.0
C      1  0.4580470000000  0.5271290000000  0.4466600000000 1.0
C      1  0.4319010000000  0.4715290000000  0.4207730000000 1.0
C      1  0.5556400000000  0.5948710000000  0.4829950000000 1.0
C      1  0.5214310000000  0.5969770000000  0.5425710000000 1.0
C      1  0.5647090000000  0.4894990000000  0.5776150000000 1.0
C      1  0.5513830000000  0.4825310000000  0.5271130000000 1.0
C      1  0.5471820000000  0.5855200000000  0.5498060000000 1.0
C      1  0.4986410000000  0.5705450000000  0.4128280000000 1.0
C      1  0.5119000000000  0.4356300000000  0.4138740000000 1.0
C      1  0.5313220000000  0.4245890000000  0.5859510000000 1.0
C      1  0.5075320000000  0.4784590000000  0.5688570000000 1.0
C      1  0.4799470000000  0.4666150000000  0.4060480000000 1.0
C      1  0.5232360000000  0.4673020000000  0.4427070000000 1.0
C      1  0.4357360000000  0.4723070000000  0.5484830000000 1.0
C      1  0.4434010000000  0.4710370000000  0.5930490000000 1.0
C      1  0.5209620000000  0.5562260000000  0.5169280000000 1.0
C      1  0.5256510000000  0.4865050000000  0.6121510000000 1.0
C      1  0.5775890000000  0.4676360000000  0.4575890000000 1.0
C      1  0.5062360000000  0.4613250000000  0.5458940000000 1.0
C      1  0.5404030000000  0.5526370000000  0.4979120000000 1.0
C      1  0.4203250000000  0.5165060000000  0.5717080000000 1.0
C      1  0.5239000000000  0.4634980000000  0.4089780000000 1.0
C      1  0.3942530000000  0.5103040000000  0.4964250000000 1.0
C      1  0.4625630000000  0.4324330000000  0.4343680000000 1.0
C      1  0.4189590000000  0.5683490000000  0.4878270000000 1.0
C      1  0.4835400000000  0.4383630000000  0.4141490000000 1.0
C      1  0.4747850000000  0.4386910000000  0.4898140000000 1.0
C      1  0.4327830000000  0.4254250000000  0.5622380000000 1.0
C      1  0.5099950000000  0.5199400000000  0.4209950000000 1.0
C      1  0.5146820000000  0.5199780000000  0.4704670000000 1.0
C      1  0.5029040000000  0.4801430000000  0.3959020000000 1.0
C      1  0.5093500000000  0.4672220000000  0.5955590000000 1.0
C      1  0.5518590000000  0.4547200000000  0.4552480000000 1.0
C      1  0.5125420000000  0.6033340000000  0.5149170000000 1.0
C      1  0.4187160000000  0.5216770000000  0.4242160000000 1.0
C      1  0.4486240000000  0.5607370000000  0.4218980000000 1.0
C      1  0.5267470000000  0.5202470000000  0.5839610000000 1.0
C      1  0.5113200000000  0.3894470000000  0.4349680000000 1.0
C      1  0.5550010000000  0.5123000000000  0.4442560000000 1.0
C      1  0.4618810000000  0.5179430000000  0.5883770000000 1.0
C      1  0.5662930000000  0.4079680000000  0.4938190000000 1.0
C      1  0.5742890000000  0.5960060000000  0.5052600000000 1.0
C      1  0.4776400000000  0.4308510000000  0.5845010000000 1.0
C      1  0.5459070000000  0.5019540000000  0.5971270000000 1.0
C      1  0.4605590000000  0.4013570000000  0.4420890000000 1.0
C      1  0.5442060000000  0.4116190000000  0.4744470000000 1.0
C      1  0.4198720000000  0.4434450000000  0.4618520000000 1.0
C      1  0.4604650000000  0.4883740000000  0.5414260000000 1.0
C      1  0.5279360000000  0.6021660000000  0.4901610000000 1.0
C      1  0.5700430000000  0.5923350000000  0.5334740000000 1.0
C      1  0.4050700000000  0.5077670000000  0.5476480000000 1.0
C      1  0.5820150000000  0.5084040000000  0.5782750000000 1.0
C      1  0.4586920000000  0.3917110000000  0.5132150000000 1.0
C      1  0.4876130000000  0.5257520000000  0.6071540000000 1.0
C      1  0.4529690000000  0.4816550000000  0.4033580000000 1.0
C      1  0.4373830000000  0.5004480000000  0.5891410000000 1.0
C      1  0.4392540000000  0.5603830000000  0.5499580000000 1.0
C      1  0.4025110000000  0.4925880000000  0.4557740000000 1.0
C      1  0.4474750000000  0.4945900000000  0.5115950000000 1.0
C      1  0.5537120000000  0.3967070000000  0.5449830000000 1.0
C      1  0.5987920000000  0.5036210000000  0.4550520000000 1.0
C      1  0.5284390000000  0.5725770000000  0.4135040000000 1.0
C      1  0.4191630000000  0.4294050000000  0.5380020000000 1.0
END
