TITL C-884136-4169-43 4115793.99271536 125000 -23288.7845492739 0 0 158 (C1) n - 1
REM
REM in /home/nfs/bkarasulu/CARBON/AIRSS/Generating-Clusters/ReaxFF-fromJPCA2015/Units_Real/with-SteepDescent/Only-C1/SD-CG/Try1-3A/FIRE-CG
REM
REM
REM
REM
REM
REM ./C.cell (11c1c37f851c82e70ff6c80c92926a4b)
REM
REM compiler GCC version 9.2.1 20190827 (Red Hat 9.2.1-1)
REM options -cpp -mtune=generic -march=x86-64 -g -O0 -fpre-include=/usr/include/finclude/math-vector-fortran.h
REM seed -635231129 -1129807958 -1199964702 -1339815098 -876930016 754189924 -939962767 -1144150267 1761857142 401097668 1885680010 1559054075 1428391305 -723766414 165235688 1362161454 651678441 1664040288 -1688398261 -882636901 -1918752520 977946214 482409718 -942078763 -1523019411 761849507 491113185 -598916901 897135577 -1815111060 -1927658022 1544514546 -443770247
REM
CELL 1.54180   50.00000   50.00000   50.00000   90.00000   90.00000   90.00000
LATT -1
SFAC C  
C      1  0.5148650000000  0.5299250000000  0.4530180000000 1.0
C      1  0.4034310000000  0.5324910000000  0.5394180000000 1.0
C      1  0.5547120000000  0.5108790000000  0.4659650000000 1.0
C      1  0.4134850000000  0.4378340000000  0.5245300000000 1.0
C      1  0.4567900000000  0.5034370000000  0.4083970000000 1.0
C      1  0.4525790000000  0.4550780000000  0.5599610000000 1.0
C      1  0.4723570000000  0.5584440000000  0.4219610000000 1.0
C      1  0.5119110000000  0.5268370000000  0.5234070000000 1.0
C      1  0.4934770000000  0.4497400000000  0.5911670000000 1.0
C      1  0.5248550000000  0.4615320000000  0.4350780000000 1.0
C      1  0.5349010000000  0.4799760000000  0.4507360000000 1.0
C      1  0.4031640000000  0.4524800000000  0.4999160000000 1.0
C      1  0.4868530000000  0.4099700000000  0.5236030000000 1.0
C      1  0.4225220000000  0.5398990000000  0.4273950000000 1.0
C      1  0.5595550000000  0.5436500000000  0.4216620000000 1.0
C      1  0.4936760000000  0.5478230000000  0.5142480000000 1.0
C      1  0.5042750000000  0.4197460000000  0.3998700000000 1.0
C      1  0.5375500000000  0.5772240000000  0.5471590000000 1.0
C      1  0.4546500000000  0.4764500000000  0.4199550000000 1.0
C      1  0.5082470000000  0.5267100000000  0.5678900000000 1.0
C      1  0.5423560000000  0.4127770000000  0.4587820000000 1.0
C      1  0.5119260000000  0.5255960000000  0.5976040000000 1.0
C      1  0.4784300000000  0.5900290000000  0.4566080000000 1.0
C      1  0.6003420000000  0.5553540000000  0.4874380000000 1.0
C      1  0.4389960000000  0.4751330000000  0.5813400000000 1.0
C      1  0.5574560000000  0.4723530000000  0.4144980000000 1.0
C      1  0.5066000000000  0.4005030000000  0.5043480000000 1.0
C      1  0.4303780000000  0.5226100000000  0.4932840000000 1.0
C      1  0.5414470000000  0.5352170000000  0.4655070000000 1.0
C      1  0.5669870000000  0.5808480000000  0.4892960000000 1.0
C      1  0.4980960000000  0.5948880000000  0.5262120000000 1.0
C      1  0.5000980000000  0.5495400000000  0.4851960000000 1.0
C      1  0.5133150000000  0.4049830000000  0.4532180000000 1.0
C      1  0.5512530000000  0.4167670000000  0.4861770000000 1.0
C      1  0.5845840000000  0.4559720000000  0.5730430000000 1.0
C      1  0.4059140000000  0.4904920000000  0.4417420000000 1.0
C      1  0.5814990000000  0.4926150000000  0.5014510000000 1.0
C      1  0.5531940000000  0.5438630000000  0.5922550000000 1.0
C      1  0.4123090000000  0.4764530000000  0.5091550000000 1.0
C      1  0.4961500000000  0.4259030000000  0.5471660000000 1.0
C      1  0.4352310000000  0.5270370000000  0.5862110000000 1.0
C      1  0.5350340000000  0.4834930000000  0.5408840000000 1.0
C      1  0.5530780000000  0.4917010000000  0.5898330000000 1.0
C      1  0.4578960000000  0.4839270000000  0.5965460000000 1.0
C      1  0.5499430000000  0.5478690000000  0.5448100000000 1.0
C      1  0.4871970000000  0.4403190000000  0.4875110000000 1.0
C      1  0.4101360000000  0.4626380000000  0.4457990000000 1.0
C      1  0.4934770000000  0.5269720000000  0.3799550000000 1.0
C      1  0.4927420000000  0.5341890000000  0.4659380000000 1.0
C      1  0.5027210000000  0.4521790000000  0.4670110000000 1.0
C      1  0.4088210000000  0.5178280000000  0.4421790000000 1.0
C      1  0.5584170000000  0.4643030000000  0.5828610000000 1.0
C      1  0.4517300000000  0.5013320000000  0.5267290000000 1.0
C      1  0.5184000000000  0.4386360000000  0.5998440000000 1.0
C      1  0.5155960000000  0.4395960000000  0.4892010000000 1.0
C      1  0.4824750000000  0.4733420000000  0.4247380000000 1.0
C      1  0.5249360000000  0.4325920000000  0.5465200000000 1.0
C      1  0.5296490000000  0.5704630000000  0.5726370000000 1.0
C      1  0.5490460000000  0.5616060000000  0.4418160000000 1.0
C      1  0.4811300000000  0.5029870000000  0.3924510000000 1.0
C      1  0.4980810000000  0.4503840000000  0.4394290000000 1.0
C      1  0.4279040000000  0.5646660000000  0.5476930000000 1.0
C      1  0.5171750000000  0.4432980000000  0.3973190000000 1.0
C      1  0.5559840000000  0.4913790000000  0.5339190000000 1.0
C      1  0.4909410000000  0.4665780000000  0.5320870000000 1.0
C      1  0.5267890000000  0.5306630000000  0.5473440000000 1.0
C      1  0.5025430000000  0.4923090000000  0.4131770000000 1.0
C      1  0.5043180000000  0.4782440000000  0.6040910000000 1.0
C      1  0.4147910000000  0.5686740000000  0.4669050000000 1.0
C      1  0.4984220000000  0.3965080000000  0.4760340000000 1.0
C      1  0.4930920000000  0.4815360000000  0.5563560000000 1.0
C      1  0.6003920000000  0.5208440000000  0.4636990000000 1.0
C      1  0.4472470000000  0.5751570000000  0.4920410000000 1.0
C      1  0.5604760000000  0.4448360000000  0.5006300000000 1.0
C      1  0.5716620000000  0.5701490000000  0.4617380000000 1.0
C      1  0.5755710000000  0.5078200000000  0.5261070000000 1.0
C      1  0.4293370000000  0.5647010000000  0.4428080000000 1.0
C      1  0.4955560000000  0.4176610000000  0.4326840000000 1.0
C      1  0.4583770000000  0.4097760000000  0.5146270000000 1.0
C      1  0.5208190000000  0.5747110000000  0.4349230000000 1.0
C      1  0.4594840000000  0.5360860000000  0.6010440000000 1.0
C      1  0.4697890000000  0.4000710000000  0.4678710000000 1.0
C      1  0.4303620000000  0.5120930000000  0.4650660000000 1.0
C      1  0.5174840000000  0.4736920000000  0.5214320000000 1.0
C      1  0.4671310000000  0.4131260000000  0.4414920000000 1.0
C      1  0.4085000000000  0.4462330000000  0.4710000000000 1.0
C      1  0.5357800000000  0.4054970000000  0.5075990000000 1.0
C      1  0.5250330000000  0.5903810000000  0.4783820000000 1.0
C      1  0.4703140000000  0.5203830000000  0.4687490000000 1.0
C      1  0.5659200000000  0.5247000000000  0.4094410000000 1.0
C      1  0.4870290000000  0.4830610000000  0.4871110000000 1.0
C      1  0.5773440000000  0.4677170000000  0.4878910000000 1.0
C      1  0.5564410000000  0.4346080000000  0.4479910000000 1.0
C      1  0.5777350000000  0.5134520000000  0.4815980000000 1.0
C      1  0.4229720000000  0.5011520000000  0.5789130000000 1.0
C      1  0.5951110000000  0.5524110000000  0.4603720000000 1.0
C      1  0.4504000000000  0.5816450000000  0.5473890000000 1.0
C      1  0.5249460000000  0.5629820000000  0.4896910000000 1.0
C      1  0.4319400000000  0.4403320000000  0.5459010000000 1.0
C      1  0.4770910000000  0.5747550000000  0.5404820000000 1.0
C      1  0.4073380000000  0.5130660000000  0.5578030000000 1.0
C      1  0.5351040000000  0.4928670000000  0.4712430000000 1.0
C      1  0.4704320000000  0.4610660000000  0.4988900000000 1.0
C      1  0.5987920000000  0.4946370000000  0.4537670000000 1.0
C      1  0.5632850000000  0.5398220000000  0.5169450000000 1.0
C      1  0.5258900000000  0.4968100000000  0.6000210000000 1.0
C      1  0.4659350000000  0.5419130000000  0.5195440000000 1.0
C      1  0.4744480000000  0.5554660000000  0.5846760000000 1.0
C      1  0.4791540000000  0.4401980000000  0.5670090000000 1.0
C      1  0.5857820000000  0.4700130000000  0.4600290000000 1.0
C      1  0.5280740000000  0.4686710000000  0.4050020000000 1.0
C      1  0.4349860000000  0.4556820000000  0.4305150000000 1.0
C      1  0.5436280000000  0.5975560000000  0.4992590000000 1.0
C      1  0.5989270000000  0.4740120000000  0.5550090000000 1.0
C      1  0.4833800000000  0.5219920000000  0.6088380000000 1.0
C      1  0.4608440000000  0.5293660000000  0.5453210000000 1.0
C      1  0.4118370000000  0.5555680000000  0.5255610000000 1.0
C      1  0.5079070000000  0.5918100000000  0.4535350000000 1.0
C      1  0.4447220000000  0.4312010000000  0.4416830000000 1.0
C      1  0.4815080000000  0.5344220000000  0.5652060000000 1.0
C      1  0.4517950000000  0.5318260000000  0.4228560000000 1.0
C      1  0.4349760000000  0.4321980000000  0.4716940000000 1.0
C      1  0.5891340000000  0.4464910000000  0.5455000000000 1.0
C      1  0.5451050000000  0.5429750000000  0.4939120000000 1.0
C      1  0.4508350000000  0.4089850000000  0.4870260000000 1.0
C      1  0.4599610000000  0.5755070000000  0.4395890000000 1.0
C      1  0.5814630000000  0.5623870000000  0.5074400000000 1.0
C      1  0.5675380000000  0.5386820000000  0.5699230000000 1.0
C      1  0.5734380000000  0.5108710000000  0.5764650000000 1.0
C      1  0.5901980000000  0.5015320000000  0.5539780000000 1.0
C      1  0.5120210000000  0.5184210000000  0.4258420000000 1.0
C      1  0.5632720000000  0.4989100000000  0.4106930000000 1.0
C      1  0.5459500000000  0.4179200000000  0.5330250000000 1.0
C      1  0.4251950000000  0.5569590000000  0.4959610000000 1.0
C      1  0.4380510000000  0.5397290000000  0.5597480000000 1.0
C      1  0.4345790000000  0.4188860000000  0.5294460000000 1.0
C      1  0.5203960000000  0.4763550000000  0.5629270000000 1.0
C      1  0.5698630000000  0.4556260000000  0.4375640000000 1.0
C      1  0.5266670000000  0.5928280000000  0.5241020000000 1.0
C      1  0.5276910000000  0.5543210000000  0.5959840000000 1.0
C      1  0.4710290000000  0.4926580000000  0.4673750000000 1.0
C      1  0.5700320000000  0.4341000000000  0.5280230000000 1.0
C      1  0.4443470000000  0.4834900000000  0.4668180000000 1.0
C      1  0.5008830000000  0.5626870000000  0.4174480000000 1.0
C      1  0.4700610000000  0.5924140000000  0.4855090000000 1.0
C      1  0.5315260000000  0.4503040000000  0.5098750000000 1.0
C      1  0.4668810000000  0.4772080000000  0.5414460000000 1.0
C      1  0.5092510000000  0.5371230000000  0.4042020000000 1.0
C      1  0.4681590000000  0.5789730000000  0.5682350000000 1.0
C      1  0.5330760000000  0.4507390000000  0.5722920000000 1.0
C      1  0.4509010000000  0.5268850000000  0.4523760000000 1.0
C      1  0.4237760000000  0.5007700000000  0.5149370000000 1.0
C      1  0.4455930000000  0.4603220000000  0.4831710000000 1.0
C      1  0.5114920000000  0.4948490000000  0.4864920000000 1.0
C      1  0.4797650000000  0.4927470000000  0.6119870000000 1.0
C      1  0.4573290000000  0.5198660000000  0.5036890000000 1.0
C      1  0.5122400000000  0.5012470000000  0.5118120000000 1.0
C      1  0.4904330000000  0.5967690000000  0.5046250000000 1.0
END
