TITL C-884133-6611-113 0.666512182818813 125000 -5962.29830386045 0 0 42 (C1) n - 1
REM
REM in /home/nfs/bkarasulu/CARBON/AIRSS/Generating-Clusters/ReaxFF-fromJPCA2015/Units_Real/with-SteepDescent/Only-C1/SD-CG/Try1-3A/FIRE-CG
REM
REM
REM
REM
REM
REM ./C.cell (11c1c37f851c82e70ff6c80c92926a4b)
REM
REM compiler GCC version 9.2.1 20190827 (Red Hat 9.2.1-1)
REM options -cpp -mtune=generic -march=x86-64 -g -O0 -fpre-include=/usr/include/finclude/math-vector-fortran.h
REM seed -1880586676 1284776608 2022604212 996483007 552966566 -1023528482 981631067 1777785967 -1685875326 -650139994 1474813696 728635423 1675236188 -1811073549 1467830068 -182093324 1995340170 -1816961300 1019778007 1334888468 221967276 -124749095 -969126979 -430035509 -110809794 -876668772 1318980010 -1005052368 138349635 183735330 -1431202088 -1293506464 -203277371
REM
CELL 1.54180   50.00000   50.00000   50.00000   90.00000   90.00000   90.00000
LATT -1
SFAC C  
C      1  0.5211040000000  0.5526630000000  0.4866220000000 1.0
C      1  0.4614040000000  0.4980020000000  0.4778130000000 1.0
C      1  0.5417450000000  0.5523120000000  0.5045360000000 1.0
C      1  0.5325750000000  0.5699680000000  0.5400020000000 1.0
C      1  0.5048100000000  0.4597850000000  0.5132280000000 1.0
C      1  0.4981510000000  0.4857140000000  0.4399790000000 1.0
C      1  0.4801860000000  0.5498540000000  0.4559010000000 1.0
C      1  0.4369510000000  0.4774250000000  0.4786470000000 1.0
C      1  0.4615740000000  0.5558660000000  0.5206850000000 1.0
C      1  0.4725850000000  0.4983630000000  0.5043890000000 1.0
C      1  0.5349040000000  0.4474970000000  0.4450310000000 1.0
C      1  0.5315330000000  0.5457500000000  0.5332480000000 1.0
C      1  0.4787530000000  0.4513930000000  0.4740280000000 1.0
C      1  0.4826390000000  0.4852520000000  0.5526460000000 1.0
C      1  0.5543300000000  0.4747030000000  0.5044140000000 1.0
C      1  0.5625280000000  0.5296420000000  0.4976490000000 1.0
C      1  0.5544730000000  0.4556830000000  0.4811730000000 1.0
C      1  0.5608690000000  0.4606170000000  0.4523020000000 1.0
C      1  0.4703770000000  0.5224710000000  0.4560580000000 1.0
C      1  0.5203460000000  0.5171300000000  0.5438300000000 1.0
C      1  0.5039530000000  0.4447210000000  0.5788570000000 1.0
C      1  0.5521970000000  0.4858820000000  0.4364160000000 1.0
C      1  0.4898390000000  0.5119670000000  0.4426360000000 1.0
C      1  0.4927660000000  0.5125410000000  0.5559740000000 1.0
C      1  0.5297740000000  0.4421290000000  0.4738400000000 1.0
C      1  0.5307330000000  0.4963420000000  0.5314310000000 1.0
C      1  0.5030850000000  0.5524050000000  0.4720690000000 1.0
C      1  0.4512440000000  0.4540310000000  0.4898100000000 1.0
C      1  0.4852940000000  0.4668760000000  0.5748740000000 1.0
C      1  0.4490130000000  0.5771340000000  0.4881370000000 1.0
C      1  0.5037990000000  0.4458350000000  0.4886640000000 1.0
C      1  0.4793330000000  0.4752280000000  0.4590390000000 1.0
C      1  0.4785210000000  0.4749020000000  0.5236090000000 1.0
C      1  0.5256590000000  0.4729120000000  0.4320300000000 1.0
C      1  0.4580820000000  0.5723870000000  0.4624990000000 1.0
C      1  0.5302710000000  0.4698260000000  0.5223920000000 1.0
C      1  0.4744250000000  0.5342440000000  0.5529870000000 1.0
C      1  0.4473420000000  0.5737330000000  0.5130770000000 1.0
C      1  0.5589480000000  0.5019990000000  0.5008200000000 1.0
C      1  0.4597600000000  0.5529130000000  0.5447640000000 1.0
C      1  0.4802740000000  0.4383400000000  0.5753050000000 1.0
C      1  0.4538530000000  0.4535600000000  0.5185890000000 1.0
END
