TITL C-884141-4321-293 40.0589299564163 125000 -18846.9229686926 0 0 126 (C1) n - 1
REM
REM in /home/nfs/bkarasulu/CARBON/AIRSS/Generating-Clusters/ReaxFF-fromJPCA2015/Units_Real/with-SteepDescent/Only-C1/SD-CG/Try1-3A/FIRE-CG
REM
REM
REM
REM
REM
REM ./C.cell (11c1c37f851c82e70ff6c80c92926a4b)
REM
REM compiler GCC version 9.2.1 20190827 (Red Hat 9.2.1-1)
REM options -cpp -mtune=generic -march=x86-64 -g -O0 -fpre-include=/usr/include/finclude/math-vector-fortran.h
REM seed -1978019663 -1645327733 201450269 1826860991 206775219 -624125572 -647489648 2092535809 -1368454644 -1813286794 617019638 631720990 1709124159 1663160196 -9707565 1005970529 1297285477 -2096910119 -661080977 363314018 -342556923 1457239526 -1075852372 -605684524 -574473405 221203408 570278211 -1148013940 195144524 955050985 292010168 1629109951 546222208
REM
CELL 1.54180   50.00000   50.00000   50.00000   90.00000   90.00000   90.00000
LATT -1
SFAC C  
C      1  0.4542790000000  0.6027990000000  0.5120280000000 1.0
C      1  0.4299690000000  0.5320210000000  0.5519670000000 1.0
C      1  0.5457230000000  0.5042000000000  0.4605480000000 1.0
C      1  0.4786630000000  0.5250180000000  0.4939090000000 1.0
C      1  0.4488610000000  0.4693810000000  0.4921530000000 1.0
C      1  0.5186610000000  0.4537020000000  0.5807010000000 1.0
C      1  0.5230560000000  0.4648730000000  0.4942050000000 1.0
C      1  0.4312070000000  0.4491830000000  0.5308430000000 1.0
C      1  0.4468120000000  0.5541120000000  0.5454950000000 1.0
C      1  0.5468350000000  0.5273030000000  0.5760740000000 1.0
C      1  0.5414470000000  0.5229890000000  0.5112980000000 1.0
C      1  0.5242260000000  0.4981290000000  0.4018890000000 1.0
C      1  0.5405200000000  0.4413230000000  0.4885950000000 1.0
C      1  0.4502650000000  0.4969110000000  0.5001690000000 1.0
C      1  0.4067350000000  0.5372090000000  0.4619520000000 1.0
C      1  0.4802590000000  0.5873990000000  0.5124340000000 1.0
C      1  0.5721190000000  0.5118220000000  0.4510550000000 1.0
C      1  0.5498670000000  0.4818620000000  0.5273880000000 1.0
C      1  0.4183210000000  0.4674440000000  0.4520720000000 1.0
C      1  0.5384740000000  0.5059870000000  0.5344270000000 1.0
C      1  0.4829880000000  0.4458260000000  0.4170610000000 1.0
C      1  0.5576980000000  0.4641240000000  0.5492820000000 1.0
C      1  0.5785620000000  0.5682950000000  0.5333340000000 1.0
C      1  0.5697420000000  0.4737610000000  0.4276000000000 1.0
C      1  0.4541290000000  0.4224270000000  0.5631140000000 1.0
C      1  0.4554660000000  0.4352740000000  0.4465140000000 1.0
C      1  0.5814070000000  0.5273900000000  0.5146110000000 1.0
C      1  0.4063430000000  0.5363360000000  0.5040420000000 1.0
C      1  0.4962770000000  0.4145690000000  0.5241290000000 1.0
C      1  0.4889940000000  0.5725540000000  0.5358180000000 1.0
C      1  0.4696190000000  0.5659810000000  0.5569550000000 1.0
C      1  0.4954590000000  0.4825120000000  0.5467630000000 1.0
C      1  0.5517340000000  0.5055570000000  0.4896280000000 1.0
C      1  0.5976600000000  0.5204710000000  0.5381690000000 1.0
C      1  0.5097610000000  0.4943870000000  0.6041180000000 1.0
C      1  0.4821680000000  0.4400970000000  0.5280630000000 1.0
C      1  0.4220090000000  0.4655110000000  0.4811510000000 1.0
C      1  0.5759250000000  0.4848990000000  0.5598180000000 1.0
C      1  0.4475820000000  0.4851420000000  0.5636870000000 1.0
C      1  0.4405770000000  0.5168980000000  0.4323880000000 1.0
C      1  0.5162010000000  0.4134010000000  0.5469550000000 1.0
C      1  0.4526480000000  0.5203660000000  0.4823430000000 1.0
C      1  0.5525590000000  0.5519790000000  0.5619830000000 1.0
C      1  0.5112720000000  0.5439150000000  0.4391490000000 1.0
C      1  0.4771650000000  0.4865290000000  0.4223740000000 1.0
C      1  0.4493880000000  0.5324210000000  0.5296220000000 1.0
C      1  0.5791170000000  0.5408660000000  0.4532780000000 1.0
C      1  0.4601930000000  0.5584890000000  0.4385150000000 1.0
C      1  0.4103020000000  0.5203400000000  0.5279140000000 1.0
C      1  0.4598950000000  0.5787060000000  0.4552240000000 1.0
C      1  0.4274980000000  0.4752230000000  0.5439320000000 1.0
C      1  0.5947820000000  0.4904390000000  0.5380530000000 1.0
C      1  0.4983080000000  0.5441590000000  0.4861630000000 1.0
C      1  0.5415530000000  0.5730380000000  0.4619220000000 1.0
C      1  0.5947050000000  0.4827250000000  0.5103210000000 1.0
C      1  0.5846130000000  0.5077480000000  0.4945740000000 1.0
C      1  0.4777700000000  0.4398200000000  0.5623090000000 1.0
C      1  0.5003770000000  0.4625630000000  0.5275030000000 1.0
C      1  0.4997350000000  0.4780270000000  0.5060610000000 1.0
C      1  0.5664980000000  0.4405270000000  0.5034130000000 1.0
C      1  0.5017120000000  0.4376690000000  0.4365240000000 1.0
C      1  0.5627320000000  0.4356320000000  0.5318860000000 1.0
C      1  0.4319940000000  0.5952850000000  0.4939470000000 1.0
C      1  0.5509850000000  0.4887350000000  0.4103690000000 1.0
C      1  0.4944010000000  0.5300990000000  0.5760480000000 1.0
C      1  0.3898010000000  0.5254920000000  0.4826050000000 1.0
C      1  0.5702400000000  0.5103600000000  0.5737260000000 1.0
C      1  0.4898930000000  0.5864210000000  0.4622760000000 1.0
C      1  0.5576650000000  0.5749280000000  0.5166840000000 1.0
C      1  0.5815710000000  0.5577270000000  0.4772540000000 1.0
C      1  0.4784270000000  0.5512790000000  0.5799390000000 1.0
C      1  0.4345640000000  0.4149260000000  0.5532290000000 1.0
C      1  0.5138690000000  0.5736630000000  0.4523710000000 1.0
C      1  0.5948170000000  0.5364860000000  0.4917200000000 1.0
C      1  0.5693890000000  0.4502600000000  0.4465120000000 1.0
C      1  0.5375920000000  0.4717200000000  0.5679030000000 1.0
C      1  0.4129320000000  0.5176480000000  0.4406840000000 1.0
C      1  0.5880520000000  0.4636490000000  0.4646390000000 1.0
C      1  0.5058800000000  0.4308670000000  0.5687140000000 1.0
C      1  0.5384560000000  0.5659060000000  0.5400680000000 1.0
C      1  0.4034820000000  0.4809730000000  0.4979910000000 1.0
C      1  0.5880310000000  0.4876290000000  0.4463300000000 1.0
C      1  0.4241230000000  0.4207880000000  0.5272370000000 1.0
C      1  0.4605020000000  0.5375000000000  0.4211680000000 1.0
C      1  0.4602260000000  0.4629550000000  0.4148690000000 1.0
C      1  0.5445550000000  0.4405140000000  0.4593570000000 1.0
C      1  0.4791400000000  0.4228270000000  0.4527910000000 1.0
C      1  0.4676450000000  0.5253460000000  0.5849910000000 1.0
C      1  0.4894590000000  0.3976330000000  0.5021440000000 1.0
C      1  0.5473340000000  0.4793290000000  0.5000440000000 1.0
C      1  0.4780870000000  0.4927740000000  0.4511370000000 1.0
C      1  0.4110560000000  0.4914790000000  0.5249810000000 1.0
C      1  0.4024320000000  0.4916750000000  0.4505700000000 1.0
C      1  0.4888390000000  0.5054110000000  0.5129960000000 1.0
C      1  0.4974820000000  0.4721310000000  0.5921780000000 1.0
C      1  0.5383850000000  0.5404970000000  0.4251300000000 1.0
C      1  0.5217870000000  0.4947910000000  0.5564380000000 1.0
C      1  0.4601850000000  0.3979440000000  0.4944160000000 1.0
C      1  0.5582000000000  0.5726180000000  0.4861330000000 1.0
C      1  0.3905660000000  0.4964570000000  0.4771770000000 1.0
C      1  0.4379370000000  0.5727850000000  0.4748320000000 1.0
C      1  0.4938050000000  0.5779060000000  0.4889150000000 1.0
C      1  0.5193230000000  0.5411850000000  0.5057900000000 1.0
C      1  0.5903520000000  0.5275200000000  0.5643530000000 1.0
C      1  0.4548350000000  0.4454530000000  0.5097130000000 1.0
C      1  0.4895350000000  0.5318370000000  0.4195060000000 1.0
C      1  0.4459040000000  0.5120150000000  0.5711330000000 1.0
C      1  0.4386010000000  0.4536560000000  0.4347640000000 1.0
C      1  0.4545100000000  0.5077660000000  0.4560210000000 1.0
C      1  0.5558710000000  0.5552810000000  0.4422740000000 1.0
C      1  0.5827810000000  0.5539840000000  0.5580060000000 1.0
C      1  0.5123470000000  0.5295430000000  0.4665850000000 1.0
C      1  0.5407090000000  0.4231790000000  0.5388780000000 1.0
C      1  0.5129220000000  0.5563700000000  0.5299910000000 1.0
C      1  0.4418030000000  0.4183860000000  0.5036380000000 1.0
C      1  0.4281000000000  0.5450270000000  0.4820480000000 1.0
C      1  0.5041970000000  0.5013470000000  0.4623490000000 1.0
C      1  0.5873410000000  0.4596680000000  0.4941950000000 1.0
C      1  0.4620000000000  0.5060500000000  0.5254320000000 1.0
C      1  0.5254320000000  0.4847680000000  0.4523040000000 1.0
C      1  0.5231630000000  0.4554900000000  0.4466500000000 1.0
C      1  0.5190970000000  0.5159820000000  0.5812990000000 1.0
C      1  0.4763670000000  0.4724400000000  0.5677190000000 1.0
C      1  0.4806840000000  0.4017290000000  0.4743310000000 1.0
C      1  0.5447300000000  0.5179470000000  0.4076350000000 1.0
C      1  0.4961890000000  0.5057050000000  0.4094060000000 1.0
END
