TITL C-884132-5695-372 17.4405595700304 125000 -17359.1699951701 0 0 119 (C1) n - 1
REM
REM in /home/nfs/bkarasulu/CARBON/AIRSS/Generating-Clusters/ReaxFF-fromJPCA2015/Units_Real/with-SteepDescent/Only-C1/SD-CG/Try1-3A/FIRE-CG
REM
REM
REM
REM
REM
REM ./C.cell (11c1c37f851c82e70ff6c80c92926a4b)
REM
REM compiler GCC version 9.2.1 20190827 (Red Hat 9.2.1-1)
REM options -cpp -mtune=generic -march=x86-64 -g -O0 -fpre-include=/usr/include/finclude/math-vector-fortran.h
REM seed -305919696 601347273 -485418473 635972710 1374270829 -200834242 781330852 -1253176553 2100956212 -1654163735 2028999520 -302534953 370701938 1029022672 -991890122 1947101255 -406117333 -1525679429 -1174300232 -1861681185 1792782946 1104007359 -815124368 1893806395 -1502325412 301836540 480812807 -1881275816 -296388100 -950833036 -1145084645 -1242210824 913255698
REM
CELL 1.54180   50.00000   50.00000   50.00000   90.00000   90.00000   90.00000
LATT -1
SFAC C  
C      1  0.4370190000000  0.5251980000000  0.4474210000000 1.0
C      1  0.4904150000000  0.5717120000000  0.5613030000000 1.0
C      1  0.5252040000000  0.4763830000000  0.4940940000000 1.0
C      1  0.5363850000000  0.5155140000000  0.4915490000000 1.0
C      1  0.5409870000000  0.5318680000000  0.4442060000000 1.0
C      1  0.5423670000000  0.5078290000000  0.5853910000000 1.0
C      1  0.4420780000000  0.4664350000000  0.5242990000000 1.0
C      1  0.4061110000000  0.4715190000000  0.4832860000000 1.0
C      1  0.4833640000000  0.4935830000000  0.4675320000000 1.0
C      1  0.5295800000000  0.5118190000000  0.4640620000000 1.0
C      1  0.4746400000000  0.4709560000000  0.5283980000000 1.0
C      1  0.4489800000000  0.5833030000000  0.4971910000000 1.0
C      1  0.4920220000000  0.4936250000000  0.4200450000000 1.0
C      1  0.5133100000000  0.4561230000000  0.4147240000000 1.0
C      1  0.4765500000000  0.5243770000000  0.5248150000000 1.0
C      1  0.5220810000000  0.4661310000000  0.5216220000000 1.0
C      1  0.5766410000000  0.4707650000000  0.4960940000000 1.0
C      1  0.5071280000000  0.5751270000000  0.5343280000000 1.0
C      1  0.5441720000000  0.4106860000000  0.5306080000000 1.0
C      1  0.5800070000000  0.5261860000000  0.4696950000000 1.0
C      1  0.4320610000000  0.4708270000000  0.4417130000000 1.0
C      1  0.4203340000000  0.4454120000000  0.4787640000000 1.0
C      1  0.5065140000000  0.5937090000000  0.4957230000000 1.0
C      1  0.4587970000000  0.5774520000000  0.5219760000000 1.0
C      1  0.4312920000000  0.5078120000000  0.5464710000000 1.0
C      1  0.4810300000000  0.4840780000000  0.5525210000000 1.0
C      1  0.5169100000000  0.4109540000000  0.5234020000000 1.0
C      1  0.5212010000000  0.4807650000000  0.4532670000000 1.0
C      1  0.4431180000000  0.5242550000000  0.5013520000000 1.0
C      1  0.5173620000000  0.5473530000000  0.5293040000000 1.0
C      1  0.5704200000000  0.4374140000000  0.4633580000000 1.0
C      1  0.4633600000000  0.4385580000000  0.4448600000000 1.0
C      1  0.5644390000000  0.4918160000000  0.5741410000000 1.0
C      1  0.4802770000000  0.4850000000000  0.5070930000000 1.0
C      1  0.4711680000000  0.4213650000000  0.5144920000000 1.0
C      1  0.5509760000000  0.5610450000000  0.4586410000000 1.0
C      1  0.4647470000000  0.5030500000000  0.4250920000000 1.0
C      1  0.5686330000000  0.4235660000000  0.5157360000000 1.0
C      1  0.4633810000000  0.4840920000000  0.4848020000000 1.0
C      1  0.5477950000000  0.4189670000000  0.4542440000000 1.0
C      1  0.4218530000000  0.5619930000000  0.4600310000000 1.0
C      1  0.4852810000000  0.4263650000000  0.4891720000000 1.0
C      1  0.5698470000000  0.5187500000000  0.4980420000000 1.0
C      1  0.4661610000000  0.5174400000000  0.4509380000000 1.0
C      1  0.4392050000000  0.4486740000000  0.5455420000000 1.0
C      1  0.4823080000000  0.5460490000000  0.4606440000000 1.0
C      1  0.5777590000000  0.5548280000000  0.4722590000000 1.0
C      1  0.5616070000000  0.4621600000000  0.5452820000000 1.0
C      1  0.5378780000000  0.5621550000000  0.4852890000000 1.0
C      1  0.4444990000000  0.4262680000000  0.5243160000000 1.0
C      1  0.5420100000000  0.5354020000000  0.5465410000000 1.0
C      1  0.5163390000000  0.5414840000000  0.5894490000000 1.0
C      1  0.4919850000000  0.4267640000000  0.5370000000000 1.0
C      1  0.4292700000000  0.4413930000000  0.5055230000000 1.0
C      1  0.5188890000000  0.5335590000000  0.4234080000000 1.0
C      1  0.5462270000000  0.5079930000000  0.5371930000000 1.0
C      1  0.5115880000000  0.5871880000000  0.4654700000000 1.0
C      1  0.4357360000000  0.5755070000000  0.4793450000000 1.0
C      1  0.5193730000000  0.5423490000000  0.4976980000000 1.0
C      1  0.4899170000000  0.4681440000000  0.4068440000000 1.0
C      1  0.5676130000000  0.5127710000000  0.4468100000000 1.0
C      1  0.4406330000000  0.5004190000000  0.4843690000000 1.0
C      1  0.4689010000000  0.5586330000000  0.4336070000000 1.0
C      1  0.4355840000000  0.4445570000000  0.4530610000000 1.0
C      1  0.5057060000000  0.5704580000000  0.5859120000000 1.0
C      1  0.4926940000000  0.4710750000000  0.4538930000000 1.0
C      1  0.4500610000000  0.5541600000000  0.5392980000000 1.0
C      1  0.5743890000000  0.4521270000000  0.5197990000000 1.0
C      1  0.5011740000000  0.5035580000000  0.5487050000000 1.0
C      1  0.5271950000000  0.5921640000000  0.5153340000000 1.0
C      1  0.5369970000000  0.5903340000000  0.4531800000000 1.0
C      1  0.5697600000000  0.4245890000000  0.4879410000000 1.0
C      1  0.5346720000000  0.4541050000000  0.5762480000000 1.0
C      1  0.5086140000000  0.4575200000000  0.5621260000000 1.0
C      1  0.5237450000000  0.4335950000000  0.4593740000000 1.0
C      1  0.5243030000000  0.4908600000000  0.5368010000000 1.0
C      1  0.5771710000000  0.5434780000000  0.5171560000000 1.0
C      1  0.5685340000000  0.4916710000000  0.5437380000000 1.0
C      1  0.4906330000000  0.5446740000000  0.4864010000000 1.0
C      1  0.5148330000000  0.4981860000000  0.5904160000000 1.0
C      1  0.5294000000000  0.4085150000000  0.4729860000000 1.0
C      1  0.4222590000000  0.4842280000000  0.5312660000000 1.0
C      1  0.4618970000000  0.4802460000000  0.5742860000000 1.0
C      1  0.4700490000000  0.5347630000000  0.5017960000000 1.0
C      1  0.5015470000000  0.4950120000000  0.4915830000000 1.0
C      1  0.4720160000000  0.4517160000000  0.4190270000000 1.0
C      1  0.5051750000000  0.5601820000000  0.4518480000000 1.0
C      1  0.4977980000000  0.5288160000000  0.5385830000000 1.0
C      1  0.5510130000000  0.5821080000000  0.5015050000000 1.0
C      1  0.5100870000000  0.4683290000000  0.5866280000000 1.0
C      1  0.5104590000000  0.4122790000000  0.4942380000000 1.0
C      1  0.5599980000000  0.4642310000000  0.5734610000000 1.0
C      1  0.5712820000000  0.4669370000000  0.4651990000000 1.0
C      1  0.5644330000000  0.5436830000000  0.5416540000000 1.0
C      1  0.5765050000000  0.5659890000000  0.4992680000000 1.0
C      1  0.4958180000000  0.5204140000000  0.5893750000000 1.0
C      1  0.4969640000000  0.5543110000000  0.4242040000000 1.0
C      1  0.4351820000000  0.5309860000000  0.5294620000000 1.0
C      1  0.4962810000000  0.4534370000000  0.5243740000000 1.0
C      1  0.4489590000000  0.5063910000000  0.5702430000000 1.0
C      1  0.5344910000000  0.4812820000000  0.4252200000000 1.0
C      1  0.4674470000000  0.5521320000000  0.5620920000000 1.0
C      1  0.4038810000000  0.5171600000000  0.4906250000000 1.0
C      1  0.5781240000000  0.4935610000000  0.5114020000000 1.0
C      1  0.4063710000000  0.4910360000000  0.5056960000000 1.0
C      1  0.4861740000000  0.5848500000000  0.5150170000000 1.0
C      1  0.4212540000000  0.4882320000000  0.4643940000000 1.0
C      1  0.5300540000000  0.4598210000000  0.4715700000000 1.0
C      1  0.4160900000000  0.5331650000000  0.4680550000000 1.0
C      1  0.4691530000000  0.5265950000000  0.5766410000000 1.0
C      1  0.4536560000000  0.4755830000000  0.4228000000000 1.0
C      1  0.5188350000000  0.5055210000000  0.4166650000000 1.0
C      1  0.4407260000000  0.5526470000000  0.4375110000000 1.0
C      1  0.4596340000000  0.4520340000000  0.5670950000000 1.0
C      1  0.5205130000000  0.4368980000000  0.4322670000000 1.0
C      1  0.4864730000000  0.4414040000000  0.5652740000000 1.0
C      1  0.4826750000000  0.4453360000000  0.4649430000000 1.0
C      1  0.5421380000000  0.5355970000000  0.5758470000000 1.0
C      1  0.5613930000000  0.4845450000000  0.4441320000000 1.0
END
