TITL C-884127-5181-124 29.3137025959012 125000 -18887.9983385972 0 0 128 (C1) n - 1
REM
REM in /home/nfs/bkarasulu/CARBON/AIRSS/Generating-Clusters/ReaxFF-fromJPCA2015/Units_Real/with-SteepDescent/Only-C1/SD-CG/Try1-3A/FIRE-CG
REM
REM
REM
REM
REM
REM ./C.cell (11c1c37f851c82e70ff6c80c92926a4b)
REM
REM compiler GCC version 9.2.1 20190827 (Red Hat 9.2.1-1)
REM options -cpp -mtune=generic -march=x86-64 -g -O0 -fpre-include=/usr/include/finclude/math-vector-fortran.h
REM seed -1293248980 2098366682 -1494919171 1108100957 -794126549 1168677543 -700133156 -1182774096 322842817 801228553 -1377381358 -1434936087 -1271962832 -1743062071 -906000606 1135504755 -2124247527 -2021180449 1584474420 2104617620 9403961 -42260437 1509814014 1900831261 -1656885232 2110642318 466546164 1637566885 -1595797278 -376269579 2137429635 -515800709 736702958
REM
CELL 1.54180   50.00000   50.00000   50.00000   90.00000   90.00000   90.00000
LATT -1
SFAC C  
C      1  0.4877100000000  0.5099000000000  0.4467360000000 1.0
C      1  0.5559770000000  0.5462760000000  0.5323410000000 1.0
C      1  0.5440280000000  0.4844940000000  0.5357670000000 1.0
C      1  0.4296360000000  0.4288310000000  0.5149820000000 1.0
C      1  0.5410900000000  0.4590910000000  0.4279920000000 1.0
C      1  0.4983340000000  0.5299670000000  0.6099730000000 1.0
C      1  0.5817450000000  0.5331680000000  0.4883830000000 1.0
C      1  0.5302970000000  0.5561700000000  0.4848030000000 1.0
C      1  0.4032220000000  0.4633830000000  0.4822220000000 1.0
C      1  0.5792680000000  0.4649310000000  0.4772280000000 1.0
C      1  0.5477430000000  0.4393500000000  0.4476800000000 1.0
C      1  0.4024850000000  0.5275850000000  0.4900830000000 1.0
C      1  0.4356920000000  0.5074500000000  0.4068500000000 1.0
C      1  0.5588250000000  0.5266700000000  0.4472260000000 1.0
C      1  0.4597360000000  0.5468780000000  0.5772610000000 1.0
C      1  0.4730890000000  0.5712720000000  0.5691460000000 1.0
C      1  0.5014430000000  0.5881720000000  0.4614800000000 1.0
C      1  0.4176310000000  0.5448390000000  0.4729950000000 1.0
C      1  0.4605490000000  0.4507390000000  0.4718930000000 1.0
C      1  0.5760170000000  0.4796670000000  0.5785740000000 1.0
C      1  0.5450790000000  0.4017000000000  0.5129840000000 1.0
C      1  0.5375560000000  0.4520190000000  0.4950820000000 1.0
C      1  0.4444080000000  0.4296790000000  0.4383410000000 1.0
C      1  0.5540470000000  0.5679070000000  0.4520700000000 1.0
C      1  0.4732310000000  0.5891830000000  0.4782600000000 1.0
C      1  0.5020630000000  0.4837490000000  0.4188080000000 1.0
C      1  0.4925690000000  0.5821530000000  0.5307590000000 1.0
C      1  0.5910640000000  0.4911780000000  0.5532200000000 1.0
C      1  0.5643950000000  0.5278280000000  0.5112210000000 1.0
C      1  0.4422040000000  0.5304780000000  0.5608130000000 1.0
C      1  0.4411770000000  0.5177110000000  0.4980880000000 1.0
C      1  0.5225100000000  0.4680440000000  0.5819730000000 1.0
C      1  0.5891000000000  0.5045390000000  0.4837090000000 1.0
C      1  0.4723900000000  0.5103850000000  0.4699340000000 1.0
C      1  0.5172280000000  0.4122020000000  0.5122480000000 1.0
C      1  0.5602440000000  0.4127990000000  0.4908320000000 1.0
C      1  0.4656220000000  0.5830250000000  0.5431880000000 1.0
C      1  0.5411180000000  0.5152050000000  0.5863170000000 1.0
C      1  0.4835330000000  0.5512550000000  0.4607680000000 1.0
C      1  0.5508410000000  0.5472740000000  0.4294060000000 1.0
C      1  0.4490720000000  0.4730310000000  0.5198780000000 1.0
C      1  0.5187030000000  0.4705280000000  0.4904160000000 1.0
C      1  0.5670140000000  0.4998620000000  0.4403520000000 1.0
C      1  0.5717820000000  0.4457110000000  0.5402090000000 1.0
C      1  0.5741040000000  0.4742490000000  0.5285140000000 1.0
C      1  0.4588090000000  0.5299230000000  0.5160910000000 1.0
C      1  0.4815120000000  0.5334940000000  0.4829990000000 1.0
C      1  0.5032620000000  0.5769890000000  0.4358430000000 1.0
C      1  0.6107330000000  0.5068970000000  0.5513940000000 1.0
C      1  0.4288620000000  0.4940760000000  0.4466570000000 1.0
C      1  0.4655700000000  0.4433790000000  0.4206240000000 1.0
C      1  0.4217200000000  0.5179620000000  0.4301070000000 1.0
C      1  0.4508510000000  0.4777350000000  0.5735640000000 1.0
C      1  0.4977220000000  0.4701300000000  0.5082470000000 1.0
C      1  0.4288870000000  0.5465180000000  0.4314800000000 1.0
C      1  0.5171520000000  0.5091700000000  0.6039490000000 1.0
C      1  0.4488050000000  0.4424650000000  0.5349250000000 1.0
C      1  0.4622120000000  0.5717010000000  0.4584120000000 1.0
C      1  0.5023910000000  0.5354820000000  0.4454600000000 1.0
C      1  0.4704960000000  0.4712880000000  0.4165530000000 1.0
C      1  0.4768330000000  0.4883730000000  0.5805990000000 1.0
C      1  0.5596010000000  0.4432140000000  0.4762300000000 1.0
C      1  0.5744510000000  0.5566900000000  0.4702930000000 1.0
C      1  0.5037670000000  0.5536790000000  0.5241770000000 1.0
C      1  0.5826380000000  0.4878770000000  0.4604980000000 1.0
C      1  0.3967470000000  0.5027890000000  0.4781300000000 1.0
C      1  0.4939670000000  0.4367480000000  0.4252410000000 1.0
C      1  0.5414550000000  0.4061980000000  0.4729500000000 1.0
C      1  0.5850310000000  0.4802100000000  0.5008830000000 1.0
C      1  0.5339550000000  0.5883210000000  0.5286710000000 1.0
C      1  0.5242830000000  0.4687700000000  0.5507670000000 1.0
C      1  0.5471460000000  0.4879320000000  0.4229490000000 1.0
C      1  0.5284050000000  0.4386430000000  0.5186800000000 1.0
C      1  0.5022050000000  0.4844360000000  0.5947160000000 1.0
C      1  0.4804200000000  0.4354960000000  0.5632890000000 1.0
C      1  0.5025070000000  0.5786890000000  0.5717220000000 1.0
C      1  0.4122820000000  0.4442840000000  0.4989080000000 1.0
C      1  0.5069680000000  0.5593050000000  0.4133730000000 1.0
C      1  0.4463920000000  0.5718920000000  0.5242920000000 1.0
C      1  0.4598090000000  0.5804810000000  0.5013110000000 1.0
C      1  0.4469580000000  0.4975900000000  0.4761270000000 1.0
C      1  0.4422930000000  0.4158880000000  0.4923420000000 1.0
C      1  0.5124270000000  0.5941280000000  0.5474370000000 1.0
C      1  0.5400950000000  0.5381190000000  0.5652550000000 1.0
C      1  0.5003380000000  0.4644240000000  0.5349180000000 1.0
C      1  0.4372120000000  0.4317150000000  0.4664390000000 1.0
C      1  0.4451050000000  0.4838180000000  0.4210370000000 1.0
C      1  0.5136680000000  0.4581450000000  0.4181940000000 1.0
C      1  0.5485590000000  0.4254880000000  0.5369980000000 1.0
C      1  0.5040410000000  0.4858580000000  0.4474600000000 1.0
C      1  0.5310420000000  0.5606280000000  0.5145560000000 1.0
C      1  0.4377130000000  0.5426750000000  0.5339940000000 1.0
C      1  0.5625990000000  0.5945660000000  0.5349920000000 1.0
C      1  0.5248370000000  0.5604690000000  0.5774550000000 1.0
C      1  0.5291700000000  0.5795510000000  0.4678850000000 1.0
C      1  0.4821830000000  0.4981190000000  0.5536060000000 1.0
C      1  0.5492380000000  0.4879180000000  0.5856480000000 1.0
C      1  0.4546780000000  0.4503260000000  0.5640590000000 1.0
C      1  0.5299490000000  0.5352540000000  0.4639160000000 1.0
C      1  0.5296030000000  0.4233420000000  0.5616920000000 1.0
C      1  0.4299670000000  0.4937170000000  0.5321330000000 1.0
C      1  0.4797150000000  0.4848160000000  0.5267160000000 1.0
C      1  0.4515170000000  0.4711320000000  0.4904700000000 1.0
C      1  0.4714210000000  0.4114930000000  0.4928900000000 1.0
C      1  0.4843740000000  0.5380050000000  0.5104930000000 1.0
C      1  0.5290050000000  0.5069020000000  0.5272850000000 1.0
C      1  0.5434880000000  0.5080420000000  0.5016790000000 1.0
C      1  0.4880980000000  0.4089790000000  0.5169170000000 1.0
C      1  0.5288550000000  0.4169410000000  0.4503010000000 1.0
C      1  0.4198220000000  0.5181930000000  0.5179020000000 1.0
C      1  0.5090900000000  0.4377090000000  0.5743570000000 1.0
C      1  0.5224540000000  0.4906570000000  0.4708400000000 1.0
C      1  0.5263560000000  0.5055710000000  0.4131450000000 1.0
C      1  0.5763930000000  0.5678270000000  0.5369660000000 1.0
C      1  0.4376220000000  0.5007340000000  0.5588970000000 1.0
C      1  0.4958030000000  0.5200200000000  0.5607950000000 1.0
C      1  0.4323740000000  0.5611050000000  0.4565600000000 1.0
C      1  0.5288160000000  0.5345130000000  0.4137670000000 1.0
C      1  0.4824620000000  0.4303070000000  0.4729860000000 1.0
C      1  0.4842190000000  0.5313600000000  0.5866850000000 1.0
C      1  0.4740450000000  0.4239070000000  0.5378870000000 1.0
C      1  0.4521910000000  0.5286370000000  0.3917400000000 1.0
C      1  0.5256200000000  0.5165240000000  0.4814190000000 1.0
C      1  0.5173290000000  0.5298760000000  0.5440190000000 1.0
C      1  0.4462450000000  0.5531140000000  0.4072400000000 1.0
C      1  0.5754550000000  0.4547970000000  0.5655570000000 1.0
C      1  0.4993430000000  0.4230350000000  0.4502940000000 1.0
C      1  0.4027910000000  0.4823060000000  0.4610630000000 1.0
END
