TITL C-884128-4793-339 9.67362247967499 125000 -16696.6771862716 0 0 115 (C1) n - 1
REM
REM in /home/nfs/bkarasulu/CARBON/AIRSS/Generating-Clusters/ReaxFF-fromJPCA2015/Units_Real/with-SteepDescent/Only-C1/SD-CG/Try1-3A/FIRE-CG
REM
REM
REM
REM
REM
REM ./C.cell (11c1c37f851c82e70ff6c80c92926a4b)
REM
REM compiler GCC version 9.2.1 20190827 (Red Hat 9.2.1-1)
REM options -cpp -mtune=generic -march=x86-64 -g -O0 -fpre-include=/usr/include/finclude/math-vector-fortran.h
REM seed 913107303 -343371295 -1839722968 331028682 2052320831 1751543575 1419198098 -1955541577 1857583767 502537061 -2006244832 -1695433839 -1020241599 -1380062832 448752171 1799455780 1823541219 -1523685700 1143184003 1184034793 710047920 -603484655 -840536176 -1474411213 -383747142 -1980492539 -313491731 1329558765 531375152 -529994685 1603679403 -134868311 -616855672
REM
CELL 1.54180   50.00000   50.00000   50.00000   90.00000   90.00000   90.00000
LATT -1
SFAC C  
C      1  0.5848610000000  0.4765670000000  0.5260570000000 1.0
C      1  0.4547840000000  0.5581600000000  0.5588500000000 1.0
C      1  0.4188500000000  0.4980320000000  0.4482590000000 1.0
C      1  0.4028880000000  0.5086650000000  0.4937420000000 1.0
C      1  0.4712250000000  0.4624270000000  0.5033190000000 1.0
C      1  0.5828450000000  0.5549090000000  0.5281890000000 1.0
C      1  0.4828450000000  0.5391990000000  0.4780190000000 1.0
C      1  0.4859440000000  0.4301170000000  0.4369930000000 1.0
C      1  0.5148100000000  0.5172080000000  0.5088080000000 1.0
C      1  0.5452990000000  0.5496220000000  0.4760860000000 1.0
C      1  0.4687130000000  0.5514240000000  0.4540470000000 1.0
C      1  0.5914890000000  0.5261070000000  0.5206920000000 1.0
C      1  0.5203450000000  0.4472210000000  0.5480290000000 1.0
C      1  0.4576260000000  0.4533030000000  0.5290170000000 1.0
C      1  0.4905550000000  0.4760250000000  0.5717090000000 1.0
C      1  0.5867100000000  0.5264330000000  0.4926370000000 1.0
C      1  0.5851250000000  0.4757530000000  0.4978300000000 1.0
C      1  0.4631230000000  0.5092470000000  0.5110600000000 1.0
C      1  0.4414290000000  0.5553310000000  0.4479520000000 1.0
C      1  0.4294180000000  0.4820840000000  0.5422510000000 1.0
C      1  0.5258050000000  0.4829880000000  0.5285010000000 1.0
C      1  0.5014610000000  0.4110500000000  0.5151700000000 1.0
C      1  0.4079800000000  0.5180620000000  0.4665770000000 1.0
C      1  0.5485310000000  0.4570870000000  0.4547110000000 1.0
C      1  0.4564190000000  0.4582250000000  0.4249380000000 1.0
C      1  0.5344140000000  0.5799570000000  0.5083080000000 1.0
C      1  0.5181220000000  0.5800360000000  0.4840460000000 1.0
C      1  0.4132130000000  0.5301840000000  0.5119550000000 1.0
C      1  0.4601650000000  0.5372030000000  0.4990520000000 1.0
C      1  0.5461230000000  0.5549630000000  0.5504270000000 1.0
C      1  0.5316370000000  0.4169850000000  0.4883230000000 1.0
C      1  0.5243730000000  0.5142270000000  0.4144820000000 1.0
C      1  0.4833840000000  0.4489240000000  0.4160390000000 1.0
C      1  0.4962350000000  0.4954330000000  0.4524510000000 1.0
C      1  0.4801150000000  0.4511960000000  0.4785940000000 1.0
C      1  0.5276540000000  0.4873220000000  0.4070420000000 1.0
C      1  0.4218770000000  0.5443260000000  0.4670370000000 1.0
C      1  0.4833400000000  0.5076530000000  0.5355110000000 1.0
C      1  0.5034070000000  0.5418520000000  0.4995560000000 1.0
C      1  0.5221970000000  0.4458820000000  0.4502810000000 1.0
C      1  0.5301670000000  0.5222980000000  0.5881820000000 1.0
C      1  0.5048900000000  0.5700580000000  0.5783390000000 1.0
C      1  0.5674720000000  0.5529940000000  0.4569870000000 1.0
C      1  0.4756390000000  0.4113270000000  0.5031400000000 1.0
C      1  0.5372170000000  0.4217970000000  0.5099280000000 1.0
C      1  0.5166170000000  0.4205160000000  0.4635050000000 1.0
C      1  0.4518920000000  0.5077200000000  0.5764810000000 1.0
C      1  0.5163190000000  0.5807120000000  0.5311950000000 1.0
C      1  0.5343190000000  0.5223690000000  0.4735880000000 1.0
C      1  0.5801310000000  0.5002230000000  0.4797520000000 1.0
C      1  0.4863720000000  0.4796660000000  0.5426900000000 1.0
C      1  0.4567140000000  0.5755560000000  0.5340420000000 1.0
C      1  0.5319830000000  0.4931310000000  0.5911860000000 1.0
C      1  0.4359110000000  0.4382710000000  0.5159870000000 1.0
C      1  0.4864960000000  0.4248600000000  0.4652560000000 1.0
C      1  0.4920730000000  0.4145630000000  0.5394630000000 1.0
C      1  0.4352300000000  0.4496900000000  0.4452530000000 1.0
C      1  0.5564940000000  0.4871980000000  0.4172100000000 1.0
C      1  0.5843980000000  0.5028630000000  0.5369750000000 1.0
C      1  0.5126190000000  0.5724050000000  0.4540690000000 1.0
C      1  0.4993840000000  0.4299390000000  0.5615990000000 1.0
C      1  0.4124940000000  0.4687160000000  0.4446470000000 1.0
C      1  0.5545930000000  0.5592850000000  0.5204920000000 1.0
C      1  0.5728870000000  0.5498520000000  0.4852570000000 1.0
C      1  0.4896240000000  0.5874750000000  0.4426610000000 1.0
C      1  0.5578420000000  0.5058770000000  0.5524860000000 1.0
C      1  0.5436940000000  0.4723130000000  0.4810950000000 1.0
C      1  0.4692970000000  0.4957320000000  0.4637320000000 1.0
C      1  0.4786310000000  0.4988130000000  0.5863990000000 1.0
C      1  0.4052500000000  0.4872280000000  0.5282490000000 1.0
C      1  0.4851430000000  0.5293760000000  0.5531710000000 1.0
C      1  0.4698910000000  0.4884170000000  0.4920260000000 1.0
C      1  0.5497160000000  0.4828660000000  0.5710310000000 1.0
C      1  0.5141010000000  0.5453910000000  0.4421900000000 1.0
C      1  0.4038070000000  0.4792750000000  0.5016180000000 1.0
C      1  0.4236400000000  0.5224990000000  0.5389210000000 1.0
C      1  0.5665450000000  0.4566470000000  0.4908270000000 1.0
C      1  0.5022660000000  0.4650700000000  0.4648690000000 1.0
C      1  0.5500450000000  0.5009260000000  0.4792130000000 1.0
C      1  0.4986180000000  0.5588130000000  0.5210430000000 1.0
C      1  0.4437460000000  0.5035300000000  0.5302040000000 1.0
C      1  0.5723960000000  0.5102600000000  0.4286450000000 1.0
C      1  0.4355020000000  0.4417900000000  0.4742320000000 1.0
C      1  0.4711040000000  0.5551070000000  0.5194510000000 1.0
C      1  0.5262510000000  0.5753710000000  0.5591060000000 1.0
C      1  0.5726280000000  0.4501330000000  0.5373910000000 1.0
C      1  0.5107940000000  0.4945220000000  0.4913840000000 1.0
C      1  0.4819860000000  0.5513800000000  0.5703520000000 1.0
C      1  0.4556870000000  0.4561360000000  0.5591100000000 1.0
C      1  0.4881740000000  0.4945970000000  0.4214370000000 1.0
C      1  0.4949070000000  0.5925970000000  0.4976640000000 1.0
C      1  0.5461840000000  0.4367130000000  0.5465020000000 1.0
C      1  0.5620260000000  0.4359070000000  0.5093740000000 1.0
C      1  0.4481610000000  0.5014260000000  0.4452620000000 1.0
C      1  0.5361810000000  0.5042470000000  0.5264340000000 1.0
C      1  0.4612840000000  0.5785640000000  0.4465290000000 1.0
C      1  0.4733720000000  0.5951610000000  0.5182590000000 1.0
C      1  0.4796780000000  0.4484320000000  0.5733530000000 1.0
C      1  0.5469720000000  0.5311110000000  0.5658020000000 1.0
C      1  0.5353270000000  0.5388530000000  0.4224950000000 1.0
C      1  0.5161470000000  0.4663380000000  0.4909120000000 1.0
C      1  0.5065080000000  0.4627520000000  0.5262650000000 1.0
C      1  0.5054540000000  0.5075550000000  0.5952270000000 1.0
C      1  0.5083330000000  0.5224850000000  0.4615670000000 1.0
C      1  0.5660040000000  0.4713240000000  0.4387130000000 1.0
C      1  0.4414070000000  0.5321110000000  0.5614330000000 1.0
C      1  0.4500370000000  0.4222360000000  0.4957350000000 1.0
C      1  0.4208910000000  0.4536580000000  0.4952160000000 1.0
C      1  0.5636750000000  0.5376460000000  0.4329420000000 1.0
C      1  0.5013500000000  0.4726220000000  0.4089710000000 1.0
C      1  0.4421910000000  0.4809880000000  0.5691640000000 1.0
C      1  0.5819110000000  0.4925660000000  0.4492220000000 1.0
C      1  0.4305940000000  0.5448260000000  0.4945050000000 1.0
C      1  0.5577030000000  0.4558890000000  0.5632370000000 1.0
C      1  0.4596770000000  0.4870500000000  0.4226060000000 1.0
END
