TITL C-883738-3659-235 10.9385039806752 125000 -13009.5377491971 0 0 88 (C1) n - 1
REM
REM in /home/nfs/bkarasulu/CARBON/AIRSS/Generating-Clusters/ReaxFF-fromJPCA2015/Units_Real/with-SteepDescent/Only-C1/SD-CG/Try1-3A/FIRE-CG
REM
REM
REM
REM
REM
REM ./C.cell (11c1c37f851c82e70ff6c80c92926a4b)
REM
REM compiler GCC version 9.2.1 20190827 (Red Hat 9.2.1-1)
REM options -cpp -mtune=generic -march=x86-64 -g -O0 -fpre-include=/usr/include/finclude/math-vector-fortran.h
REM seed -1590857723 -1269372879 -1111862071 -1955594235 65031755 -1544074271 -193630312 -1602782607 -900412861 1959818448 -549759516 -769393649 1814690093 -500293356 1159784117 -685441700 1506642953 -977485533 1670667595 1113258113 -720966869 -402673110 518673354 908079532 -366380773 465546038 -2141577855 2085186679 -1518404485 429446822 1002004491 -261410121 1154386973
REM
CELL 1.54180   50.00000   50.00000   50.00000   90.00000   90.00000   90.00000
LATT -1
SFAC C  
C      1  0.4915060000000  0.5155080000000  0.5197260000000 1.0
C      1  0.5140820000000  0.4823080000000  0.4290240000000 1.0
C      1  0.4667060000000  0.5675060000000  0.4531190000000 1.0
C      1  0.5461720000000  0.4506650000000  0.5407930000000 1.0
C      1  0.5248170000000  0.4630620000000  0.4871100000000 1.0
C      1  0.4752770000000  0.4722490000000  0.4806750000000 1.0
C      1  0.5108460000000  0.5143140000000  0.4733360000000 1.0
C      1  0.4916550000000  0.4877640000000  0.5226630000000 1.0
C      1  0.5055110000000  0.4283780000000  0.5230330000000 1.0
C      1  0.5146190000000  0.4758120000000  0.5334240000000 1.0
C      1  0.4819570000000  0.5550310000000  0.4726350000000 1.0
C      1  0.5587000000000  0.5516380000000  0.5361190000000 1.0
C      1  0.4982850000000  0.4352420000000  0.5502110000000 1.0
C      1  0.4515930000000  0.4369090000000  0.4607750000000 1.0
C      1  0.4421110000000  0.5090220000000  0.4663830000000 1.0
C      1  0.5628090000000  0.5276130000000  0.5537670000000 1.0
C      1  0.5089780000000  0.5590850000000  0.5228000000000 1.0
C      1  0.5143170000000  0.4731830000000  0.5631980000000 1.0
C      1  0.5842120000000  0.4739850000000  0.5174300000000 1.0
C      1  0.4640080000000  0.5164800000000  0.4825970000000 1.0
C      1  0.4590260000000  0.5798270000000  0.5009070000000 1.0
C      1  0.5928340000000  0.4998640000000  0.5105320000000 1.0
C      1  0.4654240000000  0.5266410000000  0.5103820000000 1.0
C      1  0.4934390000000  0.5243130000000  0.5768170000000 1.0
C      1  0.4447000000000  0.5713690000000  0.4740540000000 1.0
C      1  0.4527410000000  0.5056050000000  0.5487210000000 1.0
C      1  0.5014840000000  0.4582410000000  0.4211640000000 1.0
C      1  0.4920630000000  0.4985480000000  0.4404350000000 1.0
C      1  0.4655320000000  0.5301800000000  0.4208580000000 1.0
C      1  0.5527110000000  0.4953410000000  0.4595980000000 1.0
C      1  0.4704190000000  0.5524750000000  0.4992940000000 1.0
C      1  0.5382750000000  0.5169230000000  0.5038370000000 1.0
C      1  0.4652000000000  0.5017090000000  0.4293960000000 1.0
C      1  0.4261310000000  0.5516450000000  0.4817380000000 1.0
C      1  0.4778250000000  0.4265320000000  0.4514510000000 1.0
C      1  0.5649670000000  0.5545670000000  0.5081260000000 1.0
C      1  0.5335560000000  0.4395280000000  0.4713130000000 1.0
C      1  0.5544700000000  0.5626670000000  0.4552480000000 1.0
C      1  0.4577650000000  0.4396530000000  0.5205770000000 1.0
C      1  0.5252860000000  0.5692130000000  0.4819270000000 1.0
C      1  0.4732920000000  0.4513730000000  0.5580450000000 1.0
C      1  0.5105410000000  0.5662680000000  0.5514290000000 1.0
C      1  0.4112290000000  0.5293770000000  0.4919120000000 1.0
C      1  0.5796120000000  0.4931880000000  0.4707260000000 1.0
C      1  0.4431440000000  0.4896320000000  0.4473780000000 1.0
C      1  0.4238550000000  0.4580710000000  0.5303820000000 1.0
C      1  0.4181750000000  0.5146370000000  0.5184000000000 1.0
C      1  0.5341810000000  0.4953870000000  0.5712780000000 1.0
C      1  0.5252500000000  0.4528240000000  0.5186090000000 1.0
C      1  0.4523530000000  0.4658690000000  0.4619140000000 1.0
C      1  0.4465430000000  0.4469830000000  0.5460480000000 1.0
C      1  0.4508850000000  0.4878930000000  0.5246130000000 1.0
C      1  0.5358690000000  0.5574140000000  0.4377870000000 1.0
C      1  0.4831620000000  0.4752390000000  0.5698310000000 1.0
C      1  0.4885540000000  0.4393540000000  0.4295190000000 1.0
C      1  0.4801640000000  0.5541940000000  0.4300690000000 1.0
C      1  0.5093350000000  0.5449130000000  0.4669840000000 1.0
C      1  0.4429580000000  0.4255510000000  0.4863590000000 1.0
C      1  0.4739890000000  0.5023780000000  0.5689560000000 1.0
C      1  0.5241820000000  0.4456220000000  0.5593830000000 1.0
C      1  0.5873210000000  0.5158810000000  0.4879910000000 1.0
C      1  0.4977510000000  0.4572040000000  0.4778040000000 1.0
C      1  0.5397800000000  0.5625930000000  0.5561610000000 1.0
C      1  0.4902820000000  0.5526450000000  0.5690730000000 1.0
C      1  0.5495310000000  0.4498590000000  0.4499850000000 1.0
C      1  0.5744950000000  0.4458030000000  0.4680450000000 1.0
C      1  0.4702160000000  0.4704500000000  0.5118750000000 1.0
C      1  0.5325510000000  0.4975290000000  0.4824070000000 1.0
C      1  0.4190900000000  0.5136670000000  0.4699540000000 1.0
C      1  0.4405120000000  0.5260810000000  0.5322510000000 1.0
C      1  0.5645900000000  0.4735430000000  0.5395220000000 1.0
C      1  0.5093650000000  0.5495260000000  0.4366230000000 1.0
C      1  0.4292350000000  0.4389790000000  0.5087600000000 1.0
C      1  0.5570770000000  0.4982540000000  0.5544280000000 1.0
C      1  0.5228170000000  0.5197360000000  0.5802170000000 1.0
C      1  0.4860610000000  0.5018790000000  0.4710030000000 1.0
C      1  0.5443380000000  0.5391610000000  0.5734020000000 1.0
C      1  0.5541630000000  0.5676700000000  0.4834240000000 1.0
C      1  0.5647370000000  0.5276790000000  0.5025300000000 1.0
C      1  0.4848710000000  0.5894280000000  0.5058530000000 1.0
C      1  0.4221980000000  0.4852420000000  0.5188010000000 1.0
C      1  0.4925070000000  0.4175130000000  0.5002130000000 1.0
C      1  0.4638400000000  0.4155670000000  0.5042680000000 1.0
C      1  0.5413830000000  0.4772310000000  0.4405370000000 1.0
C      1  0.5125760000000  0.5826490000000  0.5046640000000 1.0
C      1  0.5154190000000  0.5304780000000  0.5166080000000 1.0
C      1  0.5839830000000  0.4674840000000  0.4858400000000 1.0
C      1  0.5000280000000  0.4295110000000  0.4729460000000 1.0
END
