TITL C-884134-5972-316 157.750727321485 125000 -25527.4265341829 0 0 174 (C1) n - 1
REM
REM in /home/nfs/bkarasulu/CARBON/AIRSS/Generating-Clusters/ReaxFF-fromJPCA2015/Units_Real/with-SteepDescent/Only-C1/SD-CG/Try1-3A/FIRE-CG
REM
REM
REM
REM
REM
REM ./C.cell (11c1c37f851c82e70ff6c80c92926a4b)
REM
REM compiler GCC version 9.2.1 20190827 (Red Hat 9.2.1-1)
REM options -cpp -mtune=generic -march=x86-64 -g -O0 -fpre-include=/usr/include/finclude/math-vector-fortran.h
REM seed -1499805243 370334061 -152070771 -1885270539 -1031943849 -599841510 -102345047 -1762793749 846831629 1245874766 54530333 80745516 -796117472 1084151935 -1702666635 -1725448873 1523059379 -1718026341 -1313443273 554938526 2063570252 -1349486926 1667919711 724443997 -1903256605 1844240820 -1063992917 -851889012 1292479791 -723677306 565055339 -1980388581 1823285457
REM
CELL 1.54180   50.00000   50.00000   50.00000   90.00000   90.00000   90.00000
LATT -1
SFAC C  
C      1  0.5308570000000  0.5405800000000  0.5198460000000 1.0
C      1  0.4814950000000  0.5953330000000  0.4539180000000 1.0
C      1  0.5125800000000  0.4144130000000  0.4994140000000 1.0
C      1  0.4424350000000  0.5450530000000  0.4233810000000 1.0
C      1  0.4745970000000  0.5473550000000  0.5375980000000 1.0
C      1  0.4580810000000  0.5030110000000  0.5916720000000 1.0
C      1  0.5018320000000  0.5053590000000  0.4092540000000 1.0
C      1  0.4196460000000  0.5761400000000  0.4873500000000 1.0
C      1  0.5625150000000  0.5859180000000  0.5004820000000 1.0
C      1  0.5992030000000  0.4921420000000  0.4365500000000 1.0
C      1  0.5260740000000  0.5308510000000  0.4931910000000 1.0
C      1  0.5584330000000  0.4626080000000  0.4867430000000 1.0
C      1  0.3960430000000  0.4667790000000  0.4952550000000 1.0
C      1  0.4713500000000  0.5388770000000  0.4298640000000 1.0
C      1  0.4948810000000  0.5065540000000  0.5606350000000 1.0
C      1  0.5448950000000  0.4141410000000  0.4522090000000 1.0
C      1  0.5415640000000  0.4534330000000  0.5220600000000 1.0
C      1  0.4973520000000  0.4806860000000  0.5698380000000 1.0
C      1  0.4670790000000  0.4996450000000  0.4842420000000 1.0
C      1  0.5770410000000  0.4158200000000  0.4871410000000 1.0
C      1  0.4162980000000  0.4350840000000  0.5550940000000 1.0
C      1  0.4864510000000  0.4886560000000  0.3917050000000 1.0
C      1  0.5814210000000  0.5168690000000  0.5860050000000 1.0
C      1  0.3917090000000  0.4956590000000  0.4392740000000 1.0
C      1  0.5397070000000  0.5244490000000  0.5403890000000 1.0
C      1  0.4402290000000  0.4105610000000  0.5155890000000 1.0
C      1  0.4165410000000  0.5362250000000  0.5547950000000 1.0
C      1  0.4621460000000  0.4021450000000  0.4806470000000 1.0
C      1  0.4674190000000  0.4005720000000  0.5080180000000 1.0
C      1  0.5721320000000  0.4333880000000  0.4492560000000 1.0
C      1  0.5445640000000  0.5029620000000  0.5230850000000 1.0
C      1  0.4089580000000  0.5254290000000  0.4815610000000 1.0
C      1  0.4375050000000  0.5243950000000  0.5891720000000 1.0
C      1  0.4487730000000  0.5895400000000  0.5432460000000 1.0
C      1  0.4559270000000  0.4874410000000  0.5404820000000 1.0
C      1  0.5321990000000  0.5098950000000  0.6048410000000 1.0
C      1  0.4118910000000  0.4912890000000  0.5032190000000 1.0
C      1  0.4574340000000  0.5844320000000  0.4465370000000 1.0
C      1  0.4708020000000  0.5159430000000  0.5267330000000 1.0
C      1  0.4930570000000  0.4547430000000  0.5269690000000 1.0
C      1  0.5746650000000  0.5590520000000  0.4617930000000 1.0
C      1  0.5035840000000  0.4233170000000  0.5712410000000 1.0
C      1  0.5346450000000  0.5902240000000  0.4384930000000 1.0
C      1  0.5096690000000  0.4913130000000  0.6077490000000 1.0
C      1  0.5966600000000  0.4806790000000  0.4620160000000 1.0
C      1  0.5079240000000  0.4401780000000  0.4272280000000 1.0
C      1  0.5911100000000  0.5414340000000  0.5115680000000 1.0
C      1  0.5951340000000  0.5378020000000  0.4602100000000 1.0
C      1  0.5314670000000  0.4003460000000  0.4754190000000 1.0
C      1  0.4303820000000  0.4377690000000  0.5795200000000 1.0
C      1  0.5348730000000  0.4673550000000  0.4731710000000 1.0
C      1  0.4963490000000  0.4029330000000  0.5206100000000 1.0
C      1  0.4314870000000  0.4767750000000  0.5218160000000 1.0
C      1  0.4629400000000  0.4686710000000  0.4501130000000 1.0
C      1  0.4939740000000  0.4602690000000  0.3927220000000 1.0
C      1  0.5046270000000  0.4657580000000  0.4449330000000 1.0
C      1  0.5722910000000  0.5865170000000  0.4731090000000 1.0
C      1  0.5079650000000  0.6040570000000  0.4974510000000 1.0
C      1  0.4148230000000  0.4755800000000  0.4335580000000 1.0
C      1  0.4101200000000  0.5382030000000  0.5257430000000 1.0
C      1  0.5509420000000  0.4828180000000  0.5702160000000 1.0
C      1  0.4375060000000  0.4811120000000  0.4525880000000 1.0
C      1  0.5401600000000  0.5553200000000  0.4048090000000 1.0
C      1  0.5232660000000  0.4224860000000  0.4421900000000 1.0
C      1  0.5469570000000  0.5995780000000  0.4632380000000 1.0
C      1  0.5715420000000  0.4436620000000  0.5569150000000 1.0
C      1  0.5980210000000  0.5149250000000  0.5619770000000 1.0
C      1  0.5486650000000  0.5490740000000  0.4520840000000 1.0
C      1  0.4140650000000  0.5657200000000  0.4598150000000 1.0
C      1  0.5062360000000  0.4654400000000  0.4802480000000 1.0
C      1  0.5047210000000  0.5845540000000  0.5718320000000 1.0
C      1  0.4585140000000  0.5196010000000  0.5012840000000 1.0
C      1  0.5235630000000  0.5668170000000  0.5299460000000 1.0
C      1  0.5381390000000  0.5539550000000  0.5840150000000 1.0
C      1  0.5928330000000  0.4264090000000  0.5106870000000 1.0
C      1  0.5188280000000  0.4666930000000  0.5333990000000 1.0
C      1  0.4602370000000  0.6115390000000  0.4969430000000 1.0
C      1  0.4583400000000  0.4369620000000  0.5584910000000 1.0
C      1  0.5741750000000  0.5656520000000  0.5186670000000 1.0
C      1  0.5478020000000  0.4312460000000  0.5696920000000 1.0
C      1  0.4004980000000  0.5178730000000  0.5070660000000 1.0
C      1  0.5209080000000  0.4531950000000  0.4035590000000 1.0
C      1  0.5534980000000  0.4949580000000  0.4104010000000 1.0
C      1  0.4266360000000  0.5209860000000  0.4192360000000 1.0
C      1  0.5638700000000  0.5668730000000  0.5454150000000 1.0
C      1  0.4658280000000  0.6068190000000  0.5260550000000 1.0
C      1  0.4513100000000  0.5760080000000  0.5698830000000 1.0
C      1  0.4259380000000  0.4319040000000  0.4987740000000 1.0
C      1  0.5549210000000  0.4350560000000  0.4851910000000 1.0
C      1  0.4852730000000  0.5322680000000  0.5638230000000 1.0
C      1  0.4928490000000  0.4905240000000  0.4884090000000 1.0
C      1  0.4810510000000  0.5103160000000  0.4274050000000 1.0
C      1  0.5312880000000  0.5801170000000  0.5765220000000 1.0
C      1  0.5988990000000  0.4969550000000  0.4875560000000 1.0
C      1  0.5566310000000  0.4080540000000  0.5306580000000 1.0
C      1  0.5399140000000  0.4262360000000  0.5108160000000 1.0
C      1  0.4666710000000  0.4535490000000  0.4038860000000 1.0
C      1  0.6100650000000  0.4816580000000  0.5134390000000 1.0
C      1  0.4145580000000  0.5130500000000  0.5733790000000 1.0
C      1  0.5514020000000  0.5687920000000  0.4282160000000 1.0
C      1  0.5110920000000  0.5519470000000  0.4003070000000 1.0
C      1  0.4189970000000  0.4852740000000  0.5661970000000 1.0
C      1  0.5927440000000  0.4940390000000  0.5414140000000 1.0
C      1  0.4478240000000  0.4852530000000  0.5699220000000 1.0
C      1  0.4493090000000  0.5635700000000  0.5294630000000 1.0
C      1  0.5423480000000  0.4691400000000  0.4143310000000 1.0
C      1  0.4697350000000  0.4613190000000  0.5422290000000 1.0
C      1  0.5131480000000  0.4617400000000  0.6027380000000 1.0
C      1  0.3999370000000  0.5409850000000  0.4597620000000 1.0
C      1  0.4788230000000  0.5816430000000  0.5717630000000 1.0
C      1  0.5250690000000  0.5373270000000  0.4221740000000 1.0
C      1  0.5236890000000  0.4777870000000  0.5603790000000 1.0
C      1  0.4378520000000  0.5262070000000  0.4802190000000 1.0
C      1  0.4442560000000  0.5002290000000  0.4697460000000 1.0
C      1  0.5185010000000  0.4950820000000  0.5228430000000 1.0
C      1  0.5207490000000  0.5551170000000  0.4568390000000 1.0
C      1  0.5327240000000  0.4755200000000  0.4459140000000 1.0
C      1  0.5214900000000  0.5364620000000  0.5987470000000 1.0
C      1  0.5811460000000  0.4216830000000  0.5372680000000 1.0
C      1  0.4810670000000  0.5451410000000  0.4713450000000 1.0
C      1  0.5852360000000  0.4573380000000  0.4531080000000 1.0
C      1  0.5823130000000  0.5163160000000  0.5231940000000 1.0
C      1  0.5448180000000  0.5162620000000  0.4771620000000 1.0
C      1  0.4433720000000  0.4537650000000  0.5062150000000 1.0
C      1  0.4600130000000  0.5423940000000  0.4614600000000 1.0
C      1  0.5648100000000  0.4679150000000  0.5142950000000 1.0
C      1  0.4786850000000  0.4341260000000  0.5801050000000 1.0
C      1  0.5384590000000  0.4079200000000  0.5527900000000 1.0
C      1  0.3872300000000  0.4621330000000  0.5228180000000 1.0
C      1  0.5357530000000  0.5975450000000  0.4905680000000 1.0
C      1  0.4948990000000  0.4442620000000  0.5007710000000 1.0
C      1  0.4394530000000  0.5940970000000  0.4915330000000 1.0
C      1  0.4923200000000  0.5336570000000  0.5927880000000 1.0
C      1  0.4253810000000  0.5591950000000  0.5130530000000 1.0
C      1  0.5340750000000  0.5022390000000  0.4537480000000 1.0
C      1  0.4947210000000  0.5056760000000  0.5122870000000 1.0
C      1  0.4345100000000  0.4936550000000  0.4137040000000 1.0
C      1  0.5581350000000  0.3912650000000  0.4845470000000 1.0
C      1  0.5921820000000  0.4553890000000  0.5146650000000 1.0
C      1  0.4927420000000  0.5966810000000  0.5223050000000 1.0
C      1  0.5090750000000  0.4067050000000  0.5470890000000 1.0
C      1  0.4850960000000  0.6078890000000  0.4799360000000 1.0
C      1  0.5740820000000  0.4720570000000  0.5559860000000 1.0
C      1  0.4678640000000  0.4459110000000  0.4925300000000 1.0
C      1  0.4511540000000  0.4056020000000  0.4548180000000 1.0
C      1  0.6005020000000  0.5268250000000  0.4866770000000 1.0
C      1  0.4742890000000  0.4215580000000  0.4459750000000 1.0
C      1  0.4336680000000  0.4270250000000  0.4388250000000 1.0
C      1  0.5391710000000  0.5824920000000  0.5493640000000 1.0
C      1  0.4924060000000  0.5600970000000  0.4201820000000 1.0
C      1  0.5547530000000  0.5424260000000  0.5605510000000 1.0
C      1  0.5289800000000  0.5092760000000  0.4243120000000 1.0
C      1  0.5630960000000  0.5054150000000  0.4999230000000 1.0
C      1  0.4086890000000  0.4440950000000  0.4780110000000 1.0
C      1  0.5059520000000  0.5784860000000  0.4396550000000 1.0
C      1  0.4372410000000  0.5484730000000  0.5718930000000 1.0
C      1  0.4847480000000  0.5073280000000  0.6029840000000 1.0
C      1  0.5823290000000  0.5380090000000  0.5674850000000 1.0
C      1  0.4577360000000  0.4817150000000  0.4016500000000 1.0
C      1  0.5245210000000  0.4407000000000  0.5842400000000 1.0
C      1  0.5570640000000  0.5017200000000  0.5915990000000 1.0
C      1  0.4092590000000  0.4649920000000  0.5445750000000 1.0
C      1  0.5065570000000  0.5487300000000  0.4810620000000 1.0
C      1  0.4950930000000  0.5683520000000  0.5289170000000 1.0
C      1  0.4581840000000  0.4325750000000  0.4229750000000 1.0
C      1  0.4384050000000  0.4186150000000  0.5432470000000 1.0
C      1  0.4696990000000  0.4443740000000  0.4640900000000 1.0
C      1  0.4344750000000  0.5697500000000  0.4387210000000 1.0
C      1  0.5796880000000  0.5043360000000  0.4184030000000 1.0
C      1  0.5953570000000  0.5207320000000  0.4365740000000 1.0
C      1  0.4834970000000  0.4854480000000  0.4410960000000 1.0
C      1  0.4867550000000  0.4601230000000  0.5913020000000 1.0
C      1  0.4159300000000  0.4465030000000  0.4502100000000 1.0
C      1  0.4007530000000  0.5230120000000  0.4359780000000 1.0
END
