TITL C-884129-4740-155 15.7631414610734 125000 -17672.4346981895 0 0 120 (C1) n - 1
REM
REM in /home/nfs/bkarasulu/CARBON/AIRSS/Generating-Clusters/ReaxFF-fromJPCA2015/Units_Real/with-SteepDescent/Only-C1/SD-CG/Try1-3A/FIRE-CG
REM
REM
REM
REM
REM
REM ./C.cell (11c1c37f851c82e70ff6c80c92926a4b)
REM
REM compiler GCC version 9.2.1 20190827 (Red Hat 9.2.1-1)
REM options -cpp -mtune=generic -march=x86-64 -g -O0 -fpre-include=/usr/include/finclude/math-vector-fortran.h
REM seed -905478834 212401229 -2036115851 -1217217935 1319330166 -1649168839 -1855687328 608786139 -395117140 47873024 544193883 -90229010 985814305 -1609648066 993341905 -1926965028 327228857 -563890672 2012408577 -93218573 -60146089 1511771350 418363303 -2078005503 -1645458974 -1945640266 657958614 1557647322 -321167556 -1522900174 -1755030505 1913906617 -701818972
REM
CELL 1.54180   50.00000   50.00000   50.00000   90.00000   90.00000   90.00000
LATT -1
SFAC C  
C      1  0.5036300000000  0.5212080000000  0.5011450000000 1.0
C      1  0.4974460000000  0.5941050000000  0.4835250000000 1.0
C      1  0.5553410000000  0.4734020000000  0.4179710000000 1.0
C      1  0.4810160000000  0.4300620000000  0.4346180000000 1.0
C      1  0.4385710000000  0.5678790000000  0.4573180000000 1.0
C      1  0.5761400000000  0.4646570000000  0.4538400000000 1.0
C      1  0.5881260000000  0.4565780000000  0.5390330000000 1.0
C      1  0.4653500000000  0.4769730000000  0.4184160000000 1.0
C      1  0.5336590000000  0.5586060000000  0.5133460000000 1.0
C      1  0.4782120000000  0.4766120000000  0.5136260000000 1.0
C      1  0.5483360000000  0.5241670000000  0.4163140000000 1.0
C      1  0.5063870000000  0.4197830000000  0.5386100000000 1.0
C      1  0.5705150000000  0.5530150000000  0.5404240000000 1.0
C      1  0.5369000000000  0.5042170000000  0.5882470000000 1.0
C      1  0.4530740000000  0.4769750000000  0.5016680000000 1.0
C      1  0.4867650000000  0.5926400000000  0.5104210000000 1.0
C      1  0.4088140000000  0.4848380000000  0.5038520000000 1.0
C      1  0.5384070000000  0.5449590000000  0.5782330000000 1.0
C      1  0.5547650000000  0.5490210000000  0.4715810000000 1.0
C      1  0.4883090000000  0.4697690000000  0.5973520000000 1.0
C      1  0.5468720000000  0.4715870000000  0.4820030000000 1.0
C      1  0.5077810000000  0.4950590000000  0.4073000000000 1.0
C      1  0.5537200000000  0.4520570000000  0.4401480000000 1.0
C      1  0.5304180000000  0.4809350000000  0.4112910000000 1.0
C      1  0.4853650000000  0.5669660000000  0.5271080000000 1.0
C      1  0.4906520000000  0.4712600000000  0.4160960000000 1.0
C      1  0.5305300000000  0.5683500000000  0.5635230000000 1.0
C      1  0.5022230000000  0.4702240000000  0.5543380000000 1.0
C      1  0.5399670000000  0.4244790000000  0.4966870000000 1.0
C      1  0.5293370000000  0.5369300000000  0.4276140000000 1.0
C      1  0.5647300000000  0.5391130000000  0.5659740000000 1.0
C      1  0.5254700000000  0.4839840000000  0.5440960000000 1.0
C      1  0.5388780000000  0.5685360000000  0.4859670000000 1.0
C      1  0.4346410000000  0.4454240000000  0.4551810000000 1.0
C      1  0.4380970000000  0.5534800000000  0.4824930000000 1.0
C      1  0.5200280000000  0.5142630000000  0.5409560000000 1.0
C      1  0.5615500000000  0.4932250000000  0.5795080000000 1.0
C      1  0.5301980000000  0.5273460000000  0.5157560000000 1.0
C      1  0.5280880000000  0.4386450000000  0.4489210000000 1.0
C      1  0.4130630000000  0.5195890000000  0.5236330000000 1.0
C      1  0.4749890000000  0.4186910000000  0.4980260000000 1.0
C      1  0.4805960000000  0.5769620000000  0.5542150000000 1.0
C      1  0.5794050000000  0.5143890000000  0.4408140000000 1.0
C      1  0.4940690000000  0.5242820000000  0.5432490000000 1.0
C      1  0.4929150000000  0.5125990000000  0.4570800000000 1.0
C      1  0.4569770000000  0.5280180000000  0.4326030000000 1.0
C      1  0.5332370000000  0.4157730000000  0.5258040000000 1.0
C      1  0.5205820000000  0.4742860000000  0.5135660000000 1.0
C      1  0.4370540000000  0.4257540000000  0.5295700000000 1.0
C      1  0.5813640000000  0.4571310000000  0.5112840000000 1.0
C      1  0.4312500000000  0.5407200000000  0.5307380000000 1.0
C      1  0.5001910000000  0.4656600000000  0.4694480000000 1.0
C      1  0.4578730000000  0.5745830000000  0.4353020000000 1.0
C      1  0.5835740000000  0.5348900000000  0.5217730000000 1.0
C      1  0.4279110000000  0.4389560000000  0.4828920000000 1.0
C      1  0.4801060000000  0.4663910000000  0.5382100000000 1.0
C      1  0.5569800000000  0.4478570000000  0.4959730000000 1.0
C      1  0.5770690000000  0.5133300000000  0.5632010000000 1.0
C      1  0.4168770000000  0.4957350000000  0.5298030000000 1.0
C      1  0.4918670000000  0.4346070000000  0.5168020000000 1.0
C      1  0.4870770000000  0.5517290000000  0.4672990000000 1.0
C      1  0.5478130000000  0.4314210000000  0.5421840000000 1.0
C      1  0.4551380000000  0.5197900000000  0.5169570000000 1.0
C      1  0.5454270000000  0.5689760000000  0.5373430000000 1.0
C      1  0.5759450000000  0.5345220000000  0.4873340000000 1.0
C      1  0.4833260000000  0.5326670000000  0.5188030000000 1.0
C      1  0.5081440000000  0.4528910000000  0.4993490000000 1.0
C      1  0.5371450000000  0.5325520000000  0.4547240000000 1.0
C      1  0.5484160000000  0.4728850000000  0.5635600000000 1.0
C      1  0.5066680000000  0.5242950000000  0.4148440000000 1.0
C      1  0.5900660000000  0.5150780000000  0.4660700000000 1.0
C      1  0.4602260000000  0.5824880000000  0.5192490000000 1.0
C      1  0.4450980000000  0.4226740000000  0.5009240000000 1.0
C      1  0.4993670000000  0.4926810000000  0.5055570000000 1.0
C      1  0.4452090000000  0.4392230000000  0.5540890000000 1.0
C      1  0.4542230000000  0.4280940000000  0.4423780000000 1.0
C      1  0.4154190000000  0.5062900000000  0.4843720000000 1.0
C      1  0.4571870000000  0.5885100000000  0.4591210000000 1.0
C      1  0.4531430000000  0.4703380000000  0.5508300000000 1.0
C      1  0.5182900000000  0.5244410000000  0.5907580000000 1.0
C      1  0.4806910000000  0.4885120000000  0.4654050000000 1.0
C      1  0.5660140000000  0.4910710000000  0.4898430000000 1.0
C      1  0.4381750000000  0.4831100000000  0.4209080000000 1.0
C      1  0.4337060000000  0.5103800000000  0.4329870000000 1.0
C      1  0.4567330000000  0.4962570000000  0.4773990000000 1.0
C      1  0.4883110000000  0.5211580000000  0.5894220000000 1.0
C      1  0.4803910000000  0.5375520000000  0.4165950000000 1.0
C      1  0.5667210000000  0.5032370000000  0.4188370000000 1.0
C      1  0.5065250000000  0.5628910000000  0.4476850000000 1.0
C      1  0.4243770000000  0.4707460000000  0.4447310000000 1.0
C      1  0.5216840000000  0.4231860000000  0.4734560000000 1.0
C      1  0.5637520000000  0.4489710000000  0.5565070000000 1.0
C      1  0.4254400000000  0.4607350000000  0.5011110000000 1.0
C      1  0.4192070000000  0.4975680000000  0.4560900000000 1.0
C      1  0.4758130000000  0.5330670000000  0.5654220000000 1.0
C      1  0.5182220000000  0.5806610000000  0.4686810000000 1.0
C      1  0.5240840000000  0.4827300000000  0.4695910000000 1.0
C      1  0.4313120000000  0.5085280000000  0.5592340000000 1.0
C      1  0.5198860000000  0.5120960000000  0.4685960000000 1.0
C      1  0.5038040000000  0.5778910000000  0.5702460000000 1.0
C      1  0.4443960000000  0.4924890000000  0.5257320000000 1.0
C      1  0.4700640000000  0.5299690000000  0.4592020000000 1.0
C      1  0.4437300000000  0.5331510000000  0.5571840000000 1.0
C      1  0.4741920000000  0.4953890000000  0.5903810000000 1.0
C      1  0.4750570000000  0.4107790000000  0.4528520000000 1.0
C      1  0.5866300000000  0.5094160000000  0.5357450000000 1.0
C      1  0.4822960000000  0.5596030000000  0.5763410000000 1.0
C      1  0.4958640000000  0.4254840000000  0.5654890000000 1.0
C      1  0.4662670000000  0.4235550000000  0.5679270000000 1.0
C      1  0.4766480000000  0.5781320000000  0.4748880000000 1.0
C      1  0.5885260000000  0.4859230000000  0.4710900000000 1.0
C      1  0.4838570000000  0.5641160000000  0.4274900000000 1.0
C      1  0.4501560000000  0.4904910000000  0.5728750000000 1.0
C      1  0.5023320000000  0.4528290000000  0.5775800000000 1.0
C      1  0.4402830000000  0.5639210000000  0.5086950000000 1.0
C      1  0.5570110000000  0.5156670000000  0.5004850000000 1.0
C      1  0.5923110000000  0.4815550000000  0.5252100000000 1.0
C      1  0.4418070000000  0.5209460000000  0.4878640000000 1.0
C      1  0.5018620000000  0.4495650000000  0.4398470000000 1.0
C      1  0.4922780000000  0.4135970000000  0.4761420000000 1.0
END
