TITL C-883737-113-23 -129084.646886755 125000 -3168.84861299035 0 0 23 (C1) n - 1
REM
REM in /home/nfs/bkarasulu/CARBON/AIRSS/Generating-Clusters/ReaxFF-fromJPCA2015/Units_Real/with-SteepDescent/Only-C1/SD-CG/Try1-3A/FIRE-CG
REM
REM
REM
REM
REM
REM ./C.cell (11c1c37f851c82e70ff6c80c92926a4b)
REM
REM compiler GCC version 9.2.1 20190827 (Red Hat 9.2.1-1)
REM options -cpp -mtune=generic -march=x86-64 -g -O0 -fpre-include=/usr/include/finclude/math-vector-fortran.h
REM seed -1488362680 632176354 -1656556914 8564404 -176089880 1755644156 -1605238724 -755256861 -2033790342 -145156999 -1928527569 -843279135 1098227076 -368061277 -93335521 -1280662070 -1879706752 1619658778 -585403449 492043031 -1743868592 -1220840566 456557138 1340161504 -1464748719 -2088589143 -649800672 494172105 -1547982078 -1459401541 423969882 -1152111609 -1503081832
REM
CELL 1.54180   50.00000   50.00000   50.00000   90.00000   90.00000   90.00000
LATT -1
SFAC C  
C      1  0.4785990000000  0.5585290000000  0.5354730000000 1.0
C      1  0.4709160000000  0.4550330000000  0.5139820000000 1.0
C      1  0.5040790000000  0.5428510000000  0.5406590000000 1.0
C      1  0.4589500000000  0.5146780000000  0.5352720000000 1.0
C      1  0.4859480000000  0.5227220000000  0.4972650000000 1.0
C      1  0.4662050000000  0.5357130000000  0.5199350000000 1.0
C      1  0.5313630000000  0.4715180000000  0.4824070000000 1.0
C      1  0.4804360000000  0.4512290000000  0.4621560000000 1.0
C      1  0.4776610000000  0.4959880000000  0.4867300000000 1.0
C      1  0.5502390000000  0.5150300000000  0.4862710000000 1.0
C      1  0.4766220000000  0.4686330000000  0.5389770000000 1.0
C      1  0.5062810000000  0.5193020000000  0.5223090000000 1.0
C      1  0.5344710000000  0.5398950000000  0.4846760000000 1.0
C      1  0.5019360000000  0.4784410000000  0.5318350000000 1.0
C      1  0.4720420000000  0.4680450000000  0.4856070000000 1.0
C      1  0.5125040000000  0.5285610000000  0.4499070000000 1.0
C      1  0.4548830000000  0.4911400000000  0.5491190000000 1.0
C      1  0.5420730000000  0.5258710000000  0.4602210000000 1.0
C      1  0.5040370000000  0.4374810000000  0.4494700000000 1.0
C      1  0.5229570000000  0.4950410000000  0.5241080000000 1.0
C      1  0.5408300000000  0.4905150000000  0.4996480000000 1.0
C      1  0.5212820000000  0.4548900000000  0.4671760000000 1.0
C      1  0.5056850000000  0.5388930000000  0.4767990000000 1.0
END
