TITL C-884140-4336-90 9.33866682229034 125000 -10254.4452329644 0 0 70 (C1) n - 1
REM
REM in /home/nfs/bkarasulu/CARBON/AIRSS/Generating-Clusters/ReaxFF-fromJPCA2015/Units_Real/with-SteepDescent/Only-C1/SD-CG/Try1-3A/FIRE-CG
REM
REM
REM
REM
REM
REM ./C.cell (11c1c37f851c82e70ff6c80c92926a4b)
REM
REM compiler GCC version 9.2.1 20190827 (Red Hat 9.2.1-1)
REM options -cpp -mtune=generic -march=x86-64 -g -O0 -fpre-include=/usr/include/finclude/math-vector-fortran.h
REM seed -1944573015 -1670094858 -282327098 1356507878 -1767842010 1355060594 747371943 -1500100011 754468529 1787962588 1464198783 869937180 224326797 -482322725 2063455063 -1647658605 -2111316129 1851328331 1710952169 693285654 -1371303370 -1924856757 705269224 681591736 1007385852 -662226487 2122966907 -1277893073 -1718724022 1112703248 445429159 803191250 1308584770
REM
CELL 1.54180   50.00000   50.00000   50.00000   90.00000   90.00000   90.00000
LATT -1
SFAC C  
C      1  0.5104240000000  0.5640150000000  0.4732060000000 1.0
C      1  0.4620060000000  0.5092680000000  0.4775930000000 1.0
C      1  0.4366210000000  0.5252520000000  0.4887380000000 1.0
C      1  0.5458160000000  0.4729700000000  0.5346700000000 1.0
C      1  0.4982210000000  0.5796000000000  0.4951080000000 1.0
C      1  0.4937190000000  0.5769920000000  0.5245670000000 1.0
C      1  0.5387380000000  0.5540070000000  0.4707250000000 1.0
C      1  0.4574910000000  0.5456680000000  0.5327830000000 1.0
C      1  0.4901100000000  0.4559370000000  0.4494870000000 1.0
C      1  0.4650270000000  0.4697410000000  0.4475190000000 1.0
C      1  0.4147950000000  0.4880940000000  0.5127660000000 1.0
C      1  0.4860820000000  0.4231930000000  0.5262230000000 1.0
C      1  0.5167670000000  0.4964020000000  0.4258140000000 1.0
C      1  0.4868490000000  0.4863390000000  0.5653360000000 1.0
C      1  0.5578270000000  0.4941100000000  0.4792710000000 1.0
C      1  0.4907480000000  0.5139060000000  0.4789920000000 1.0
C      1  0.4844900000000  0.4378070000000  0.5018690000000 1.0
C      1  0.4910980000000  0.4648250000000  0.5148880000000 1.0
C      1  0.5083120000000  0.4272510000000  0.4931770000000 1.0
C      1  0.5577840000000  0.5470290000000  0.4938210000000 1.0
C      1  0.4892650000000  0.4378260000000  0.5499540000000 1.0
C      1  0.5166800000000  0.4893340000000  0.5668540000000 1.0
C      1  0.5731740000000  0.4686580000000  0.4779860000000 1.0
C      1  0.5625110000000  0.5217150000000  0.4832470000000 1.0
C      1  0.5155680000000  0.5143580000000  0.5245250000000 1.0
C      1  0.5758920000000  0.4713380000000  0.5298820000000 1.0
C      1  0.4472980000000  0.4728390000000  0.5361860000000 1.0
C      1  0.4752040000000  0.4657250000000  0.5457560000000 1.0
C      1  0.5499180000000  0.5128560000000  0.5570380000000 1.0
C      1  0.5180010000000  0.4409220000000  0.5444360000000 1.0
C      1  0.5307000000000  0.4492160000000  0.4565920000000 1.0
C      1  0.4121920000000  0.5049780000000  0.4896690000000 1.0
C      1  0.4824260000000  0.5125190000000  0.5598830000000 1.0
C      1  0.4302720000000  0.4604150000000  0.5159450000000 1.0
C      1  0.4349330000000  0.4997320000000  0.5317990000000 1.0
C      1  0.4580450000000  0.4837040000000  0.4872290000000 1.0
C      1  0.5457470000000  0.5504870000000  0.5208750000000 1.0
C      1  0.4654990000000  0.4971680000000  0.4357110000000 1.0
C      1  0.5546060000000  0.4476490000000  0.4714960000000 1.0
C      1  0.5151850000000  0.4725720000000  0.4448220000000 1.0
C      1  0.5169340000000  0.5426050000000  0.5185100000000 1.0
C      1  0.4459290000000  0.4634390000000  0.4697850000000 1.0
C      1  0.4551350000000  0.5254410000000  0.4408360000000 1.0
C      1  0.4782530000000  0.5383880000000  0.5524130000000 1.0
C      1  0.4891700000000  0.5565120000000  0.4547600000000 1.0
C      1  0.5294570000000  0.4869030000000  0.4875620000000 1.0
C      1  0.4422030000000  0.5254150000000  0.5198060000000 1.0
C      1  0.4368980000000  0.4445780000000  0.4911690000000 1.0
C      1  0.5213620000000  0.4687740000000  0.5096910000000 1.0
C      1  0.4435780000000  0.5416800000000  0.4625220000000 1.0
C      1  0.5034350000000  0.5561530000000  0.5424260000000 1.0
C      1  0.5292580000000  0.4633320000000  0.5579770000000 1.0
C      1  0.5112200000000  0.4968430000000  0.4677610000000 1.0
C      1  0.5507250000000  0.5421280000000  0.5486910000000 1.0
C      1  0.5220760000000  0.5138370000000  0.5530130000000 1.0
C      1  0.5262090000000  0.5530010000000  0.5570810000000 1.0
C      1  0.4786970000000  0.4861080000000  0.5050210000000 1.0
C      1  0.4655580000000  0.5716280000000  0.5201430000000 1.0
C      1  0.4903520000000  0.5088030000000  0.4252160000000 1.0
C      1  0.5282410000000  0.4383660000000  0.5113080000000 1.0
C      1  0.5769210000000  0.4565900000000  0.5047390000000 1.0
C      1  0.4688360000000  0.5784690000000  0.4914560000000 1.0
C      1  0.4815570000000  0.5361170000000  0.4342900000000 1.0
C      1  0.5653050000000  0.4964730000000  0.5385860000000 1.0
C      1  0.5551390000000  0.4377770000000  0.4982500000000 1.0
C      1  0.4632270000000  0.5628070000000  0.4670460000000 1.0
C      1  0.4919180000000  0.5115220000000  0.5084070000000 1.0
C      1  0.5060670000000  0.4377660000000  0.4669980000000 1.0
C      1  0.5407590000000  0.5357810000000  0.4499330000000 1.0
C      1  0.5395400000000  0.5163440000000  0.4281670000000 1.0
END
