TITL C-883727-9645-104 90.980166728884 125000 -21148.5710187372 0 0 144 (C1) n - 1
REM
REM in /home/nfs/bkarasulu/CARBON/AIRSS/Generating-Clusters/ReaxFF-fromJPCA2015/Units_Real/with-SteepDescent/Only-C1/SD-CG/Try1-3A/FIRE-CG
REM
REM
REM
REM
REM
REM ./C.cell (11c1c37f851c82e70ff6c80c92926a4b)
REM
REM compiler GCC version 9.2.1 20190827 (Red Hat 9.2.1-1)
REM options -cpp -mtune=generic -march=x86-64 -g -O0 -fpre-include=/usr/include/finclude/math-vector-fortran.h
REM seed 1064059996 186516118 -354740706 592865339 -297904287 -1156713849 644453740 -1779099226 361300486 826979396 -1769495995 -434917323 884043055 -908738171 -1672187565 -45098019 1444991004 1673692285 -1753548708 515137861 559070166 -1180937212 -1444254481 -1227315071 -970972359 707751300 1973049363 1354424902 -1391401704 -1886250122 519484406 -995481261 -347081808
REM
CELL 1.54180   50.00000   50.00000   50.00000   90.00000   90.00000   90.00000
LATT -1
SFAC C  
C      1  0.4839470000000  0.5016890000000  0.5569100000000 1.0
C      1  0.5440140000000  0.4330640000000  0.4523460000000 1.0
C      1  0.5250610000000  0.4150120000000  0.5587250000000 1.0
C      1  0.5795020000000  0.5467010000000  0.5412730000000 1.0
C      1  0.3931760000000  0.4934960000000  0.5030190000000 1.0
C      1  0.3997580000000  0.4753770000000  0.4805910000000 1.0
C      1  0.5368450000000  0.5339940000000  0.5157720000000 1.0
C      1  0.4974810000000  0.5108660000000  0.4745190000000 1.0
C      1  0.5105890000000  0.5662960000000  0.5948910000000 1.0
C      1  0.5387240000000  0.5800010000000  0.4829640000000 1.0
C      1  0.5734440000000  0.4766860000000  0.4450730000000 1.0
C      1  0.5348560000000  0.5952980000000  0.5102000000000 1.0
C      1  0.5529320000000  0.4560650000000  0.4353330000000 1.0
C      1  0.5414930000000  0.5093810000000  0.5360870000000 1.0
C      1  0.5621650000000  0.4850080000000  0.5786790000000 1.0
C      1  0.4122750000000  0.5305420000000  0.5467790000000 1.0
C      1  0.4659320000000  0.5321430000000  0.5256850000000 1.0
C      1  0.5177680000000  0.5127470000000  0.5909590000000 1.0
C      1  0.4672700000000  0.5755920000000  0.5408880000000 1.0
C      1  0.5035250000000  0.6092780000000  0.4786860000000 1.0
C      1  0.5431030000000  0.5050060000000  0.4730050000000 1.0
C      1  0.5168710000000  0.4389600000000  0.4599160000000 1.0
C      1  0.4097750000000  0.4795680000000  0.5510190000000 1.0
C      1  0.4741410000000  0.4612450000000  0.4289510000000 1.0
C      1  0.5685700000000  0.5067560000000  0.4540270000000 1.0
C      1  0.4624880000000  0.4118780000000  0.5167910000000 1.0
C      1  0.4325950000000  0.4914320000000  0.4384020000000 1.0
C      1  0.4661600000000  0.4646630000000  0.5846820000000 1.0
C      1  0.4954030000000  0.4109170000000  0.5588270000000 1.0
C      1  0.5880820000000  0.5505850000000  0.4861670000000 1.0
C      1  0.4274530000000  0.5532070000000  0.5560330000000 1.0
C      1  0.4495690000000  0.5177310000000  0.4843860000000 1.0
C      1  0.5542120000000  0.5492420000000  0.4292470000000 1.0
C      1  0.5539870000000  0.5520940000000  0.5540930000000 1.0
C      1  0.5618640000000  0.5210970000000  0.4279110000000 1.0
C      1  0.4377970000000  0.4242940000000  0.5220550000000 1.0
C      1  0.5035580000000  0.5322780000000  0.4351020000000 1.0
C      1  0.4775890000000  0.4580930000000  0.4739270000000 1.0
C      1  0.5524800000000  0.4330990000000  0.5145390000000 1.0
C      1  0.4704050000000  0.5603260000000  0.5649050000000 1.0
C      1  0.4479310000000  0.5431940000000  0.5743040000000 1.0
C      1  0.4393460000000  0.4910540000000  0.4893300000000 1.0
C      1  0.4699200000000  0.4951170000000  0.5839110000000 1.0
C      1  0.5230300000000  0.5960280000000  0.4609630000000 1.0
C      1  0.5049500000000  0.4148190000000  0.4696810000000 1.0
C      1  0.5250440000000  0.5233260000000  0.3901970000000 1.0
C      1  0.5109160000000  0.5473560000000  0.3983310000000 1.0
C      1  0.5619400000000  0.5599800000000  0.4515670000000 1.0
C      1  0.5808060000000  0.5593020000000  0.5135070000000 1.0
C      1  0.5735000000000  0.4923350000000  0.5130910000000 1.0
C      1  0.5084290000000  0.6057950000000  0.5076380000000 1.0
C      1  0.4732480000000  0.4279780000000  0.5652150000000 1.0
C      1  0.5090820000000  0.5235800000000  0.5675950000000 1.0
C      1  0.5219990000000  0.5547710000000  0.4252020000000 1.0
C      1  0.4561460000000  0.4646260000000  0.5346580000000 1.0
C      1  0.5543610000000  0.4813160000000  0.4933740000000 1.0
C      1  0.4555580000000  0.4502930000000  0.5612610000000 1.0
C      1  0.4929060000000  0.4570240000000  0.5937540000000 1.0
C      1  0.4808010000000  0.4093940000000  0.4536690000000 1.0
C      1  0.5794080000000  0.4645950000000  0.4837590000000 1.0
C      1  0.4072950000000  0.5245120000000  0.4692320000000 1.0
C      1  0.4621660000000  0.5555550000000  0.4856670000000 1.0
C      1  0.5114530000000  0.4593000000000  0.4966980000000 1.0
C      1  0.5051730000000  0.4636620000000  0.4685600000000 1.0
C      1  0.4237510000000  0.5617490000000  0.5108100000000 1.0
C      1  0.5090410000000  0.5708740000000  0.5372860000000 1.0
C      1  0.4817220000000  0.5916920000000  0.4701080000000 1.0
C      1  0.5394420000000  0.4570290000000  0.5027510000000 1.0
C      1  0.5879810000000  0.4587790000000  0.4610170000000 1.0
C      1  0.4993870000000  0.4457230000000  0.4224390000000 1.0
C      1  0.4834220000000  0.5411820000000  0.4135540000000 1.0
C      1  0.4810870000000  0.4967280000000  0.3972550000000 1.0
C      1  0.5892070000000  0.4782860000000  0.5333890000000 1.0
C      1  0.4111790000000  0.4937060000000  0.5258380000000 1.0
C      1  0.5076630000000  0.4794870000000  0.5161890000000 1.0
C      1  0.5316730000000  0.5313190000000  0.4854490000000 1.0
C      1  0.5383970000000  0.5278160000000  0.5579470000000 1.0
C      1  0.4649400000000  0.5590720000000  0.4305760000000 1.0
C      1  0.5128390000000  0.5445530000000  0.5279860000000 1.0
C      1  0.4660190000000  0.4313920000000  0.4677270000000 1.0
C      1  0.4975430000000  0.5519410000000  0.5778960000000 1.0
C      1  0.5872170000000  0.4494990000000  0.5279490000000 1.0
C      1  0.4079160000000  0.5384200000000  0.5182710000000 1.0
C      1  0.4607230000000  0.4150360000000  0.4892860000000 1.0
C      1  0.5695610000000  0.5706290000000  0.4736910000000 1.0
C      1  0.5004460000000  0.4480750000000  0.5417990000000 1.0
C      1  0.4627550000000  0.5071600000000  0.5382570000000 1.0
C      1  0.4702070000000  0.5079640000000  0.4664640000000 1.0
C      1  0.5175690000000  0.4942150000000  0.4621320000000 1.0
C      1  0.5813080000000  0.4957280000000  0.5558590000000 1.0
C      1  0.4387920000000  0.5706150000000  0.5349290000000 1.0
C      1  0.5904180000000  0.5133810000000  0.5044860000000 1.0
C      1  0.5302890000000  0.4828090000000  0.5348970000000 1.0
C      1  0.4153520000000  0.4959930000000  0.4632750000000 1.0
C      1  0.4234630000000  0.5472790000000  0.4609790000000 1.0
C      1  0.4443870000000  0.4646340000000  0.4370790000000 1.0
C      1  0.4631090000000  0.5184490000000  0.4044160000000 1.0
C      1  0.4926000000000  0.4183610000000  0.5292840000000 1.0
C      1  0.4613880000000  0.4811700000000  0.4734490000000 1.0
C      1  0.4962520000000  0.4981230000000  0.6020420000000 1.0
C      1  0.5370410000000  0.4127400000000  0.5323820000000 1.0
C      1  0.4418920000000  0.5433080000000  0.4380430000000 1.0
C      1  0.5256330000000  0.4031410000000  0.4865300000000 1.0
C      1  0.4338950000000  0.5644590000000  0.4829480000000 1.0
C      1  0.4285040000000  0.4518280000000  0.4586310000000 1.0
C      1  0.5466810000000  0.5098760000000  0.4059470000000 1.0
C      1  0.5857230000000  0.5223460000000  0.4782050000000 1.0
C      1  0.5895380000000  0.4421170000000  0.4987040000000 1.0
C      1  0.5094020000000  0.4985890000000  0.3894570000000 1.0
C      1  0.5165700000000  0.4048040000000  0.5143050000000 1.0
C      1  0.4123230000000  0.4497210000000  0.4828210000000 1.0
C      1  0.5098880000000  0.5808960000000  0.4400110000000 1.0
C      1  0.4172240000000  0.4401720000000  0.5133470000000 1.0
C      1  0.5394680000000  0.4558820000000  0.5457580000000 1.0
C      1  0.5703180000000  0.4201170000000  0.4949090000000 1.0
C      1  0.5337720000000  0.4402510000000  0.5716570000000 1.0
C      1  0.4429030000000  0.5159730000000  0.4253330000000 1.0
C      1  0.5646170000000  0.4564700000000  0.5770770000000 1.0
C      1  0.4810510000000  0.5806500000000  0.4422170000000 1.0
C      1  0.5518590000000  0.5596610000000  0.5150980000000 1.0
C      1  0.4443770000000  0.5144590000000  0.5787920000000 1.0
C      1  0.5359810000000  0.4904320000000  0.5916550000000 1.0
C      1  0.4535380000000  0.5369860000000  0.5022560000000 1.0
C      1  0.4886740000000  0.5688390000000  0.4888900000000 1.0
C      1  0.4423830000000  0.4878380000000  0.5228560000000 1.0
C      1  0.4925550000000  0.5188430000000  0.4988930000000 1.0
C      1  0.4822560000000  0.4885410000000  0.4258040000000 1.0
C      1  0.4930720000000  0.5280310000000  0.5233060000000 1.0
C      1  0.5136250000000  0.4753480000000  0.6050430000000 1.0
C      1  0.5270550000000  0.4870830000000  0.4115840000000 1.0
C      1  0.4853230000000  0.4724790000000  0.5353730000000 1.0
C      1  0.5072190000000  0.4504690000000  0.5689930000000 1.0
C      1  0.5880540000000  0.5190080000000  0.5399290000000 1.0
C      1  0.5280230000000  0.4584360000000  0.4211880000000 1.0
C      1  0.5388800000000  0.5775320000000  0.5352670000000 1.0
C      1  0.5671110000000  0.4479290000000  0.5496910000000 1.0
C      1  0.5080600000000  0.5031760000000  0.4362600000000 1.0
C      1  0.3971090000000  0.5218230000000  0.4963840000000 1.0
C      1  0.4211290000000  0.5074080000000  0.5635930000000 1.0
C      1  0.4918450000000  0.4176280000000  0.4265390000000 1.0
C      1  0.4153080000000  0.4544250000000  0.5384070000000 1.0
C      1  0.4894860000000  0.5843150000000  0.5190780000000 1.0
C      1  0.5187510000000  0.5565990000000  0.4811360000000 1.0
C      1  0.5505750000000  0.4138860000000  0.4744130000000 1.0
END
