TITL C-883738-3659-261 -3.07880708775202 125000 -10472.9953631944 0 0 70 (C1) n - 1
REM
REM in /home/nfs/bkarasulu/CARBON/AIRSS/Generating-Clusters/ReaxFF-fromJPCA2015/Units_Real/with-SteepDescent/Only-C1/SD-CG/Try1-3A/FIRE-CG
REM
REM
REM
REM
REM
REM ./C.cell (11c1c37f851c82e70ff6c80c92926a4b)
REM
REM compiler GCC version 9.2.1 20190827 (Red Hat 9.2.1-1)
REM options -cpp -mtune=generic -march=x86-64 -g -O0 -fpre-include=/usr/include/finclude/math-vector-fortran.h
REM seed 1331405564 -2005498384 1629591607 -1920806301 249838275 -67346432 -1362570408 875649243 1642354615 -1435588524 1275560706 -165376439 -870121235 479831739 -368781725 -1547179272 -1014118574 926077189 -652604397 1980877599 -1012629345 1236303336 790570675 -809238146 -1957798366 1764139902 -1601483868 -224515124 670713712 1152430888 -1472253395 2019389608 1825581190
REM
CELL 1.54180   50.00000   50.00000   50.00000   90.00000   90.00000   90.00000
LATT -1
SFAC C  
C      1  0.4764850000000  0.5620180000000  0.4635840000000 1.0
C      1  0.5431010000000  0.4954450000000  0.5334790000000 1.0
C      1  0.4278130000000  0.4810820000000  0.5309450000000 1.0
C      1  0.4466600000000  0.5191410000000  0.5483150000000 1.0
C      1  0.5230330000000  0.4613240000000  0.5602410000000 1.0
C      1  0.5625070000000  0.5576700000000  0.4793700000000 1.0
C      1  0.5380460000000  0.5470020000000  0.4469590000000 1.0
C      1  0.5189550000000  0.5281440000000  0.4401460000000 1.0
C      1  0.5098550000000  0.5112620000000  0.5706910000000 1.0
C      1  0.5674180000000  0.4702130000000  0.5082990000000 1.0
C      1  0.5357030000000  0.5133300000000  0.5573430000000 1.0
C      1  0.5150930000000  0.4537260000000  0.4579620000000 1.0
C      1  0.5637740000000  0.5105900000000  0.5193640000000 1.0
C      1  0.5365180000000  0.5676510000000  0.4697560000000 1.0
C      1  0.4443270000000  0.5473200000000  0.5061250000000 1.0
C      1  0.5722160000000  0.4952210000000  0.4952680000000 1.0
C      1  0.5600950000000  0.5329450000000  0.4629740000000 1.0
C      1  0.4757940000000  0.5623160000000  0.5399110000000 1.0
C      1  0.5623360000000  0.5041360000000  0.4686000000000 1.0
C      1  0.4493060000000  0.4289850000000  0.4787510000000 1.0
C      1  0.4321450000000  0.5278220000000  0.5250110000000 1.0
C      1  0.5255080000000  0.4841020000000  0.5125910000000 1.0
C      1  0.5178460000000  0.5279050000000  0.5070820000000 1.0
C      1  0.4942980000000  0.5359820000000  0.5684590000000 1.0
C      1  0.5406980000000  0.4567230000000  0.4639930000000 1.0
C      1  0.4679500000000  0.5638900000000  0.5120220000000 1.0
C      1  0.5095500000000  0.4269810000000  0.5397650000000 1.0
C      1  0.5495170000000  0.4826650000000  0.4529600000000 1.0
C      1  0.4743170000000  0.4692030000000  0.4316140000000 1.0
C      1  0.4384600000000  0.5348410000000  0.4803060000000 1.0
C      1  0.5003480000000  0.4803980000000  0.5688990000000 1.0
C      1  0.5309720000000  0.4902420000000  0.4307260000000 1.0
C      1  0.5578050000000  0.5601610000000  0.5085090000000 1.0
C      1  0.4924920000000  0.5228940000000  0.5188500000000 1.0
C      1  0.4465570000000  0.4881310000000  0.4691190000000 1.0
C      1  0.5515190000000  0.4363620000000  0.4882180000000 1.0
C      1  0.4792620000000  0.4382590000000  0.4762910000000 1.0
C      1  0.5043510000000  0.4638310000000  0.5155350000000 1.0
C      1  0.4693340000000  0.4717290000000  0.5533180000000 1.0
C      1  0.4749900000000  0.5014650000000  0.5102600000000 1.0
C      1  0.5464830000000  0.5343670000000  0.5155480000000 1.0
C      1  0.4931670000000  0.4395080000000  0.5017950000000 1.0
C      1  0.5333360000000  0.5742590000000  0.5160450000000 1.0
C      1  0.4829290000000  0.4793800000000  0.5277950000000 1.0
C      1  0.4447290000000  0.4908350000000  0.5519720000000 1.0
C      1  0.5347990000000  0.4427930000000  0.5417680000000 1.0
C      1  0.5505160000000  0.4110590000000  0.4845910000000 1.0
C      1  0.5188970000000  0.5029810000000  0.4910210000000 1.0
C      1  0.4873940000000  0.5695230000000  0.4892090000000 1.0
C      1  0.4541850000000  0.4900530000000  0.4401810000000 1.0
C      1  0.4728740000000  0.4935690000000  0.4815760000000 1.0
C      1  0.5058860000000  0.5041750000000  0.4415350000000 1.0
C      1  0.5266830000000  0.5663280000000  0.5448780000000 1.0
C      1  0.4559350000000  0.5178790000000  0.4425530000000 1.0
C      1  0.4885750000000  0.4508260000000  0.4515690000000 1.0
C      1  0.4605100000000  0.4449270000000  0.5413890000000 1.0
C      1  0.4353730000000  0.4517990000000  0.5281430000000 1.0
C      1  0.5212130000000  0.4732990000000  0.4082590000000 1.0
C      1  0.4997040000000  0.5632890000000  0.5570910000000 1.0
C      1  0.4747340000000  0.5321090000000  0.5453270000000 1.0
C      1  0.5539150000000  0.4477500000000  0.5174520000000 1.0
C      1  0.4408660000000  0.4399170000000  0.5039680000000 1.0
C      1  0.4226560000000  0.5030170000000  0.5120480000000 1.0
C      1  0.4541530000000  0.5427140000000  0.4557120000000 1.0
C      1  0.4819030000000  0.4293500000000  0.5277440000000 1.0
C      1  0.4909390000000  0.4713660000000  0.4076560000000 1.0
C      1  0.5354150000000  0.5418940000000  0.5564460000000 1.0
C      1  0.5175500000000  0.5731810000000  0.4913130000000 1.0
C      1  0.4291490000000  0.5070760000000  0.4837230000000 1.0
C      1  0.4985730000000  0.4976720000000  0.4700810000000 1.0
END
