TITL C-884131-4643-166 18.1619380285022 125000 -29513.0758830452 0 0 197 (C1) n - 1
REM
REM in /home/nfs/bkarasulu/CARBON/AIRSS/Generating-Clusters/ReaxFF-fromJPCA2015/Units_Real/with-SteepDescent/Only-C1/SD-CG/Try1-3A/FIRE-CG
REM
REM
REM
REM
REM
REM ./C.cell (11c1c37f851c82e70ff6c80c92926a4b)
REM
REM compiler GCC version 9.2.1 20190827 (Red Hat 9.2.1-1)
REM options -cpp -mtune=generic -march=x86-64 -g -O0 -fpre-include=/usr/include/finclude/math-vector-fortran.h
REM seed 850754654 -769902114 1287771853 -810678962 1297672309 1334587335 -1435985592 1122156131 -863050898 -623701923 1710497914 1569769610 1682061113 159385806 -928192676 -654550977 -1048376676 -1621011428 263863137 514661212 434240616 216221764 -760040381 2071394841 -44868872 1652903994 -1086891726 137405719 -200602444 -328027821 -211611492 -865716348 501017423
REM
CELL 1.54180   50.00000   50.00000   50.00000   90.00000   90.00000   90.00000
LATT -1
SFAC C  
C      1  0.5565400000000  0.5062930000000  0.6089030000000 1.0
C      1  0.4821700000000  0.4880900000000  0.4245040000000 1.0
C      1  0.4075980000000  0.4839070000000  0.4570980000000 1.0
C      1  0.5172100000000  0.6020700000000  0.5488900000000 1.0
C      1  0.5989100000000  0.4406800000000  0.4990710000000 1.0
C      1  0.4611490000000  0.5061090000000  0.5986730000000 1.0
C      1  0.4404260000000  0.4091280000000  0.5193720000000 1.0
C      1  0.4804020000000  0.5337190000000  0.6050070000000 1.0
C      1  0.5818160000000  0.4355180000000  0.5500290000000 1.0
C      1  0.4743940000000  0.4138940000000  0.4250780000000 1.0
C      1  0.5541450000000  0.5958960000000  0.4562250000000 1.0
C      1  0.4745980000000  0.4447060000000  0.4807610000000 1.0
C      1  0.4982150000000  0.5102670000000  0.5635560000000 1.0
C      1  0.6115100000000  0.4811970000000  0.4730820000000 1.0
C      1  0.4740020000000  0.5483190000000  0.5382530000000 1.0
C      1  0.4121240000000  0.4477830000000  0.4358270000000 1.0
C      1  0.4405460000000  0.5268720000000  0.4464750000000 1.0
C      1  0.5195170000000  0.6172820000000  0.4848520000000 1.0
C      1  0.5127700000000  0.5335380000000  0.5240330000000 1.0
C      1  0.4923880000000  0.4331730000000  0.5605700000000 1.0
C      1  0.4357000000000  0.4049460000000  0.5468230000000 1.0
C      1  0.5651060000000  0.5931750000000  0.4827430000000 1.0
C      1  0.5199450000000  0.5643470000000  0.6043160000000 1.0
C      1  0.5195900000000  0.4072910000000  0.4204590000000 1.0
C      1  0.4678490000000  0.5237760000000  0.3944400000000 1.0
C      1  0.5607550000000  0.5795530000000  0.5396390000000 1.0
C      1  0.4901030000000  0.5264970000000  0.4483550000000 1.0
C      1  0.4915570000000  0.5259080000000  0.5414200000000 1.0
C      1  0.4664060000000  0.4521590000000  0.5922630000000 1.0
C      1  0.4202880000000  0.4589390000000  0.5602560000000 1.0
C      1  0.5739700000000  0.4767070000000  0.4156540000000 1.0
C      1  0.5284420000000  0.6104300000000  0.4575120000000 1.0
C      1  0.5753840000000  0.4954660000000  0.5883730000000 1.0
C      1  0.5107340000000  0.5920800000000  0.5747030000000 1.0
C      1  0.5368630000000  0.4933240000000  0.5325060000000 1.0
C      1  0.4844410000000  0.5057920000000  0.4872760000000 1.0
C      1  0.5417430000000  0.6006750000000  0.5327650000000 1.0
C      1  0.3992930000000  0.5491150000000  0.5345080000000 1.0
C      1  0.5776950000000  0.5134530000000  0.5613900000000 1.0
C      1  0.4659230000000  0.5926720000000  0.4317620000000 1.0
C      1  0.5241500000000  0.5064930000000  0.5751470000000 1.0
C      1  0.5682090000000  0.5266110000000  0.4221720000000 1.0
C      1  0.5047940000000  0.5059300000000  0.4327530000000 1.0
C      1  0.5098100000000  0.3875670000000  0.4394950000000 1.0
C      1  0.5512070000000  0.5175030000000  0.4718680000000 1.0
C      1  0.4908910000000  0.5910930000000  0.5374830000000 1.0
C      1  0.5475030000000  0.4804240000000  0.6153230000000 1.0
C      1  0.4680140000000  0.5273680000000  0.4931870000000 1.0
C      1  0.5127130000000  0.5045980000000  0.4889220000000 1.0
C      1  0.4404360000000  0.5950050000000  0.5056050000000 1.0
C      1  0.5698640000000  0.4691760000000  0.5820270000000 1.0
C      1  0.4594020000000  0.4764080000000  0.4381240000000 1.0
C      1  0.5250890000000  0.5265100000000  0.4706030000000 1.0
C      1  0.5085070000000  0.5375070000000  0.6104240000000 1.0
C      1  0.4965710000000  0.5795410000000  0.5952220000000 1.0
C      1  0.6066300000000  0.4808540000000  0.5271720000000 1.0
C      1  0.5597580000000  0.5128180000000  0.4984270000000 1.0
C      1  0.4930140000000  0.5677620000000  0.5190430000000 1.0
C      1  0.4263860000000  0.5666170000000  0.4437290000000 1.0
C      1  0.4499350000000  0.5188620000000  0.5733480000000 1.0
C      1  0.4780890000000  0.5036650000000  0.4620800000000 1.0
C      1  0.5673890000000  0.3928030000000  0.5238200000000 1.0
C      1  0.4774450000000  0.5736830000000  0.5568650000000 1.0
C      1  0.5249670000000  0.4684160000000  0.5347430000000 1.0
C      1  0.4935080000000  0.4266430000000  0.4675890000000 1.0
C      1  0.5134740000000  0.4720020000000  0.4823740000000 1.0
C      1  0.5620110000000  0.5625090000000  0.5687010000000 1.0
C      1  0.4428570000000  0.5147970000000  0.5020940000000 1.0
C      1  0.5400420000000  0.5985790000000  0.5026060000000 1.0
C      1  0.5463900000000  0.4868120000000  0.4072980000000 1.0
C      1  0.3959150000000  0.5344310000000  0.4814860000000 1.0
C      1  0.5464970000000  0.5169790000000  0.4050440000000 1.0
C      1  0.5570720000000  0.5740820000000  0.4360470000000 1.0
C      1  0.5234700000000  0.4772230000000  0.5819590000000 1.0
C      1  0.5888730000000  0.5509080000000  0.4644010000000 1.0
C      1  0.5832580000000  0.5714260000000  0.4865030000000 1.0
C      1  0.6037530000000  0.5025770000000  0.4546040000000 1.0
C      1  0.4058770000000  0.5505320000000  0.4529800000000 1.0
C      1  0.5673070000000  0.4701480000000  0.4730710000000 1.0
C      1  0.5904090000000  0.5500530000000  0.5314780000000 1.0
C      1  0.5197820000000  0.5262680000000  0.3961660000000 1.0
C      1  0.4149710000000  0.5807210000000  0.5026870000000 1.0
C      1  0.5449930000000  0.5589770000000  0.5241090000000 1.0
C      1  0.4574840000000  0.5977820000000  0.4589800000000 1.0
C      1  0.4928450000000  0.5690440000000  0.4017190000000 1.0
C      1  0.4235940000000  0.5212510000000  0.4228250000000 1.0
C      1  0.4436610000000  0.4424050000000  0.5714580000000 1.0
C      1  0.4457620000000  0.5718390000000  0.4650200000000 1.0
C      1  0.4396500000000  0.4094950000000  0.4602280000000 1.0
C      1  0.5110560000000  0.4621000000000  0.5595440000000 1.0
C      1  0.4943700000000  0.5111410000000  0.3901460000000 1.0
C      1  0.4370430000000  0.5727200000000  0.5224010000000 1.0
C      1  0.4299090000000  0.4936290000000  0.5998490000000 1.0
C      1  0.5657260000000  0.4841120000000  0.4976800000000 1.0
C      1  0.5308980000000  0.4094100000000  0.5580920000000 1.0
C      1  0.4674000000000  0.6022980000000  0.4874290000000 1.0
C      1  0.4713370000000  0.3867070000000  0.4945640000000 1.0
C      1  0.5385810000000  0.4281390000000  0.5787640000000 1.0
C      1  0.4435590000000  0.5646450000000  0.5901190000000 1.0
C      1  0.4657000000000  0.4777470000000  0.5438210000000 1.0
C      1  0.5741250000000  0.5505010000000  0.4391170000000 1.0
C      1  0.5648690000000  0.4672910000000  0.5210910000000 1.0
C      1  0.4647280000000  0.4430860000000  0.5483530000000 1.0
C      1  0.5185820000000  0.4367190000000  0.5975010000000 1.0
C      1  0.4543860000000  0.5640720000000  0.4248660000000 1.0
C      1  0.4737140000000  0.4798980000000  0.5922270000000 1.0
C      1  0.4432970000000  0.4992830000000  0.5524240000000 1.0
C      1  0.4923280000000  0.6209810000000  0.4913810000000 1.0
C      1  0.4917290000000  0.5931160000000  0.4193600000000 1.0
C      1  0.4124080000000  0.4945480000000  0.4280060000000 1.0
C      1  0.4302050000000  0.5413800000000  0.5775760000000 1.0
C      1  0.5451020000000  0.5121580000000  0.5524140000000 1.0
C      1  0.4236260000000  0.4489000000000  0.5214150000000 1.0
C      1  0.5652760000000  0.4432350000000  0.5726620000000 1.0
C      1  0.4459300000000  0.4626950000000  0.4156690000000 1.0
C      1  0.5325850000000  0.5688450000000  0.5001200000000 1.0
C      1  0.4550580000000  0.5896720000000  0.5595960000000 1.0
C      1  0.4211290000000  0.4258990000000  0.5053830000000 1.0
C      1  0.5344830000000  0.5256500000000  0.5981740000000 1.0
C      1  0.5968650000000  0.4564510000000  0.4749480000000 1.0
C      1  0.5833620000000  0.5723870000000  0.5158040000000 1.0
C      1  0.5352980000000  0.5384300000000  0.5411380000000 1.0
C      1  0.5632770000000  0.4013960000000  0.4956480000000 1.0
C      1  0.4229080000000  0.5335130000000  0.4688840000000 1.0
C      1  0.4330840000000  0.5206580000000  0.5287890000000 1.0
C      1  0.5287400000000  0.5102690000000  0.5123430000000 1.0
C      1  0.4340080000000  0.4104910000000  0.5737450000000 1.0
C      1  0.4246670000000  0.4314360000000  0.4766250000000 1.0
C      1  0.3935710000000  0.4814370000000  0.5207190000000 1.0
C      1  0.4225490000000  0.4856320000000  0.5732210000000 1.0
C      1  0.5522940000000  0.4467010000000  0.4706050000000 1.0
C      1  0.4806170000000  0.5740660000000  0.4938270000000 1.0
C      1  0.5894380000000  0.5235590000000  0.5158990000000 1.0
C      1  0.4413300000000  0.5111610000000  0.4009550000000 1.0
C      1  0.5812950000000  0.5018120000000  0.4337480000000 1.0
C      1  0.4473030000000  0.5458910000000  0.5282000000000 1.0
C      1  0.4687270000000  0.5525500000000  0.4005790000000 1.0
C      1  0.5154570000000  0.4670620000000  0.4529920000000 1.0
C      1  0.4649720000000  0.5404930000000  0.4405090000000 1.0
C      1  0.4468440000000  0.4165920000000  0.4328240000000 1.0
C      1  0.6170700000000  0.4910150000000  0.5014470000000 1.0
C      1  0.4050640000000  0.4541520000000  0.4612590000000 1.0
C      1  0.5817890000000  0.4219100000000  0.4913610000000 1.0
C      1  0.5915120000000  0.4535730000000  0.5285590000000 1.0
C      1  0.4830080000000  0.3993180000000  0.4492160000000 1.0
C      1  0.5536610000000  0.3954780000000  0.5478420000000 1.0
C      1  0.4596160000000  0.3909770000000  0.4691970000000 1.0
C      1  0.4899870000000  0.4347180000000  0.5902480000000 1.0
C      1  0.5249790000000  0.4645320000000  0.6077380000000 1.0
C      1  0.5432000000000  0.5541990000000  0.5886810000000 1.0
C      1  0.5580930000000  0.4341260000000  0.4450710000000 1.0
C      1  0.5285400000000  0.4669930000000  0.3893930000000 1.0
C      1  0.5778760000000  0.4084500000000  0.5446970000000 1.0
C      1  0.4427310000000  0.4658440000000  0.5058660000000 1.0
C      1  0.5152010000000  0.4189580000000  0.4902940000000 1.0
C      1  0.3911280000000  0.5013440000000  0.5089550000000 1.0
C      1  0.6122220000000  0.5191070000000  0.4969280000000 1.0
C      1  0.4684310000000  0.4743660000000  0.5157570000000 1.0
C      1  0.5950890000000  0.5040710000000  0.5387250000000 1.0
C      1  0.4033540000000  0.4598090000000  0.5355330000000 1.0
C      1  0.4864670000000  0.4845510000000  0.5638220000000 1.0
C      1  0.4967450000000  0.4150180000000  0.5195080000000 1.0
C      1  0.4149310000000  0.5580210000000  0.5590410000000 1.0
C      1  0.5141540000000  0.5678400000000  0.4514320000000 1.0
C      1  0.5031690000000  0.4561880000000  0.3956150000000 1.0
C      1  0.4842950000000  0.3893490000000  0.5171840000000 1.0
C      1  0.5410690000000  0.4507690000000  0.5189440000000 1.0
C      1  0.5323740000000  0.4451920000000  0.4912500000000 1.0
C      1  0.5181620000000  0.5546000000000  0.4025330000000 1.0
C      1  0.4651650000000  0.5551780000000  0.4807940000000 1.0
C      1  0.4285360000000  0.4844570000000  0.4050830000000 1.0
C      1  0.5349600000000  0.3897790000000  0.4554080000000 1.0
C      1  0.4893860000000  0.4825000000000  0.3957260000000 1.0
C      1  0.3997930000000  0.5561160000000  0.5064760000000 1.0
C      1  0.5312820000000  0.5632140000000  0.4278560000000 1.0
C      1  0.5554590000000  0.4960880000000  0.4545360000000 1.0
C      1  0.4382850000000  0.4901230000000  0.4902570000000 1.0
C      1  0.4720680000000  0.5596360000000  0.5978570000000 1.0
C      1  0.4309660000000  0.4372860000000  0.4181490000000 1.0
C      1  0.6057840000000  0.5275630000000  0.4692140000000 1.0
C      1  0.5060660000000  0.5956270000000  0.4452720000000 1.0
C      1  0.4472900000000  0.4513260000000  0.4791470000000 1.0
C      1  0.5223100000000  0.5551370000000  0.4768090000000 1.0
C      1  0.5357380000000  0.3994430000000  0.4829890000000 1.0
C      1  0.4986780000000  0.4313160000000  0.4176020000000 1.0
C      1  0.4296940000000  0.5827520000000  0.5694010000000 1.0
C      1  0.5045960000000  0.4101640000000  0.5460850000000 1.0
C      1  0.3959560000000  0.5054460000000  0.4811020000000 1.0
C      1  0.4863980000000  0.4668530000000  0.4945720000000 1.0
C      1  0.5810290000000  0.5438880000000  0.5590000000000 1.0
C      1  0.5682240000000  0.4536980000000  0.4278290000000 1.0
C      1  0.4402330000000  0.4796030000000  0.4631070000000 1.0
C      1  0.4020820000000  0.5206810000000  0.5289190000000 1.0
C      1  0.4652350000000  0.4243110000000  0.5255620000000 1.0
C      1  0.5297890000000  0.4890410000000  0.4376710000000 1.0
C      1  0.5037890000000  0.4436260000000  0.4448530000000 1.0
C      1  0.5451070000000  0.4086820000000  0.4344510000000 1.0
END
