TITL C-884129-4740-442 33.0830663435926 125000 -24716.6228832209 0 0 164 (C1) n - 1
REM
REM in /home/nfs/bkarasulu/CARBON/AIRSS/Generating-Clusters/ReaxFF-fromJPCA2015/Units_Real/with-SteepDescent/Only-C1/SD-CG/Try1-3A/FIRE-CG
REM
REM
REM
REM
REM
REM ./C.cell (11c1c37f851c82e70ff6c80c92926a4b)
REM
REM compiler GCC version 9.2.1 20190827 (Red Hat 9.2.1-1)
REM options -cpp -mtune=generic -march=x86-64 -g -O0 -fpre-include=/usr/include/finclude/math-vector-fortran.h
REM seed 1784876637 -264621470 -444700793 492780390 -1511800412 1158457534 -1670723853 2115253098 2007187409 -1083547898 -1649055074 -335713538 -187634077 583184456 -2085173327 1036137964 -1065129616 -1905753440 -607335666 476194115 1792999831 1755466590 -666366632 245626417 -1910027943 -817685972 -115944873 1760238974 -809144025 1602452347 -789845520 -1070061938 1566734838
REM
CELL 1.54180   50.00000   50.00000   50.00000   90.00000   90.00000   90.00000
LATT -1
SFAC C  
C      1  0.5114380000000  0.5723440000000  0.4220480000000 1.0
C      1  0.3938640000000  0.5115380000000  0.5329710000000 1.0
C      1  0.4099110000000  0.4289480000000  0.5278340000000 1.0
C      1  0.4424690000000  0.4380960000000  0.4446360000000 1.0
C      1  0.4574130000000  0.5238590000000  0.4798520000000 1.0
C      1  0.4843770000000  0.4911010000000  0.5528120000000 1.0
C      1  0.4228840000000  0.5536370000000  0.5158530000000 1.0
C      1  0.5055490000000  0.4039040000000  0.5543790000000 1.0
C      1  0.4929750000000  0.4709490000000  0.4057210000000 1.0
C      1  0.4999370000000  0.5475490000000  0.5197870000000 1.0
C      1  0.5960800000000  0.5048790000000  0.5333400000000 1.0
C      1  0.5816980000000  0.4738860000000  0.5656060000000 1.0
C      1  0.5255100000000  0.3988470000000  0.5333920000000 1.0
C      1  0.5799900000000  0.4266720000000  0.4901320000000 1.0
C      1  0.4568630000000  0.5718460000000  0.5331610000000 1.0
C      1  0.6015540000000  0.4455310000000  0.4979810000000 1.0
C      1  0.4923900000000  0.4643900000000  0.5593800000000 1.0
C      1  0.5455660000000  0.5451890000000  0.4160030000000 1.0
C      1  0.6000900000000  0.5247760000000  0.5127280000000 1.0
C      1  0.4799580000000  0.5037420000000  0.5275670000000 1.0
C      1  0.4477800000000  0.5310590000000  0.4131430000000 1.0
C      1  0.5792530000000  0.5127030000000  0.4340150000000 1.0
C      1  0.5138340000000  0.5401640000000  0.5421700000000 1.0
C      1  0.5487070000000  0.4589570000000  0.4657030000000 1.0
C      1  0.5286520000000  0.5908780000000  0.5362630000000 1.0
C      1  0.5708560000000  0.5178420000000  0.5753700000000 1.0
C      1  0.4820040000000  0.5554350000000  0.4555340000000 1.0
C      1  0.4212900000000  0.5335010000000  0.4309350000000 1.0
C      1  0.4212020000000  0.4510930000000  0.4584820000000 1.0
C      1  0.5177860000000  0.4485700000000  0.6021330000000 1.0
C      1  0.5576500000000  0.5645910000000  0.4335180000000 1.0
C      1  0.5219980000000  0.4433890000000  0.4276930000000 1.0
C      1  0.5805590000000  0.5667640000000  0.5027690000000 1.0
C      1  0.4329430000000  0.5453340000000  0.5678060000000 1.0
C      1  0.3964320000000  0.4845300000000  0.5241490000000 1.0
C      1  0.4801480000000  0.6094580000000  0.4629250000000 1.0
C      1  0.4059900000000  0.4348100000000  0.4993960000000 1.0
C      1  0.4416930000000  0.5020910000000  0.5875100000000 1.0
C      1  0.5311700000000  0.5102370000000  0.5116190000000 1.0
C      1  0.5072710000000  0.4409010000000  0.5183950000000 1.0
C      1  0.5597610000000  0.5206320000000  0.4131370000000 1.0
C      1  0.4939850000000  0.4568420000000  0.5866860000000 1.0
C      1  0.6122420000000  0.4668720000000  0.4774430000000 1.0
C      1  0.4422740000000  0.4761050000000  0.4116300000000 1.0
C      1  0.4643310000000  0.6052230000000  0.4871990000000 1.0
C      1  0.4630390000000  0.5201930000000  0.5956550000000 1.0
C      1  0.4341520000000  0.4331970000000  0.5096870000000 1.0
C      1  0.4935810000000  0.3927510000000  0.4894150000000 1.0
C      1  0.5508910000000  0.5902780000000  0.4849710000000 1.0
C      1  0.4418060000000  0.4815730000000  0.4408680000000 1.0
C      1  0.4995230000000  0.5930260000000  0.5308660000000 1.0
C      1  0.4608980000000  0.5511520000000  0.4746890000000 1.0
C      1  0.4300270000000  0.5790490000000  0.4537630000000 1.0
C      1  0.4562440000000  0.4986120000000  0.3993180000000 1.0
C      1  0.5284320000000  0.5842960000000  0.4669710000000 1.0
C      1  0.4788430000000  0.5828160000000  0.5496590000000 1.0
C      1  0.5915630000000  0.5018520000000  0.5623520000000 1.0
C      1  0.4539820000000  0.4775670000000  0.5474380000000 1.0
C      1  0.4971230000000  0.4286970000000  0.5959720000000 1.0
C      1  0.4791680000000  0.4173100000000  0.5498360000000 1.0
C      1  0.4327710000000  0.4899780000000  0.4895700000000 1.0
C      1  0.4398250000000  0.5895990000000  0.4800010000000 1.0
C      1  0.5515080000000  0.4887540000000  0.4739600000000 1.0
C      1  0.4672600000000  0.4048070000000  0.4896000000000 1.0
C      1  0.4856880000000  0.4916400000000  0.5029440000000 1.0
C      1  0.4158340000000  0.5533540000000  0.4506150000000 1.0
C      1  0.5975400000000  0.4583670000000  0.5234560000000 1.0
C      1  0.4048780000000  0.4572520000000  0.4809550000000 1.0
C      1  0.5460640000000  0.5056530000000  0.5621280000000 1.0
C      1  0.5160200000000  0.4126600000000  0.5805280000000 1.0
C      1  0.5587280000000  0.5505280000000  0.5353400000000 1.0
C      1  0.4507650000000  0.4482590000000  0.4183000000000 1.0
C      1  0.5235910000000  0.5020280000000  0.5803540000000 1.0
C      1  0.5037250000000  0.5433570000000  0.5686410000000 1.0
C      1  0.4503470000000  0.4075730000000  0.5122540000000 1.0
C      1  0.4552640000000  0.4584550000000  0.5251470000000 1.0
C      1  0.4477400000000  0.5835930000000  0.4297750000000 1.0
C      1  0.5854240000000  0.4830150000000  0.4320470000000 1.0
C      1  0.5344490000000  0.5834540000000  0.5087780000000 1.0
C      1  0.5415170000000  0.4784400000000  0.4074650000000 1.0
C      1  0.5864910000000  0.5295990000000  0.4561950000000 1.0
C      1  0.4310850000000  0.5608940000000  0.5426340000000 1.0
C      1  0.4585650000000  0.5462320000000  0.5815120000000 1.0
C      1  0.5285170000000  0.4845060000000  0.5178620000000 1.0
C      1  0.5156550000000  0.5150230000000  0.4509080000000 1.0
C      1  0.5492030000000  0.5648560000000  0.5792690000000 1.0
C      1  0.4859280000000  0.4882020000000  0.4599490000000 1.0
C      1  0.5311850000000  0.4106730000000  0.4809590000000 1.0
C      1  0.5144730000000  0.4863670000000  0.4552700000000 1.0
C      1  0.4517720000000  0.4129320000000  0.5417060000000 1.0
C      1  0.5379080000000  0.5266580000000  0.5359580000000 1.0
C      1  0.4723790000000  0.5981950000000  0.4371210000000 1.0
C      1  0.5189350000000  0.5119770000000  0.6070490000000 1.0
C      1  0.4900680000000  0.5996440000000  0.5025530000000 1.0
C      1  0.4834750000000  0.4452320000000  0.5387980000000 1.0
C      1  0.5624860000000  0.5403460000000  0.5916070000000 1.0
C      1  0.4500760000000  0.5610060000000  0.4110870000000 1.0
C      1  0.4884850000000  0.4158930000000  0.4485160000000 1.0
C      1  0.5635230000000  0.4393520000000  0.5773390000000 1.0
C      1  0.5338350000000  0.5806980000000  0.4384790000000 1.0
C      1  0.4427990000000  0.4751570000000  0.5733120000000 1.0
C      1  0.5003890000000  0.4463720000000  0.4899510000000 1.0
C      1  0.5936830000000  0.4505240000000  0.5516980000000 1.0
C      1  0.5763700000000  0.5762130000000  0.4772490000000 1.0
C      1  0.5076330000000  0.4020280000000  0.4651220000000 1.0
C      1  0.4011560000000  0.5040110000000  0.5603170000000 1.0
C      1  0.5334060000000  0.4401400000000  0.5309950000000 1.0
C      1  0.5737810000000  0.4193250000000  0.5155940000000 1.0
C      1  0.5098690000000  0.5170070000000  0.3955810000000 1.0
C      1  0.4041180000000  0.4850550000000  0.4964570000000 1.0
C      1  0.5388610000000  0.4320440000000  0.5888930000000 1.0
C      1  0.4645990000000  0.4249050000000  0.4638280000000 1.0
C      1  0.4805450000000  0.5069980000000  0.4801140000000 1.0
C      1  0.4880500000000  0.5758290000000  0.4371930000000 1.0
C      1  0.5047820000000  0.6006690000000  0.4772280000000 1.0
C      1  0.4016420000000  0.5326090000000  0.5138160000000 1.0
C      1  0.4277480000000  0.4294170000000  0.5506170000000 1.0
C      1  0.6105000000000  0.4946350000000  0.4851700000000 1.0
C      1  0.5388010000000  0.5053590000000  0.3989730000000 1.0
C      1  0.5491330000000  0.4467540000000  0.4387230000000 1.0
C      1  0.4233950000000  0.4914430000000  0.4604010000000 1.0
C      1  0.5769770000000  0.5563880000000  0.4541040000000 1.0
C      1  0.5365340000000  0.5356920000000  0.6069990000000 1.0
C      1  0.5631350000000  0.4659960000000  0.4211380000000 1.0
C      1  0.5513580000000  0.4323780000000  0.4778120000000 1.0
C      1  0.5143910000000  0.4913100000000  0.4952460000000 1.0
C      1  0.4895230000000  0.5098190000000  0.6018820000000 1.0
C      1  0.4403640000000  0.5157920000000  0.5014290000000 1.0
C      1  0.4712130000000  0.5208030000000  0.4298540000000 1.0
C      1  0.4398900000000  0.5633100000000  0.4919540000000 1.0
C      1  0.5155080000000  0.5445450000000  0.4134220000000 1.0
C      1  0.5389710000000  0.4670490000000  0.5372170000000 1.0
C      1  0.4708560000000  0.5487520000000  0.5213040000000 1.0
C      1  0.4789430000000  0.4465570000000  0.4120800000000 1.0
C      1  0.4218280000000  0.5190080000000  0.5748960000000 1.0
C      1  0.5314020000000  0.5449210000000  0.4789030000000 1.0
C      1  0.4035540000000  0.4755560000000  0.5511430000000 1.0
C      1  0.4581300000000  0.5222600000000  0.5234060000000 1.0
C      1  0.5860920000000  0.5496100000000  0.5236200000000 1.0
C      1  0.3978010000000  0.5315970000000  0.4659930000000 1.0
C      1  0.6000560000000  0.4718200000000  0.4528680000000 1.0
C      1  0.4848560000000  0.4965680000000  0.3960740000000 1.0
C      1  0.5239860000000  0.5555240000000  0.5899570000000 1.0
C      1  0.4972530000000  0.5094470000000  0.5736210000000 1.0
C      1  0.4076030000000  0.5121070000000  0.4464230000000 1.0
C      1  0.5186640000000  0.5589110000000  0.4994610000000 1.0
C      1  0.5569790000000  0.4806800000000  0.5531150000000 1.0
C      1  0.4802190000000  0.5622100000000  0.5702790000000 1.0
C      1  0.5379450000000  0.5198030000000  0.4666650000000 1.0
C      1  0.4595010000000  0.4695150000000  0.4976360000000 1.0
C      1  0.5769080000000  0.4267140000000  0.5564750000000 1.0
C      1  0.5538800000000  0.4151600000000  0.5358010000000 1.0
C      1  0.5799270000000  0.4826950000000  0.5204220000000 1.0
C      1  0.4671600000000  0.4953390000000  0.4404500000000 1.0
C      1  0.4951060000000  0.5341470000000  0.4395790000000 1.0
C      1  0.3970800000000  0.5169620000000  0.4903200000000 1.0
C      1  0.4729880000000  0.4504750000000  0.4793640000000 1.0
C      1  0.5165080000000  0.4709200000000  0.4238880000000 1.0
C      1  0.4219840000000  0.4559540000000  0.5634930000000 1.0
C      1  0.5649260000000  0.4858930000000  0.4958970000000 1.0
C      1  0.6009020000000  0.5196280000000  0.4829660000000 1.0
C      1  0.4975910000000  0.4301470000000  0.4266860000000 1.0
C      1  0.5483740000000  0.5730690000000  0.5506010000000 1.0
C      1  0.5192950000000  0.3973950000000  0.5054290000000 1.0
END
