TITL C-884128-4793-91 11.5905271785283 125000 -18067.9877028524 0 0 121 (C1) n - 1
REM
REM in /home/nfs/bkarasulu/CARBON/AIRSS/Generating-Clusters/ReaxFF-fromJPCA2015/Units_Real/with-SteepDescent/Only-C1/SD-CG/Try1-3A/FIRE-CG
REM
REM
REM
REM
REM
REM ./C.cell (11c1c37f851c82e70ff6c80c92926a4b)
REM
REM compiler GCC version 9.2.1 20190827 (Red Hat 9.2.1-1)
REM options -cpp -mtune=generic -march=x86-64 -g -O0 -fpre-include=/usr/include/finclude/math-vector-fortran.h
REM seed -570424768 970425809 1281733279 -677421763 1934199677 417871490 2006827569 -1362314260 -1718995255 674371306 1230868623 -2094225802 738360636 -1979156899 1498204300 -544849342 232785759 1244089855 -29723567 1448763890 1561832374 1584466275 2023861760 -320457034 -546033789 2013805732 -533337013 814225524 1520769346 70193944 75162349 -70777066 -1868674939
REM
CELL 1.54180   50.00000   50.00000   50.00000   90.00000   90.00000   90.00000
LATT -1
SFAC C  
C      1  0.5358880000000  0.4770930000000  0.4859560000000 1.0
C      1  0.4928970000000  0.4804420000000  0.4838700000000 1.0
C      1  0.5811310000000  0.5358210000000  0.5205350000000 1.0
C      1  0.5656170000000  0.5564040000000  0.5306500000000 1.0
C      1  0.4719160000000  0.5243820000000  0.5978250000000 1.0
C      1  0.5017850000000  0.4555940000000  0.4949600000000 1.0
C      1  0.4863690000000  0.4879780000000  0.4001340000000 1.0
C      1  0.4540570000000  0.4775690000000  0.4496330000000 1.0
C      1  0.5458940000000  0.4510200000000  0.4310700000000 1.0
C      1  0.4763130000000  0.4475480000000  0.5045980000000 1.0
C      1  0.4490890000000  0.4472440000000  0.5426890000000 1.0
C      1  0.5350380000000  0.5003740000000  0.4134420000000 1.0
C      1  0.4387330000000  0.5542730000000  0.5501060000000 1.0
C      1  0.5208230000000  0.4746540000000  0.5968790000000 1.0
C      1  0.5958810000000  0.5116210000000  0.5141760000000 1.0
C      1  0.4464720000000  0.5150030000000  0.5845870000000 1.0
C      1  0.5203210000000  0.5293630000000  0.5557900000000 1.0
C      1  0.4932200000000  0.4760460000000  0.6014700000000 1.0
C      1  0.5609190000000  0.4885880000000  0.5616970000000 1.0
C      1  0.5181480000000  0.4161180000000  0.4833560000000 1.0
C      1  0.4813550000000  0.4833870000000  0.4579250000000 1.0
C      1  0.5233860000000  0.4307800000000  0.4328480000000 1.0
C      1  0.5014290000000  0.5026490000000  0.4515330000000 1.0
C      1  0.5550150000000  0.4550990000000  0.4867010000000 1.0
C      1  0.5138510000000  0.5750150000000  0.4760000000000 1.0
C      1  0.4930160000000  0.4618010000000  0.4071100000000 1.0
C      1  0.4499890000000  0.4547070000000  0.4303990000000 1.0
C      1  0.5735860000000  0.5494240000000  0.4812150000000 1.0
C      1  0.5358650000000  0.4923080000000  0.5146680000000 1.0
C      1  0.5253820000000  0.4873500000000  0.4605540000000 1.0
C      1  0.4521720000000  0.5210580000000  0.4234120000000 1.0
C      1  0.5441270000000  0.5193220000000  0.5069070000000 1.0
C      1  0.5889990000000  0.4811650000000  0.4456690000000 1.0
C      1  0.4887550000000  0.5680630000000  0.5695020000000 1.0
C      1  0.5339850000000  0.4265680000000  0.5216030000000 1.0
C      1  0.4655250000000  0.4220590000000  0.5386600000000 1.0
C      1  0.4999700000000  0.4355650000000  0.4148860000000 1.0
C      1  0.5214870000000  0.5162930000000  0.6085110000000 1.0
C      1  0.4129150000000  0.4946160000000  0.5268230000000 1.0
C      1  0.5952130000000  0.5360000000000  0.4815760000000 1.0
C      1  0.5596790000000  0.4827650000000  0.5334540000000 1.0
C      1  0.4238380000000  0.5193390000000  0.5166340000000 1.0
C      1  0.4862990000000  0.5832420000000  0.4676930000000 1.0
C      1  0.5344970000000  0.5547790000000  0.5669070000000 1.0
C      1  0.5713200000000  0.4596950000000  0.4381960000000 1.0
C      1  0.4193910000000  0.5237930000000  0.4877140000000 1.0
C      1  0.4796960000000  0.5943320000000  0.5070590000000 1.0
C      1  0.4332180000000  0.5454240000000  0.4534810000000 1.0
C      1  0.4815470000000  0.5036120000000  0.4974820000000 1.0
C      1  0.4270780000000  0.4469300000000  0.5192170000000 1.0
C      1  0.4384200000000  0.5706340000000  0.4966970000000 1.0
C      1  0.4383720000000  0.4879550000000  0.5745020000000 1.0
C      1  0.4794020000000  0.4147230000000  0.4222250000000 1.0
C      1  0.4386550000000  0.4315920000000  0.4985560000000 1.0
C      1  0.5814090000000  0.4687960000000  0.4930370000000 1.0
C      1  0.4914830000000  0.4196430000000  0.5492190000000 1.0
C      1  0.4207000000000  0.5017460000000  0.5544530000000 1.0
C      1  0.4722770000000  0.5287990000000  0.5409940000000 1.0
C      1  0.5129140000000  0.4150670000000  0.4542970000000 1.0
C      1  0.5437960000000  0.4281840000000  0.4941710000000 1.0
C      1  0.5356690000000  0.5149910000000  0.5818870000000 1.0
C      1  0.4685530000000  0.5569050000000  0.5490780000000 1.0
C      1  0.4438550000000  0.4807730000000  0.4237960000000 1.0
C      1  0.5238670000000  0.5881060000000  0.5350960000000 1.0
C      1  0.5099750000000  0.4096280000000  0.5281460000000 1.0
C      1  0.5624000000000  0.5167990000000  0.5698300000000 1.0
C      1  0.5205720000000  0.4526310000000  0.5178780000000 1.0
C      1  0.5079400000000  0.5082440000000  0.4056280000000 1.0
C      1  0.4230300000000  0.5516960000000  0.4796600000000 1.0
C      1  0.4962790000000  0.5137490000000  0.5486680000000 1.0
C      1  0.5157830000000  0.5482700000000  0.4652390000000 1.0
C      1  0.4825680000000  0.5474980000000  0.5867400000000 1.0
C      1  0.5166680000000  0.5763520000000  0.5614560000000 1.0
C      1  0.4934030000000  0.5053500000000  0.6080030000000 1.0
C      1  0.5607030000000  0.5444840000000  0.5577990000000 1.0
C      1  0.5554580000000  0.5288950000000  0.4816410000000 1.0
C      1  0.5099200000000  0.4918160000000  0.5351760000000 1.0
C      1  0.5511840000000  0.5188330000000  0.4296530000000 1.0
C      1  0.6023980000000  0.5112960000000  0.4859230000000 1.0
C      1  0.5076790000000  0.4648490000000  0.5408000000000 1.0
C      1  0.5008790000000  0.4443270000000  0.5646730000000 1.0
C      1  0.5021560000000  0.5267730000000  0.5092930000000 1.0
C      1  0.5323500000000  0.4419840000000  0.5743520000000 1.0
C      1  0.5452150000000  0.5768930000000  0.5182460000000 1.0
C      1  0.4870060000000  0.4031890000000  0.4466260000000 1.0
C      1  0.4631470000000  0.5862910000000  0.4869470000000 1.0
C      1  0.4706850000000  0.5278340000000  0.4810020000000 1.0
C      1  0.4180630000000  0.4720920000000  0.5081380000000 1.0
C      1  0.4510680000000  0.5144170000000  0.5286050000000 1.0
C      1  0.4345870000000  0.4459600000000  0.4741890000000 1.0
C      1  0.4915000000000  0.5708880000000  0.4414240000000 1.0
C      1  0.5836750000000  0.4835320000000  0.5177940000000 1.0
C      1  0.4647550000000  0.4649310000000  0.5229290000000 1.0
C      1  0.5195790000000  0.5744510000000  0.4341460000000 1.0
C      1  0.5461250000000  0.5660210000000  0.4454550000000 1.0
C      1  0.4539500000000  0.4638650000000  0.5697240000000 1.0
C      1  0.4622030000000  0.5419440000000  0.4576620000000 1.0
C      1  0.4363570000000  0.5628480000000  0.5235990000000 1.0
C      1  0.5404140000000  0.5816310000000  0.4901740000000 1.0
C      1  0.4262220000000  0.4750840000000  0.4793230000000 1.0
C      1  0.5350410000000  0.4791410000000  0.4347370000000 1.0
C      1  0.4678390000000  0.4189290000000  0.5088270000000 1.0
C      1  0.5718640000000  0.5012300000000  0.4341950000000 1.0
C      1  0.4305880000000  0.5183320000000  0.4431010000000 1.0
C      1  0.4975330000000  0.4083240000000  0.5026290000000 1.0
C      1  0.4240730000000  0.5026060000000  0.4681640000000 1.0
C      1  0.4607100000000  0.4117600000000  0.4429150000000 1.0
C      1  0.4587100000000  0.4980940000000  0.4080980000000 1.0
C      1  0.4792610000000  0.4595440000000  0.5810640000000 1.0
C      1  0.4998080000000  0.5932770000000  0.5214820000000 1.0
C      1  0.5411830000000  0.5365700000000  0.4554980000000 1.0
C      1  0.5596160000000  0.5730270000000  0.4702820000000 1.0
C      1  0.5435780000000  0.4678730000000  0.5805670000000 1.0
C      1  0.5948670000000  0.4864180000000  0.4748060000000 1.0
C      1  0.4970460000000  0.5385840000000  0.4846330000000 1.0
C      1  0.4646450000000  0.4918040000000  0.5179460000000 1.0
C      1  0.4444380000000  0.4341570000000  0.4493680000000 1.0
C      1  0.4763980000000  0.5412340000000  0.4309690000000 1.0
C      1  0.5250560000000  0.5314470000000  0.5245250000000 1.0
C      1  0.4302230000000  0.5281470000000  0.5644090000000 1.0
C      1  0.4991590000000  0.5219700000000  0.4294720000000 1.0
END
