TITL C-883735-9890-121 29.8216147197297 125000 -27908.3957966142 0 0 185 (C1) n - 1
REM
REM in /home/nfs/bkarasulu/CARBON/AIRSS/Generating-Clusters/ReaxFF-fromJPCA2015/Units_Real/with-SteepDescent/Only-C1/SD-CG/Try1-3A/FIRE-CG
REM
REM
REM
REM
REM
REM ./C.cell (11c1c37f851c82e70ff6c80c92926a4b)
REM
REM compiler GCC version 9.2.1 20190827 (Red Hat 9.2.1-1)
REM options -cpp -mtune=generic -march=x86-64 -g -O0 -fpre-include=/usr/include/finclude/math-vector-fortran.h
REM seed 559744776 23176294 1256607990 1260149931 -1139767725 -1037323408 -547556418 1418622857 -1081793327 14733657 -217630907 -84365123 -303569468 -1460774746 1619642062 259601305 -1923937985 -1790749647 1759952128 -249681094 -971455431 117355243 -483667266 780232681 -1758388125 -499321241 546736663 -634658816 1273521443 924037456 1085902651 -1216456635 -1471747446
REM
CELL 1.54180   50.00000   50.00000   50.00000   90.00000   90.00000   90.00000
LATT -1
SFAC C  
C      1  0.4928050000000  0.4877170000000  0.4602620000000 1.0
C      1  0.5771680000000  0.5579270000000  0.4323670000000 1.0
C      1  0.4621750000000  0.5278270000000  0.4809210000000 1.0
C      1  0.5074790000000  0.5534240000000  0.6064020000000 1.0
C      1  0.5765910000000  0.5731300000000  0.4825680000000 1.0
C      1  0.5121340000000  0.5011930000000  0.4433730000000 1.0
C      1  0.5310120000000  0.5217490000000  0.5658240000000 1.0
C      1  0.5397840000000  0.4813410000000  0.5777320000000 1.0
C      1  0.6058960000000  0.4916880000000  0.4913380000000 1.0
C      1  0.3969980000000  0.5336860000000  0.5333330000000 1.0
C      1  0.4723720000000  0.5241070000000  0.6152760000000 1.0
C      1  0.5019280000000  0.5615900000000  0.5097130000000 1.0
C      1  0.5029230000000  0.5181510000000  0.5694370000000 1.0
C      1  0.4042630000000  0.5215700000000  0.5563180000000 1.0
C      1  0.4439660000000  0.4176510000000  0.5457140000000 1.0
C      1  0.4666050000000  0.4380990000000  0.5863950000000 1.0
C      1  0.5401990000000  0.4511990000000  0.5791200000000 1.0
C      1  0.4783630000000  0.5562240000000  0.4282240000000 1.0
C      1  0.5612580000000  0.5594350000000  0.5400490000000 1.0
C      1  0.4054720000000  0.4752590000000  0.4353580000000 1.0
C      1  0.4418160000000  0.4334690000000  0.5709030000000 1.0
C      1  0.4562910000000  0.4646940000000  0.5238150000000 1.0
C      1  0.4852120000000  0.4446890000000  0.4803790000000 1.0
C      1  0.4858280000000  0.4512910000000  0.4106040000000 1.0
C      1  0.4263650000000  0.5195060000000  0.4339140000000 1.0
C      1  0.5588530000000  0.5794640000000  0.4305970000000 1.0
C      1  0.5787290000000  0.4430720000000  0.5217290000000 1.0
C      1  0.5891500000000  0.4597530000000  0.5485120000000 1.0
C      1  0.4579780000000  0.4444550000000  0.4717440000000 1.0
C      1  0.4662320000000  0.5846350000000  0.4616270000000 1.0
C      1  0.5151940000000  0.4441870000000  0.4006310000000 1.0
C      1  0.5486750000000  0.5398720000000  0.5227430000000 1.0
C      1  0.4124580000000  0.4514780000000  0.4511780000000 1.0
C      1  0.4894020000000  0.5810980000000  0.5692580000000 1.0
C      1  0.6035510000000  0.5305270000000  0.5322020000000 1.0
C      1  0.5332240000000  0.4915890000000  0.4037570000000 1.0
C      1  0.4197250000000  0.4769110000000  0.5829070000000 1.0
C      1  0.5100510000000  0.5066520000000  0.3926000000000 1.0
C      1  0.5189880000000  0.5382090000000  0.5164440000000 1.0
C      1  0.4931080000000  0.4803210000000  0.6075410000000 1.0
C      1  0.4133010000000  0.5062040000000  0.5773590000000 1.0
C      1  0.4966690000000  0.5076690000000  0.6177210000000 1.0
C      1  0.5139160000000  0.5743560000000  0.5849240000000 1.0
C      1  0.4623910000000  0.3970530000000  0.4806570000000 1.0
C      1  0.4606050000000  0.6128360000000  0.5084460000000 1.0
C      1  0.5184430000000  0.5271230000000  0.6117100000000 1.0
C      1  0.4119660000000  0.4843080000000  0.5367660000000 1.0
C      1  0.4999430000000  0.4625890000000  0.5447560000000 1.0
C      1  0.4852720000000  0.5201290000000  0.5464090000000 1.0
C      1  0.4507270000000  0.5312880000000  0.5086910000000 1.0
C      1  0.5061050000000  0.4894120000000  0.5813780000000 1.0
C      1  0.4383860000000  0.5947780000000  0.4996560000000 1.0
C      1  0.4904560000000  0.4457480000000  0.5033200000000 1.0
C      1  0.4855260000000  0.4169190000000  0.4405530000000 1.0
C      1  0.5866720000000  0.4863140000000  0.5479970000000 1.0
C      1  0.4032180000000  0.5033150000000  0.4448740000000 1.0
C      1  0.4586160000000  0.5183090000000  0.3997160000000 1.0
C      1  0.5782180000000  0.4629820000000  0.4387750000000 1.0
C      1  0.5116460000000  0.4155800000000  0.5675610000000 1.0
C      1  0.5337670000000  0.5770700000000  0.5660130000000 1.0
C      1  0.5679510000000  0.4930380000000  0.4748400000000 1.0
C      1  0.5187110000000  0.5618120000000  0.4613020000000 1.0
C      1  0.4213430000000  0.4272810000000  0.4966520000000 1.0
C      1  0.3950160000000  0.4642580000000  0.5255090000000 1.0
C      1  0.5390770000000  0.5421550000000  0.4666010000000 1.0
C      1  0.5945790000000  0.5255790000000  0.4478960000000 1.0
C      1  0.4690900000000  0.5619980000000  0.5791930000000 1.0
C      1  0.4402500000000  0.5650200000000  0.4163330000000 1.0
C      1  0.5579570000000  0.5964850000000  0.4774680000000 1.0
C      1  0.4750140000000  0.3956430000000  0.5053050000000 1.0
C      1  0.4612780000000  0.5473900000000  0.4057340000000 1.0
C      1  0.5919180000000  0.5585170000000  0.5336940000000 1.0
C      1  0.4277180000000  0.4757540000000  0.4162090000000 1.0
C      1  0.4029090000000  0.5524810000000  0.4958780000000 1.0
C      1  0.4866420000000  0.3992780000000  0.4644090000000 1.0
C      1  0.5191250000000  0.5266520000000  0.4848970000000 1.0
C      1  0.4884190000000  0.5133800000000  0.4805920000000 1.0
C      1  0.6006220000000  0.4371360000000  0.5018250000000 1.0
C      1  0.5551860000000  0.4426130000000  0.5027580000000 1.0
C      1  0.5593180000000  0.5006430000000  0.5891240000000 1.0
C      1  0.5944770000000  0.5254400000000  0.5579820000000 1.0
C      1  0.5351780000000  0.3859930000000  0.4554800000000 1.0
C      1  0.5039840000000  0.5670360000000  0.4356730000000 1.0
C      1  0.4392200000000  0.4525490000000  0.4327250000000 1.0
C      1  0.5121330000000  0.5331980000000  0.4039120000000 1.0
C      1  0.5581850000000  0.4806760000000  0.4492760000000 1.0
C      1  0.5274060000000  0.4610760000000  0.4802180000000 1.0
C      1  0.4665780000000  0.4859820000000  0.4455590000000 1.0
C      1  0.5034970000000  0.5245690000000  0.4317430000000 1.0
C      1  0.5385600000000  0.4171460000000  0.4534380000000 1.0
C      1  0.4577800000000  0.4830810000000  0.5655760000000 1.0
C      1  0.4725940000000  0.5655910000000  0.5109380000000 1.0
C      1  0.5219260000000  0.3974430000000  0.5227550000000 1.0
C      1  0.4706470000000  0.4057150000000  0.5469460000000 1.0
C      1  0.4065130000000  0.4433310000000  0.5424140000000 1.0
C      1  0.5347700000000  0.5972360000000  0.4953240000000 1.0
C      1  0.4181290000000  0.5488340000000  0.4264930000000 1.0
C      1  0.5319350000000  0.6029380000000  0.5235040000000 1.0
C      1  0.5139910000000  0.5763240000000  0.4871220000000 1.0
C      1  0.4684740000000  0.4362180000000  0.4268580000000 1.0
C      1  0.3925660000000  0.4680060000000  0.4959310000000 1.0
C      1  0.4572950000000  0.4875200000000  0.5061290000000 1.0
C      1  0.5900460000000  0.4464660000000  0.4613630000000 1.0
C      1  0.5469980000000  0.5857490000000  0.5442950000000 1.0
C      1  0.4171880000000  0.5634930000000  0.4511780000000 1.0
C      1  0.5378220000000  0.5781980000000  0.4108700000000 1.0
C      1  0.4756810000000  0.4776920000000  0.4161180000000 1.0
C      1  0.5152890000000  0.4233370000000  0.4356570000000 1.0
C      1  0.5403650000000  0.4961970000000  0.5479160000000 1.0
C      1  0.5156300000000  0.6042850000000  0.4495590000000 1.0
C      1  0.4539210000000  0.5755400000000  0.5332160000000 1.0
C      1  0.5395670000000  0.4363240000000  0.4812620000000 1.0
C      1  0.4903160000000  0.6027720000000  0.4680630000000 1.0
C      1  0.5443770000000  0.5976070000000  0.4523430000000 1.0
C      1  0.4820550000000  0.4168700000000  0.5714780000000 1.0
C      1  0.5643080000000  0.4950710000000  0.5299750000000 1.0
C      1  0.4347110000000  0.5263850000000  0.5843140000000 1.0
C      1  0.4399550000000  0.4772960000000  0.5439670000000 1.0
C      1  0.5953480000000  0.5036110000000  0.4661650000000 1.0
C      1  0.4355720000000  0.5070870000000  0.5056150000000 1.0
C      1  0.5761810000000  0.4150100000000  0.5399120000000 1.0
C      1  0.4903390000000  0.3949530000000  0.5261400000000 1.0
C      1  0.5135080000000  0.3888840000000  0.4760650000000 1.0
C      1  0.4854670000000  0.4784000000000  0.5637200000000 1.0
C      1  0.4356140000000  0.5032040000000  0.4101930000000 1.0
C      1  0.5679780000000  0.5269240000000  0.5035600000000 1.0
C      1  0.5802340000000  0.4511500000000  0.5679890000000 1.0
C      1  0.5012650000000  0.5092590000000  0.5245790000000 1.0
C      1  0.5171680000000  0.4433880000000  0.5638030000000 1.0
C      1  0.4809880000000  0.4516700000000  0.5266870000000 1.0
C      1  0.5951650000000  0.5140300000000  0.5080690000000 1.0
C      1  0.4553840000000  0.5171120000000  0.4534110000000 1.0
C      1  0.4271600000000  0.5800250000000  0.5226050000000 1.0
C      1  0.5899960000000  0.5349430000000  0.4225850000000 1.0
C      1  0.4023990000000  0.5450580000000  0.4711470000000 1.0
C      1  0.5341250000000  0.4790850000000  0.5025770000000 1.0
C      1  0.5264210000000  0.5035250000000  0.4934860000000 1.0
C      1  0.4487970000000  0.5120040000000  0.6046000000000 1.0
C      1  0.5537830000000  0.5319380000000  0.3958610000000 1.0
C      1  0.4706350000000  0.4624330000000  0.6024910000000 1.0
C      1  0.5873790000000  0.5686640000000  0.5078150000000 1.0
C      1  0.5624130000000  0.4903390000000  0.3987080000000 1.0
C      1  0.4468320000000  0.4819030000000  0.5960910000000 1.0
C      1  0.4039790000000  0.5607680000000  0.5214740000000 1.0
C      1  0.4075160000000  0.4481260000000  0.4800290000000 1.0
C      1  0.5181350000000  0.4853600000000  0.5310590000000 1.0
C      1  0.5313250000000  0.4023060000000  0.5494590000000 1.0
C      1  0.5620060000000  0.4313640000000  0.5760850000000 1.0
C      1  0.5651050000000  0.4033080000000  0.4854910000000 1.0
C      1  0.5432640000000  0.4478200000000  0.4047370000000 1.0
C      1  0.5680640000000  0.4634260000000  0.4113430000000 1.0
C      1  0.5414300000000  0.5235510000000  0.5929610000000 1.0
C      1  0.4621010000000  0.6038780000000  0.5364690000000 1.0
C      1  0.5844990000000  0.5042730000000  0.5731420000000 1.0
C      1  0.5036720000000  0.6072670000000  0.5226020000000 1.0
C      1  0.4231940000000  0.4252750000000  0.5263310000000 1.0
C      1  0.5761510000000  0.4216520000000  0.4664320000000 1.0
C      1  0.4831060000000  0.4999660000000  0.5047320000000 1.0
C      1  0.4431860000000  0.4204710000000  0.4790690000000 1.0
C      1  0.4500570000000  0.4651350000000  0.4551300000000 1.0
C      1  0.5894740000000  0.4060410000000  0.5023770000000 1.0
C      1  0.4569220000000  0.5748010000000  0.4873110000000 1.0
C      1  0.4512190000000  0.5432840000000  0.5646770000000 1.0
C      1  0.4872050000000  0.6114050000000  0.4967060000000 1.0
C      1  0.6019240000000  0.4604330000000  0.4853690000000 1.0
C      1  0.4781590000000  0.5318590000000  0.4419220000000 1.0
C      1  0.5343750000000  0.5520290000000  0.3968950000000 1.0
C      1  0.5619170000000  0.4863010000000  0.5027730000000 1.0
C      1  0.5142600000000  0.5915350000000  0.4229380000000 1.0
C      1  0.5023550000000  0.4621580000000  0.4691240000000 1.0
C      1  0.4788840000000  0.5512330000000  0.6048720000000 1.0
C      1  0.5756800000000  0.5165940000000  0.3994320000000 1.0
C      1  0.4183820000000  0.4513870000000  0.5691450000000 1.0
C      1  0.5337040000000  0.3971680000000  0.4964040000000 1.0
C      1  0.4429590000000  0.5774950000000  0.4441530000000 1.0
C      1  0.4610760000000  0.5326450000000  0.5393570000000 1.0
C      1  0.4884360000000  0.6015060000000  0.5477720000000 1.0
C      1  0.5587580000000  0.4076680000000  0.5587580000000 1.0
C      1  0.3912960000000  0.4966810000000  0.4918270000000 1.0
C      1  0.5816050000000  0.3951950000000  0.5274890000000 1.0
C      1  0.5353310000000  0.4890790000000  0.4321670000000 1.0
C      1  0.4061650000000  0.5064190000000  0.5171860000000 1.0
C      1  0.5645080000000  0.5454920000000  0.4798610000000 1.0
C      1  0.4816020000000  0.4995270000000  0.3978410000000 1.0
C      1  0.3946090000000  0.5144040000000  0.4693400000000 1.0
END
