TITL C-884142-5251-348 57.0627413587277 125000 -26687.018535713 0 0 180 (C1) n - 1
REM
REM in /home/nfs/bkarasulu/CARBON/AIRSS/Generating-Clusters/ReaxFF-fromJPCA2015/Units_Real/with-SteepDescent/Only-C1/SD-CG/Try1-3A/FIRE-CG
REM
REM
REM
REM
REM
REM ./C.cell (11c1c37f851c82e70ff6c80c92926a4b)
REM
REM compiler GCC version 9.2.1 20190827 (Red Hat 9.2.1-1)
REM options -cpp -mtune=generic -march=x86-64 -g -O0 -fpre-include=/usr/include/finclude/math-vector-fortran.h
REM seed 49896115 -755130294 1597589153 1963853707 2014350790 -83734838 447122970 1163482649 1129648941 1764774753 1881466604 1797023832 -112236482 1428510244 391273748 -474942362 1333455604 260027592 1316255387 -929402436 -739791634 1848853365 -1992260970 -332414253 -101330161 627279835 1881839663 -382994902 2011879274 782298355 -1562557989 785013754 1859309383
REM
CELL 1.54180   50.00000   50.00000   50.00000   90.00000   90.00000   90.00000
LATT -1
SFAC C  
C      1  0.5324630000000  0.5146650000000  0.5488600000000 1.0
C      1  0.4454390000000  0.4840920000000  0.5235230000000 1.0
C      1  0.4708060000000  0.4674550000000  0.3879460000000 1.0
C      1  0.4506960000000  0.5933750000000  0.5216530000000 1.0
C      1  0.4376070000000  0.5002320000000  0.4630560000000 1.0
C      1  0.4999230000000  0.3908750000000  0.5355790000000 1.0
C      1  0.4124150000000  0.5018220000000  0.4775700000000 1.0
C      1  0.3953080000000  0.5012150000000  0.5028790000000 1.0
C      1  0.6002940000000  0.5202550000000  0.4556980000000 1.0
C      1  0.5700150000000  0.4571030000000  0.5776220000000 1.0
C      1  0.5069330000000  0.5092930000000  0.6008240000000 1.0
C      1  0.5593830000000  0.5216760000000  0.5141450000000 1.0
C      1  0.5494540000000  0.5079140000000  0.4150520000000 1.0
C      1  0.4215140000000  0.5535420000000  0.4390420000000 1.0
C      1  0.4337280000000  0.4199790000000  0.4652510000000 1.0
C      1  0.5631130000000  0.5619560000000  0.4553040000000 1.0
C      1  0.4336000000000  0.5108270000000  0.5234790000000 1.0
C      1  0.5461980000000  0.4616600000000  0.4492210000000 1.0
C      1  0.4089690000000  0.4811070000000  0.4401910000000 1.0
C      1  0.5256460000000  0.5622080000000  0.3948800000000 1.0
C      1  0.5816460000000  0.4125580000000  0.5141450000000 1.0
C      1  0.5408590000000  0.5556060000000  0.4396880000000 1.0
C      1  0.5286100000000  0.5016060000000  0.4745170000000 1.0
C      1  0.4965010000000  0.5390730000000  0.4589430000000 1.0
C      1  0.4442480000000  0.5196380000000  0.4430160000000 1.0
C      1  0.4797610000000  0.4816860000000  0.4518550000000 1.0
C      1  0.5383080000000  0.4310490000000  0.4913250000000 1.0
C      1  0.4884440000000  0.4277060000000  0.4964240000000 1.0
C      1  0.6161510000000  0.4936800000000  0.4940600000000 1.0
C      1  0.5068830000000  0.5999410000000  0.5358210000000 1.0
C      1  0.4605450000000  0.4200730000000  0.4485280000000 1.0
C      1  0.5062700000000  0.5529160000000  0.4809000000000 1.0
C      1  0.5757640000000  0.4905900000000  0.4771870000000 1.0
C      1  0.4567010000000  0.4019630000000  0.5182440000000 1.0
C      1  0.5247050000000  0.4739650000000  0.4648920000000 1.0
C      1  0.4663940000000  0.4851340000000  0.5024790000000 1.0
C      1  0.5346700000000  0.5511670000000  0.5848590000000 1.0
C      1  0.4591170000000  0.5656660000000  0.5880810000000 1.0
C      1  0.4181540000000  0.4420760000000  0.5135180000000 1.0
C      1  0.5211300000000  0.5910580000000  0.5090740000000 1.0
C      1  0.5993240000000  0.4641680000000  0.4489630000000 1.0
C      1  0.4956330000000  0.5098870000000  0.4222540000000 1.0
C      1  0.5604750000000  0.4774300000000  0.5990510000000 1.0
C      1  0.5148310000000  0.5594870000000  0.5646410000000 1.0
C      1  0.4675510000000  0.5826680000000  0.5661530000000 1.0
C      1  0.3971070000000  0.4856760000000  0.5282120000000 1.0
C      1  0.4442730000000  0.5100660000000  0.5762140000000 1.0
C      1  0.3957230000000  0.5458850000000  0.4842120000000 1.0
C      1  0.4429450000000  0.5803910000000  0.5462330000000 1.0
C      1  0.5462500000000  0.4989170000000  0.5292060000000 1.0
C      1  0.5592400000000  0.5130100000000  0.4832060000000 1.0
C      1  0.4357520000000  0.5232450000000  0.4146730000000 1.0
C      1  0.5189430000000  0.4868970000000  0.3859490000000 1.0
C      1  0.5792830000000  0.5157730000000  0.5767410000000 1.0
C      1  0.6096160000000  0.4797160000000  0.5177490000000 1.0
C      1  0.5567860000000  0.5074660000000  0.5944980000000 1.0
C      1  0.5158590000000  0.4167990000000  0.5441850000000 1.0
C      1  0.4832090000000  0.5972400000000  0.4948740000000 1.0
C      1  0.5776180000000  0.5358960000000  0.4671010000000 1.0
C      1  0.5143820000000  0.4366710000000  0.5023160000000 1.0
C      1  0.5386530000000  0.5268840000000  0.4342970000000 1.0
C      1  0.4850250000000  0.5739040000000  0.4316870000000 1.0
C      1  0.4771540000000  0.4546100000000  0.5472950000000 1.0
C      1  0.6023890000000  0.4922090000000  0.4662280000000 1.0
C      1  0.5832300000000  0.4679540000000  0.4258260000000 1.0
C      1  0.4658660000000  0.5012770000000  0.5567030000000 1.0
C      1  0.4754980000000  0.5307970000000  0.4704100000000 1.0
C      1  0.4817290000000  0.4063070000000  0.4611560000000 1.0
C      1  0.5980460000000  0.4960440000000  0.5665230000000 1.0
C      1  0.5366430000000  0.5452410000000  0.5178110000000 1.0
C      1  0.4952670000000  0.4858170000000  0.5124870000000 1.0
C      1  0.4664910000000  0.5182710000000  0.4945110000000 1.0
C      1  0.4896910000000  0.4877750000000  0.3805550000000 1.0
C      1  0.5973770000000  0.4695940000000  0.5805680000000 1.0
C      1  0.5674230000000  0.5846580000000  0.5585800000000 1.0
C      1  0.4858100000000  0.4839840000000  0.4245890000000 1.0
C      1  0.4412190000000  0.5519680000000  0.4170260000000 1.0
C      1  0.4251690000000  0.4469560000000  0.4823850000000 1.0
C      1  0.5178830000000  0.5790860000000  0.4362370000000 1.0
C      1  0.5114030000000  0.5050030000000  0.4978650000000 1.0
C      1  0.5148030000000  0.4337590000000  0.5843130000000 1.0
C      1  0.4337940000000  0.5717810000000  0.4811690000000 1.0
C      1  0.4089860000000  0.4626990000000  0.4623120000000 1.0
C      1  0.6075390000000  0.5003200000000  0.5388330000000 1.0
C      1  0.5558090000000  0.5864820000000  0.4689760000000 1.0
C      1  0.4685720000000  0.4079820000000  0.5701700000000 1.0
C      1  0.4959750000000  0.5822690000000  0.5599050000000 1.0
C      1  0.4712800000000  0.5566250000000  0.4138940000000 1.0
C      1  0.5110760000000  0.4641890000000  0.5872060000000 1.0
C      1  0.4262220000000  0.5555650000000  0.5494200000000 1.0
C      1  0.4184290000000  0.4003130000000  0.4642790000000 1.0
C      1  0.4484510000000  0.4293350000000  0.5748460000000 1.0
C      1  0.4418270000000  0.4587590000000  0.4340820000000 1.0
C      1  0.4603920000000  0.6022440000000  0.4959920000000 1.0
C      1  0.5435640000000  0.5730240000000  0.5127650000000 1.0
C      1  0.5308910000000  0.4659110000000  0.4016050000000 1.0
C      1  0.5521360000000  0.4551580000000  0.4991690000000 1.0
C      1  0.4712520000000  0.3957410000000  0.5416670000000 1.0
C      1  0.4448970000000  0.4781050000000  0.3921190000000 1.0
C      1  0.4751830000000  0.5121660000000  0.3860780000000 1.0
C      1  0.5990810000000  0.4517390000000  0.5194650000000 1.0
C      1  0.4638880000000  0.5727400000000  0.4514200000000 1.0
C      1  0.5435730000000  0.4321380000000  0.4434970000000 1.0
C      1  0.3991640000000  0.5079350000000  0.4519610000000 1.0
C      1  0.4517910000000  0.4749470000000  0.4573680000000 1.0
C      1  0.4113330000000  0.5303390000000  0.5344920000000 1.0
C      1  0.5282690000000  0.5907860000000  0.4606300000000 1.0
C      1  0.5354660000000  0.4245970000000  0.5642710000000 1.0
C      1  0.5206490000000  0.4240300000000  0.4269550000000 1.0
C      1  0.5983810000000  0.4351360000000  0.4959050000000 1.0
C      1  0.4579190000000  0.5026080000000  0.6026260000000 1.0
C      1  0.5175510000000  0.5369880000000  0.3891330000000 1.0
C      1  0.4119070000000  0.5671120000000  0.4950900000000 1.0
C      1  0.5343440000000  0.4162280000000  0.4659840000000 1.0
C      1  0.5703310000000  0.3891840000000  0.5102800000000 1.0
C      1  0.4386930000000  0.5247460000000  0.4988080000000 1.0
C      1  0.4330990000000  0.4183350000000  0.5233960000000 1.0
C      1  0.5796780000000  0.4351250000000  0.5344980000000 1.0
C      1  0.5826410000000  0.5328050000000  0.5312850000000 1.0
C      1  0.5126410000000  0.4455590000000  0.4095100000000 1.0
C      1  0.4381300000000  0.4347170000000  0.5474210000000 1.0
C      1  0.4969100000000  0.4645170000000  0.4657390000000 1.0
C      1  0.4502520000000  0.5909730000000  0.4711510000000 1.0
C      1  0.4107790000000  0.4610600000000  0.5347100000000 1.0
C      1  0.4822040000000  0.5335130000000  0.5138080000000 1.0
C      1  0.5093960000000  0.5356500000000  0.5037150000000 1.0
C      1  0.6173120000000  0.5218800000000  0.4991960000000 1.0
C      1  0.5916070000000  0.4451530000000  0.4700310000000 1.0
C      1  0.5086020000000  0.4098120000000  0.4517040000000 1.0
C      1  0.5607430000000  0.5602170000000  0.5715850000000 1.0
C      1  0.4858130000000  0.4813580000000  0.5482940000000 1.0
C      1  0.4893630000000  0.5311450000000  0.4022550000000 1.0
C      1  0.4681680000000  0.5437530000000  0.5504980000000 1.0
C      1  0.5012400000000  0.4416310000000  0.5401120000000 1.0
C      1  0.4424660000000  0.5441680000000  0.5700650000000 1.0
C      1  0.4569610000000  0.5432610000000  0.4551530000000 1.0
C      1  0.5103480000000  0.5081910000000  0.5659150000000 1.0
C      1  0.4642470000000  0.4751540000000  0.5992780000000 1.0
C      1  0.4806550000000  0.5215080000000  0.6102070000000 1.0
C      1  0.5771480000000  0.5389060000000  0.5595280000000 1.0
C      1  0.3934300000000  0.5291620000000  0.5077110000000 1.0
C      1  0.4727610000000  0.5469040000000  0.6019950000000 1.0
C      1  0.4307300000000  0.4751460000000  0.4156900000000 1.0
C      1  0.4850030000000  0.5209330000000  0.5550560000000 1.0
C      1  0.5672200000000  0.4637430000000  0.4761610000000 1.0
C      1  0.5329930000000  0.5240420000000  0.5973780000000 1.0
C      1  0.4996030000000  0.3821150000000  0.5081220000000 1.0
C      1  0.5064950000000  0.5836410000000  0.4849370000000 1.0
C      1  0.4376620000000  0.5541750000000  0.5030810000000 1.0
C      1  0.5543800000000  0.4777380000000  0.4203230000000 1.0
C      1  0.4448470000000  0.4576190000000  0.5818550000000 1.0
C      1  0.4228570000000  0.4674570000000  0.5652540000000 1.0
C      1  0.5297530000000  0.5871870000000  0.4059860000000 1.0
C      1  0.5612490000000  0.4381850000000  0.5578620000000 1.0
C      1  0.5121920000000  0.5179580000000  0.4459850000000 1.0
C      1  0.4549630000000  0.4610570000000  0.4830690000000 1.0
C      1  0.4032580000000  0.5377380000000  0.4554600000000 1.0
C      1  0.5092000000000  0.4806470000000  0.5636280000000 1.0
C      1  0.5333750000000  0.5121590000000  0.3913000000000 1.0
C      1  0.5143750000000  0.4597020000000  0.5198340000000 1.0
C      1  0.4511860000000  0.4585310000000  0.5375910000000 1.0
C      1  0.4008040000000  0.5062040000000  0.5493140000000 1.0
C      1  0.4793720000000  0.4485450000000  0.4805040000000 1.0
C      1  0.4469580000000  0.5059450000000  0.3930300000000 1.0
C      1  0.4180110000000  0.4948530000000  0.5699400000000 1.0
C      1  0.5738000000000  0.6031740000000  0.5453710000000 1.0
C      1  0.6081260000000  0.5252520000000  0.5257410000000 1.0
C      1  0.4932540000000  0.4798580000000  0.6037650000000 1.0
C      1  0.5880530000000  0.4820040000000  0.6048670000000 1.0
C      1  0.4823440000000  0.4556090000000  0.4121500000000 1.0
C      1  0.5425270000000  0.4717290000000  0.5200530000000 1.0
C      1  0.4611810000000  0.4404710000000  0.4285770000000 1.0
C      1  0.5731270000000  0.6010350000000  0.5202160000000 1.0
C      1  0.6068780000000  0.5373960000000  0.4767140000000 1.0
C      1  0.4659850000000  0.5545630000000  0.5238930000000 1.0
C      1  0.5007750000000  0.6217850000000  0.5465320000000 1.0
C      1  0.4898320000000  0.4216940000000  0.5799920000000 1.0
C      1  0.5289740000000  0.5425010000000  0.5452030000000 1.0
C      1  0.5657570000000  0.5854690000000  0.4979670000000 1.0
C      1  0.4777600000000  0.3999770000000  0.4936520000000 1.0
END
