TITL C-883737-113-28 4563686.43388703 125000 -27730.5428742284 0 0 185 (C1) n - 1
REM
REM in /home/nfs/bkarasulu/CARBON/AIRSS/Generating-Clusters/ReaxFF-fromJPCA2015/Units_Real/with-SteepDescent/Only-C1/SD-CG/Try1-3A/FIRE-CG
REM
REM
REM
REM
REM
REM ./C.cell (11c1c37f851c82e70ff6c80c92926a4b)
REM
REM compiler GCC version 9.2.1 20190827 (Red Hat 9.2.1-1)
REM options -cpp -mtune=generic -march=x86-64 -g -O0 -fpre-include=/usr/include/finclude/math-vector-fortran.h
REM seed 1827557432 -370428227 -1604684999 216474091 1789872624 -1361823341 -1137077628 787473468 284121297 1649708255 -1505188127 -32441913 1904299618 -1601023637 21965955 578726068 173320287 -1385302408 1049005306 -702317322 -1839972210 1774547208 1595648378 -1654230853 708737048 2070333997 -402219114 -1632848829 -1130978126 -963289560 -538693850 962077221 -1416578790
REM
CELL 1.54180   50.00000   50.00000   50.00000   90.00000   90.00000   90.00000
LATT -1
SFAC C  
C      1  0.5299510000000  0.5619680000000  0.4244390000000 1.0
C      1  0.6015060000000  0.5551290000000  0.5169220000000 1.0
C      1  0.5127710000000  0.5523700000000  0.6000150000000 1.0
C      1  0.5141440000000  0.4728460000000  0.5001270000000 1.0
C      1  0.4765630000000  0.5152040000000  0.4795900000000 1.0
C      1  0.4386770000000  0.4658230000000  0.5809180000000 1.0
C      1  0.4299400000000  0.4471100000000  0.5335440000000 1.0
C      1  0.5489910000000  0.4838720000000  0.3996920000000 1.0
C      1  0.5897320000000  0.4696020000000  0.4566920000000 1.0
C      1  0.4084410000000  0.5188780000000  0.5649340000000 1.0
C      1  0.4790510000000  0.6153950000000  0.5040960000000 1.0
C      1  0.5069350000000  0.6052580000000  0.5087640000000 1.0
C      1  0.4673860000000  0.5089060000000  0.3870900000000 1.0
C      1  0.5052300000000  0.5153810000000  0.5357190000000 1.0
C      1  0.4317710000000  0.4579890000000  0.4112310000000 1.0
C      1  0.5682920000000  0.4320390000000  0.5599550000000 1.0
C      1  0.5379790000000  0.4218500000000  0.4304250000000 1.0
C      1  0.4564260000000  0.4192240000000  0.4398810000000 1.0
C      1  0.4501450000000  0.5859340000000  0.4365360000000 1.0
C      1  0.4668330000000  0.4189730000000  0.5724330000000 1.0
C      1  0.5772680000000  0.4808260000000  0.4103350000000 1.0
C      1  0.4398870000000  0.5674130000000  0.4814650000000 1.0
C      1  0.4747990000000  0.4783710000000  0.5325870000000 1.0
C      1  0.4213480000000  0.5047840000000  0.4113790000000 1.0
C      1  0.5496720000000  0.5316690000000  0.4889630000000 1.0
C      1  0.4593380000000  0.4460400000000  0.4944170000000 1.0
C      1  0.5766990000000  0.5419310000000  0.4528480000000 1.0
C      1  0.5085520000000  0.5590900000000  0.5083520000000 1.0
C      1  0.4099740000000  0.4761760000000  0.4498680000000 1.0
C      1  0.5590970000000  0.4395120000000  0.4300110000000 1.0
C      1  0.4293270000000  0.4817030000000  0.5025260000000 1.0
C      1  0.4975630000000  0.5286780000000  0.6137020000000 1.0
C      1  0.5536980000000  0.4907170000000  0.5547700000000 1.0
C      1  0.4518830000000  0.5649540000000  0.5822710000000 1.0
C      1  0.4046180000000  0.5406490000000  0.5829210000000 1.0
C      1  0.5553570000000  0.4036850000000  0.5233870000000 1.0
C      1  0.4854960000000  0.5121130000000  0.4359000000000 1.0
C      1  0.4657760000000  0.5588390000000  0.4925830000000 1.0
C      1  0.5871100000000  0.4442960000000  0.5167500000000 1.0
C      1  0.5600270000000  0.5250270000000  0.4175270000000 1.0
C      1  0.5796240000000  0.4584180000000  0.4296210000000 1.0
C      1  0.5463160000000  0.4078260000000  0.4560250000000 1.0
C      1  0.4691090000000  0.4718310000000  0.4189970000000 1.0
C      1  0.5266770000000  0.5032770000000  0.5206980000000 1.0
C      1  0.5120680000000  0.3973680000000  0.5495190000000 1.0
C      1  0.5522310000000  0.5025790000000  0.5286700000000 1.0
C      1  0.4401150000000  0.5977550000000  0.4880240000000 1.0
C      1  0.4142080000000  0.4986790000000  0.5473740000000 1.0
C      1  0.5856630000000  0.5083550000000  0.4157730000000 1.0
C      1  0.5708610000000  0.4192040000000  0.5046290000000 1.0
C      1  0.5810140000000  0.4752860000000  0.5624950000000 1.0
C      1  0.3821490000000  0.4787770000000  0.4945980000000 1.0
C      1  0.4171650000000  0.4478460000000  0.4553460000000 1.0
C      1  0.5397040000000  0.5443270000000  0.5426070000000 1.0
C      1  0.5606900000000  0.5138420000000  0.6056860000000 1.0
C      1  0.5083350000000  0.5834510000000  0.5286890000000 1.0
C      1  0.5848850000000  0.4500450000000  0.5452340000000 1.0
C      1  0.5373920000000  0.5743120000000  0.5437000000000 1.0
C      1  0.3910370000000  0.4899130000000  0.4706510000000 1.0
C      1  0.5928510000000  0.5554150000000  0.4733530000000 1.0
C      1  0.5675810000000  0.5817380000000  0.5376980000000 1.0
C      1  0.4640050000000  0.6100500000000  0.4784520000000 1.0
C      1  0.5179450000000  0.5860600000000  0.4346760000000 1.0
C      1  0.4881060000000  0.4773720000000  0.5072700000000 1.0
C      1  0.4129920000000  0.4795720000000  0.4192440000000 1.0
C      1  0.5102030000000  0.4213800000000  0.4837920000000 1.0
C      1  0.5710670000000  0.4901010000000  0.4667260000000 1.0
C      1  0.5280410000000  0.3913980000000  0.5267730000000 1.0
C      1  0.4736690000000  0.4840050000000  0.6092310000000 1.0
C      1  0.4262860000000  0.5065360000000  0.5181370000000 1.0
C      1  0.5328860000000  0.5017420000000  0.5709380000000 1.0
C      1  0.5258960000000  0.6053090000000  0.4570290000000 1.0
C      1  0.4580030000000  0.3906160000000  0.5239180000000 1.0
C      1  0.4384300000000  0.4199870000000  0.4881080000000 1.0
C      1  0.5097530000000  0.5990800000000  0.4805980000000 1.0
C      1  0.5194170000000  0.3999450000000  0.4650570000000 1.0
C      1  0.5330150000000  0.4576190000000  0.4610350000000 1.0
C      1  0.5272440000000  0.5159040000000  0.4733400000000 1.0
C      1  0.4861210000000  0.5289130000000  0.4580390000000 1.0
C      1  0.4532550000000  0.4712050000000  0.3957360000000 1.0
C      1  0.5231270000000  0.4978800000000  0.4949050000000 1.0
C      1  0.4189700000000  0.5915300000000  0.4310130000000 1.0
C      1  0.4937210000000  0.3930020000000  0.4531020000000 1.0
C      1  0.5964670000000  0.5240570000000  0.5706440000000 1.0
C      1  0.6117640000000  0.4863520000000  0.4885270000000 1.0
C      1  0.5066520000000  0.5149530000000  0.4137030000000 1.0
C      1  0.5512440000000  0.5768450000000  0.4835590000000 1.0
C      1  0.5352160000000  0.5068400000000  0.4205180000000 1.0
C      1  0.4929950000000  0.4987320000000  0.3904540000000 1.0
C      1  0.5087230000000  0.4307810000000  0.4295570000000 1.0
C      1  0.4841990000000  0.4978280000000  0.5504180000000 1.0
C      1  0.4607550000000  0.5360890000000  0.5417670000000 1.0
C      1  0.4914000000000  0.5686610000000  0.4858170000000 1.0
C      1  0.4095510000000  0.5284880000000  0.5013050000000 1.0
C      1  0.5296180000000  0.4414180000000  0.5351690000000 1.0
C      1  0.4181050000000  0.4682230000000  0.5569500000000 1.0
C      1  0.5741270000000  0.5730370000000  0.5647840000000 1.0
C      1  0.4836200000000  0.4401350000000  0.4794660000000 1.0
C      1  0.4042700000000  0.5672470000000  0.4353190000000 1.0
C      1  0.4729700000000  0.3890150000000  0.4742850000000 1.0
C      1  0.5048250000000  0.4312030000000  0.5230140000000 1.0
C      1  0.5844320000000  0.5481610000000  0.5792740000000 1.0
C      1  0.4676100000000  0.5822640000000  0.5711500000000 1.0
C      1  0.5569510000000  0.5501570000000  0.4302000000000 1.0
C      1  0.6120420000000  0.5121990000000  0.5025420000000 1.0
C      1  0.4701780000000  0.5319730000000  0.5023060000000 1.0
C      1  0.4580750000000  0.4445820000000  0.5850730000000 1.0
C      1  0.4254400000000  0.5412660000000  0.4369540000000 1.0
C      1  0.5356020000000  0.4406260000000  0.4844850000000 1.0
C      1  0.4516140000000  0.5203900000000  0.5216410000000 1.0
C      1  0.5712980000000  0.5191760000000  0.4705580000000 1.0
C      1  0.5409300000000  0.5587250000000  0.5949530000000 1.0
C      1  0.4357510000000  0.4395660000000  0.4339070000000 1.0
C      1  0.5794840000000  0.5783250000000  0.4870900000000 1.0
C      1  0.5494840000000  0.5994220000000  0.4708140000000 1.0
C      1  0.4778590000000  0.5867070000000  0.5442280000000 1.0
C      1  0.5466440000000  0.4806340000000  0.4572020000000 1.0
C      1  0.4360840000000  0.5421710000000  0.5895900000000 1.0
C      1  0.5419570000000  0.4789810000000  0.3756690000000 1.0
C      1  0.5848440000000  0.5782890000000  0.5149330000000 1.0
C      1  0.4756930000000  0.4858370000000  0.4825390000000 1.0
C      1  0.4493820000000  0.5169900000000  0.5848130000000 1.0
C      1  0.4980870000000  0.5551940000000  0.4614400000000 1.0
C      1  0.4648620000000  0.4933120000000  0.4369980000000 1.0
C      1  0.5321250000000  0.5014040000000  0.4485940000000 1.0
C      1  0.4160980000000  0.4564350000000  0.5072310000000 1.0
C      1  0.4338640000000  0.4025150000000  0.5139750000000 1.0
C      1  0.4511050000000  0.4049900000000  0.4643530000000 1.0
C      1  0.4841830000000  0.4382380000000  0.5404710000000 1.0
C      1  0.4712070000000  0.5993770000000  0.4515660000000 1.0
C      1  0.5993990000000  0.4648660000000  0.5023660000000 1.0
C      1  0.4611080000000  0.4504330000000  0.5275260000000 1.0
C      1  0.4982250000000  0.4996260000000  0.6122640000000 1.0
C      1  0.5213250000000  0.4869450000000  0.5979520000000 1.0
C      1  0.5088210000000  0.4560040000000  0.4444160000000 1.0
C      1  0.5657330000000  0.4674040000000  0.5884190000000 1.0
C      1  0.6055610000000  0.5119750000000  0.5313160000000 1.0
C      1  0.4516960000000  0.4053580000000  0.5519820000000 1.0
C      1  0.4309720000000  0.5297070000000  0.4081980000000 1.0
C      1  0.5469280000000  0.5774700000000  0.5737690000000 1.0
C      1  0.4783610000000  0.3897110000000  0.5032930000000 1.0
C      1  0.6011540000000  0.4994970000000  0.5578160000000 1.0
C      1  0.6140010000000  0.4858950000000  0.4567970000000 1.0
C      1  0.5089300000000  0.5461110000000  0.4090570000000 1.0
C      1  0.5086520000000  0.4590270000000  0.5930400000000 1.0
C      1  0.3920630000000  0.4658510000000  0.5435600000000 1.0
C      1  0.4187940000000  0.5550000000000  0.5030470000000 1.0
C      1  0.4528870000000  0.5622980000000  0.5408640000000 1.0
C      1  0.4867820000000  0.4617030000000  0.4622900000000 1.0
C      1  0.5311700000000  0.5545940000000  0.4866300000000 1.0
C      1  0.6051500000000  0.5012400000000  0.4351020000000 1.0
C      1  0.4825710000000  0.5459980000000  0.4008520000000 1.0
C      1  0.4298860000000  0.5705990000000  0.5251450000000 1.0
C      1  0.5530780000000  0.4872690000000  0.6061820000000 1.0
C      1  0.4910900000000  0.5785810000000  0.4435540000000 1.0
C      1  0.5599640000000  0.4216760000000  0.4783970000000 1.0
C      1  0.4824880000000  0.4716260000000  0.3944870000000 1.0
C      1  0.4908290000000  0.5388130000000  0.5883730000000 1.0
C      1  0.4935220000000  0.5370410000000  0.5193240000000 1.0
C      1  0.5242280000000  0.5266420000000  0.5587600000000 1.0
C      1  0.4284690000000  0.4172070000000  0.5385810000000 1.0
C      1  0.4801180000000  0.4575860000000  0.6002000000000 1.0
C      1  0.4375480000000  0.5980530000000  0.5167900000000 1.0
C      1  0.4571900000000  0.5348630000000  0.3927640000000 1.0
C      1  0.5044410000000  0.4047980000000  0.5083230000000 1.0
C      1  0.4256500000000  0.5172840000000  0.4572980000000 1.0
C      1  0.4488500000000  0.4749570000000  0.4839940000000 1.0
C      1  0.5503940000000  0.4438320000000  0.5802470000000 1.0
C      1  0.4164700000000  0.4394860000000  0.4829480000000 1.0
C      1  0.4968830000000  0.4212700000000  0.5618370000000 1.0
C      1  0.4407990000000  0.4925550000000  0.4554580000000 1.0
C      1  0.3799900000000  0.4690050000000  0.5192220000000 1.0
C      1  0.4723410000000  0.5211460000000  0.5652680000000 1.0
C      1  0.5338420000000  0.4558820000000  0.5100260000000 1.0
C      1  0.4477600000000  0.4895340000000  0.5951030000000 1.0
C      1  0.4635770000000  0.6066580000000  0.5269530000000 1.0
C      1  0.5647220000000  0.5410810000000  0.6007660000000 1.0
C      1  0.5873180000000  0.5348460000000  0.5316780000000 1.0
C      1  0.5213730000000  0.4406180000000  0.5761120000000 1.0
C      1  0.4429920000000  0.5615620000000  0.4501380000000 1.0
C      1  0.4027050000000  0.5167360000000  0.4752830000000 1.0
C      1  0.4855960000000  0.4136730000000  0.4338690000000 1.0
C      1  0.5489780000000  0.4211190000000  0.5438740000000 1.0
C      1  0.6083880000000  0.5398500000000  0.4932380000000 1.0
C      1  0.5587660000000  0.5299610000000  0.5233780000000 1.0
END
