TITL C-883729-9652-8 1303787.58976658 125000 -10271.3499833261 0 0 71 (C1) n - 1
REM
REM in /home/nfs/bkarasulu/CARBON/AIRSS/Generating-Clusters/ReaxFF-fromJPCA2015/Units_Real/with-SteepDescent/Only-C1/SD-CG/Try1-3A/FIRE-CG
REM
REM
REM
REM
REM
REM ./C.cell (11c1c37f851c82e70ff6c80c92926a4b)
REM
REM compiler GCC version 9.2.1 20190827 (Red Hat 9.2.1-1)
REM options -cpp -mtune=generic -march=x86-64 -g -O0 -fpre-include=/usr/include/finclude/math-vector-fortran.h
REM seed 403839594 669247840 141141545 1660348489 1726639946 167626568 645883742 1204649247 768906572 1851067601 529637944 -1356155621 329529562 -1914142223 -835739143 -1538447399 424884363 248638380 229622907 -1948893889 1658424208 -2096196112 -1651316318 -834888746 -1959471103 360269623 -823768851 158228601 110409560 -1160188985 -1669101265 476698986 -844424398
REM
CELL 1.54180   50.00000   50.00000   50.00000   90.00000   90.00000   90.00000
LATT -1
SFAC C  
C      1  0.4520620000000  0.4581980000000  0.5354070000000 1.0
C      1  0.4731770000000  0.5692090000000  0.5181210000000 1.0
C      1  0.5087220000000  0.5750900000000  0.4866230000000 1.0
C      1  0.5038990000000  0.5295420000000  0.4350060000000 1.0
C      1  0.5441020000000  0.5634810000000  0.5261440000000 1.0
C      1  0.4329560000000  0.4676540000000  0.5210820000000 1.0
C      1  0.4888530000000  0.5228850000000  0.4994720000000 1.0
C      1  0.5755520000000  0.4863450000000  0.4770810000000 1.0
C      1  0.4389980000000  0.4937750000000  0.4382010000000 1.0
C      1  0.5441960000000  0.4579420000000  0.4881660000000 1.0
C      1  0.4921040000000  0.4493800000000  0.4472880000000 1.0
C      1  0.4982130000000  0.5706010000000  0.5327570000000 1.0
C      1  0.4737230000000  0.4487410000000  0.5480830000000 1.0
C      1  0.4785480000000  0.5735240000000  0.4896850000000 1.0
C      1  0.5570220000000  0.5304580000000  0.4871420000000 1.0
C      1  0.5136430000000  0.4883090000000  0.5080590000000 1.0
C      1  0.5767430000000  0.5089380000000  0.4937350000000 1.0
C      1  0.4816930000000  0.5161170000000  0.4497680000000 1.0
C      1  0.4373200000000  0.5374540000000  0.5068350000000 1.0
C      1  0.5282120000000  0.4853510000000  0.4866260000000 1.0
C      1  0.5440970000000  0.5102110000000  0.4703570000000 1.0
C      1  0.5119940000000  0.4331590000000  0.4805470000000 1.0
C      1  0.4785500000000  0.5226730000000  0.5521230000000 1.0
C      1  0.5391270000000  0.5497100000000  0.5515820000000 1.0
C      1  0.4373780000000  0.4409150000000  0.4835450000000 1.0
C      1  0.5490740000000  0.5253460000000  0.5391320000000 1.0
C      1  0.4886520000000  0.4286600000000  0.5297460000000 1.0
C      1  0.5435790000000  0.4784020000000  0.5527080000000 1.0
C      1  0.4882030000000  0.4772790000000  0.5553630000000 1.0
C      1  0.4396480000000  0.5356770000000  0.5468180000000 1.0
C      1  0.4823320000000  0.4622810000000  0.5034130000000 1.0
C      1  0.4989120000000  0.4913750000000  0.5295730000000 1.0
C      1  0.5285400000000  0.4378040000000  0.5248640000000 1.0
C      1  0.4412430000000  0.5069740000000  0.5459130000000 1.0
C      1  0.4662290000000  0.4974700000000  0.5590420000000 1.0
C      1  0.4986100000000  0.5340980000000  0.5705820000000 1.0
C      1  0.4622460000000  0.5556380000000  0.4726060000000 1.0
C      1  0.5183210000000  0.4881380000000  0.5642710000000 1.0
C      1  0.5422120000000  0.5219590000000  0.4448570000000 1.0
C      1  0.4942430000000  0.5065360000000  0.4767210000000 1.0
C      1  0.4370220000000  0.5098840000000  0.4619740000000 1.0
C      1  0.5105070000000  0.5563470000000  0.5560490000000 1.0
C      1  0.5531920000000  0.5392600000000  0.5144580000000 1.0
C      1  0.4885710000000  0.4223090000000  0.5005600000000 1.0
C      1  0.4925210000000  0.5174450000000  0.5267680000000 1.0
C      1  0.4817220000000  0.4810970000000  0.4822040000000 1.0
C      1  0.5028430000000  0.4526540000000  0.5218270000000 1.0
C      1  0.5333120000000  0.4343710000000  0.4974600000000 1.0
C      1  0.4701050000000  0.4864730000000  0.4363210000000 1.0
C      1  0.5746780000000  0.4909130000000  0.5174430000000 1.0
C      1  0.5269110000000  0.5558080000000  0.4774950000000 1.0
C      1  0.4916110000000  0.4683580000000  0.4244000000000 1.0
C      1  0.5172940000000  0.4799230000000  0.4242280000000 1.0
C      1  0.5226840000000  0.5076330000000  0.4277710000000 1.0
C      1  0.4708020000000  0.4665910000000  0.4590660000000 1.0
C      1  0.5601030000000  0.4992440000000  0.5414510000000 1.0
C      1  0.5583000000000  0.4852500000000  0.4550240000000 1.0
C      1  0.5634750000000  0.4645200000000  0.5103550000000 1.0
C      1  0.4312930000000  0.4948370000000  0.4900880000000 1.0
C      1  0.4642510000000  0.5359080000000  0.4945460000000 1.0
C      1  0.4560340000000  0.5324610000000  0.4553060000000 1.0
C      1  0.5248320000000  0.5447690000000  0.4515440000000 1.0
C      1  0.4654690000000  0.4385780000000  0.4933500000000 1.0
C      1  0.4244680000000  0.4663440000000  0.4940070000000 1.0
C      1  0.5194480000000  0.4481410000000  0.4564440000000 1.0
C      1  0.4473210000000  0.5557260000000  0.5280890000000 1.0
C      1  0.4332420000000  0.5090260000000  0.5148530000000 1.0
C      1  0.5493420000000  0.4561110000000  0.5344870000000 1.0
C      1  0.5202320000000  0.5756930000000  0.5138060000000 1.0
C      1  0.5348510000000  0.4707910000000  0.4436410000000 1.0
C      1  0.5206350000000  0.5162390000000  0.5659370000000 1.0
END
