TITL C-884140-4336-275 -5.55038951179183 125000 -6973.08187212806 0 0 47 (C1) n - 1
REM
REM in /home/nfs/bkarasulu/CARBON/AIRSS/Generating-Clusters/ReaxFF-fromJPCA2015/Units_Real/with-SteepDescent/Only-C1/SD-CG/Try1-3A/FIRE-CG
REM
REM
REM
REM
REM
REM ./C.cell (11c1c37f851c82e70ff6c80c92926a4b)
REM
REM compiler GCC version 9.2.1 20190827 (Red Hat 9.2.1-1)
REM options -cpp -mtune=generic -march=x86-64 -g -O0 -fpre-include=/usr/include/finclude/math-vector-fortran.h
REM seed 254726702 1068566306 1571533936 1637900061 -1873040503 622144007 -75991701 1579085903 -1388674269 857052218 -1091877065 220192082 -528786391 -1270996526 742791955 -392035995 1919200115 -1338845564 466721249 932131048 -1500524562 -1471291202 733005781 -135218159 -1361599419 2057525263 -1819313196 22908533 971143718 584799825 2118657737 1708499773 322183150
REM
CELL 1.54180   50.00000   50.00000   50.00000   90.00000   90.00000   90.00000
LATT -1
SFAC C  
C      1  0.4936060000000  0.4450930000000  0.4991500000000 1.0
C      1  0.4679890000000  0.4580140000000  0.4515250000000 1.0
C      1  0.5405450000000  0.4559690000000  0.4779430000000 1.0
C      1  0.4456650000000  0.4680210000000  0.4856830000000 1.0
C      1  0.4486920000000  0.5025260000000  0.5590250000000 1.0
C      1  0.4781550000000  0.4830450000000  0.4390850000000 1.0
C      1  0.5264540000000  0.5551060000000  0.5042900000000 1.0
C      1  0.5102810000000  0.5156570000000  0.5551880000000 1.0
C      1  0.4534790000000  0.5240200000000  0.5517750000000 1.0
C      1  0.5518300000000  0.4761690000000  0.4603090000000 1.0
C      1  0.4444360000000  0.4919860000000  0.5034190000000 1.0
C      1  0.4417820000000  0.4721430000000  0.4565400000000 1.0
C      1  0.4599470000000  0.5417530000000  0.5068410000000 1.0
C      1  0.4536280000000  0.4977040000000  0.4469300000000 1.0
C      1  0.5213570000000  0.5457030000000  0.5299950000000 1.0
C      1  0.4460300000000  0.5198110000000  0.4928040000000 1.0
C      1  0.4579820000000  0.4816230000000  0.5417480000000 1.0
C      1  0.5347800000000  0.5244800000000  0.5424540000000 1.0
C      1  0.5036590000000  0.4878760000000  0.5613750000000 1.0
C      1  0.4756190000000  0.5574920000000  0.4881190000000 1.0
C      1  0.5574550000000  0.4801730000000  0.5274750000000 1.0
C      1  0.4935230000000  0.4996720000000  0.4994300000000 1.0
C      1  0.5552380000000  0.5092290000000  0.5305940000000 1.0
C      1  0.4851640000000  0.4359100000000  0.5259170000000 1.0
C      1  0.5180220000000  0.5531650000000  0.4644980000000 1.0
C      1  0.4698740000000  0.5440490000000  0.4626200000000 1.0
C      1  0.5330500000000  0.4635020000000  0.5258130000000 1.0
C      1  0.5449500000000  0.5048180000000  0.4574050000000 1.0
C      1  0.4678940000000  0.5421410000000  0.5354810000000 1.0
C      1  0.5666780000000  0.4665480000000  0.4814150000000 1.0
C      1  0.5221570000000  0.4548800000000  0.5004010000000 1.0
C      1  0.5012340000000  0.5084750000000  0.4725780000000 1.0
C      1  0.5264130000000  0.5059020000000  0.4317870000000 1.0
C      1  0.5729360000000  0.4836910000000  0.5029660000000 1.0
C      1  0.5423730000000  0.5131990000000  0.4837650000000 1.0
C      1  0.4707440000000  0.4532140000000  0.4808130000000 1.0
C      1  0.5403580000000  0.5392760000000  0.4807030000000 1.0
C      1  0.5061630000000  0.4916060000000  0.4470800000000 1.0
C      1  0.4776330000000  0.4733720000000  0.5621580000000 1.0
C      1  0.4918940000000  0.4483950000000  0.5522670000000 1.0
C      1  0.5638440000000  0.5125100000000  0.5020750000000 1.0
C      1  0.4708240000000  0.4894010000000  0.5154950000000 1.0
C      1  0.5171340000000  0.4639330000000  0.5505250000000 1.0
C      1  0.4963280000000  0.5383230000000  0.5423250000000 1.0
C      1  0.5044230000000  0.5643460000000  0.4881280000000 1.0
C      1  0.4508510000000  0.5217760000000  0.4642070000000 1.0
C      1  0.4969260000000  0.5343030000000  0.4578820000000 1.0
END
