TITL C-884135-4325-122 0.554600300915096 125000 -1132.88437187643 0 0 9 (C1) n - 1
REM
REM in /home/nfs/bkarasulu/CARBON/AIRSS/Generating-Clusters/ReaxFF-fromJPCA2015/Units_Real/with-SteepDescent/Only-C1/SD-CG/Try1-3A/FIRE-CG
REM
REM
REM
REM
REM
REM ./C.cell (11c1c37f851c82e70ff6c80c92926a4b)
REM
REM compiler GCC version 9.2.1 20190827 (Red Hat 9.2.1-1)
REM options -cpp -mtune=generic -march=x86-64 -g -O0 -fpre-include=/usr/include/finclude/math-vector-fortran.h
REM seed -183174472 -2058883592 -1580039209 -28060441 300473125 -512713122 -1189368659 -1045800722 -862397729 -1828762142 -2134947044 142159502 -1922886052 -626779692 387965779 -382241554 -220870478 -1703363663 725564674 -636589042 508468500 658149568 289252230 396532465 -73243148 1497579401 -777244417 -225460098 -381201709 -703686191 -1581447459 1709293702 315266401
REM
CELL 1.54180   50.00000   50.00000   50.00000   90.00000   90.00000   90.00000
LATT -1
SFAC C  
C      1  0.5008590000000  0.5137510000000  0.4703460000000 1.0
C      1  0.4999690000000  0.5011000000000  0.5199890000000 1.0
C      1  0.4888270000000  0.5259930000000  0.5246170000000 1.0
C      1  0.4815390000000  0.5280130000000  0.4922490000000 1.0
C      1  0.5121880000000  0.4737990000000  0.5149140000000 1.0
C      1  0.4625770000000  0.5421940000000  0.4847220000000 1.0
C      1  0.5153310000000  0.4911260000000  0.4757580000000 1.0
C      1  0.5107620000000  0.4551430000000  0.5325970000000 1.0
C      1  0.5279480000000  0.4688800000000  0.4848090000000 1.0
END
