TITL C-883741-3679-346 33.0287998421178 125000 -18852.3071882388 0 0 127 (C1) n - 1
REM
REM in /home/nfs/bkarasulu/CARBON/AIRSS/Generating-Clusters/ReaxFF-fromJPCA2015/Units_Real/with-SteepDescent/Only-C1/SD-CG/Try1-3A/FIRE-CG
REM
REM
REM
REM
REM
REM ./C.cell (11c1c37f851c82e70ff6c80c92926a4b)
REM
REM compiler GCC version 9.2.1 20190827 (Red Hat 9.2.1-1)
REM options -cpp -mtune=generic -march=x86-64 -g -O0 -fpre-include=/usr/include/finclude/math-vector-fortran.h
REM seed 1826749613 -1157800149 -2076256142 -854923254 -1142677088 -1763546307 1816001814 -1656142781 877264488 -607126952 -934161331 -2121633403 600718886 -1170453036 -660409306 1412316031 1481011458 -1566208202 564079540 -1923718704 -55928808 432858933 -805716401 502588150 -735514173 -1317659843 1545877251 -1301011859 -2101058011 -1334680962 -673651548 -745487413 -590559966
REM
CELL 1.54180   50.00000   50.00000   50.00000   90.00000   90.00000   90.00000
LATT -1
SFAC C  
C      1  0.5309150000000  0.4058420000000  0.5148470000000 1.0
C      1  0.4932210000000  0.5236480000000  0.5955680000000 1.0
C      1  0.4330980000000  0.4596540000000  0.4688410000000 1.0
C      1  0.4703330000000  0.5075100000000  0.5904140000000 1.0
C      1  0.4230090000000  0.4504600000000  0.5403200000000 1.0
C      1  0.5273100000000  0.5875720000000  0.4947430000000 1.0
C      1  0.5077210000000  0.5083070000000  0.4028680000000 1.0
C      1  0.5773460000000  0.4546770000000  0.4797220000000 1.0
C      1  0.4932780000000  0.4976130000000  0.4944560000000 1.0
C      1  0.4219930000000  0.4773400000000  0.5443830000000 1.0
C      1  0.5050920000000  0.4584170000000  0.3985210000000 1.0
C      1  0.5566780000000  0.5631270000000  0.4621890000000 1.0
C      1  0.4051170000000  0.5211590000000  0.4890780000000 1.0
C      1  0.5498950000000  0.4265260000000  0.5631660000000 1.0
C      1  0.5037560000000  0.4844190000000  0.4479970000000 1.0
C      1  0.5827780000000  0.5014460000000  0.4863470000000 1.0
C      1  0.5646820000000  0.4284990000000  0.4816410000000 1.0
C      1  0.5540320000000  0.4648600000000  0.4590890000000 1.0
C      1  0.5574290000000  0.4212510000000  0.5090100000000 1.0
C      1  0.5284850000000  0.4907830000000  0.5874660000000 1.0
C      1  0.5253060000000  0.4521570000000  0.5418690000000 1.0
C      1  0.5503260000000  0.4658690000000  0.5511750000000 1.0
C      1  0.5701710000000  0.4430480000000  0.5526910000000 1.0
C      1  0.4588000000000  0.4634760000000  0.5691030000000 1.0
C      1  0.4758030000000  0.5512170000000  0.4616550000000 1.0
C      1  0.5322830000000  0.4731800000000  0.4775730000000 1.0
C      1  0.5027130000000  0.4786100000000  0.5799100000000 1.0
C      1  0.5514250000000  0.4890730000000  0.5690410000000 1.0
C      1  0.4858010000000  0.4368570000000  0.4064670000000 1.0
C      1  0.5286580000000  0.4589430000000  0.4180280000000 1.0
C      1  0.4608070000000  0.4159750000000  0.5558690000000 1.0
C      1  0.4597730000000  0.4635890000000  0.4769030000000 1.0
C      1  0.5428810000000  0.5211960000000  0.4538800000000 1.0
C      1  0.5001150000000  0.5902620000000  0.4839550000000 1.0
C      1  0.4661180000000  0.4883740000000  0.4115810000000 1.0
C      1  0.5346450000000  0.5205110000000  0.4060700000000 1.0
C      1  0.5465740000000  0.4354960000000  0.4595750000000 1.0
C      1  0.4430650000000  0.4260080000000  0.5012300000000 1.0
C      1  0.4836480000000  0.4689480000000  0.4846690000000 1.0
C      1  0.4515020000000  0.4658680000000  0.4233210000000 1.0
C      1  0.4689980000000  0.4274440000000  0.5155090000000 1.0
C      1  0.5240790000000  0.5667380000000  0.5820450000000 1.0
C      1  0.4215410000000  0.5452360000000  0.4422070000000 1.0
C      1  0.4775120000000  0.5931050000000  0.5038510000000 1.0
C      1  0.5739500000000  0.4399490000000  0.5231940000000 1.0
C      1  0.4805760000000  0.4533620000000  0.5235760000000 1.0
C      1  0.5829740000000  0.4635390000000  0.5066660000000 1.0
C      1  0.5147380000000  0.5753120000000  0.4458800000000 1.0
C      1  0.5009410000000  0.5385740000000  0.4673510000000 1.0
C      1  0.5141740000000  0.5291330000000  0.5512300000000 1.0
C      1  0.5169320000000  0.4346650000000  0.4600380000000 1.0
C      1  0.4232840000000  0.5099980000000  0.5100200000000 1.0
C      1  0.5830790000000  0.5136910000000  0.5326460000000 1.0
C      1  0.4266830000000  0.4998680000000  0.4476310000000 1.0
C      1  0.5418120000000  0.5307700000000  0.5914300000000 1.0
C      1  0.4139220000000  0.4649000000000  0.4913440000000 1.0
C      1  0.5092470000000  0.4566060000000  0.4401240000000 1.0
C      1  0.5106740000000  0.4066170000000  0.5367780000000 1.0
C      1  0.4912600000000  0.4847810000000  0.3970470000000 1.0
C      1  0.4631550000000  0.4385270000000  0.4252710000000 1.0
C      1  0.5288170000000  0.5453500000000  0.4199880000000 1.0
C      1  0.4469470000000  0.5105510000000  0.4667280000000 1.0
C      1  0.5909600000000  0.5473300000000  0.4782090000000 1.0
C      1  0.4729600000000  0.4703590000000  0.5451920000000 1.0
C      1  0.5399160000000  0.5254280000000  0.5408330000000 1.0
C      1  0.4502070000000  0.5504640000000  0.5730500000000 1.0
C      1  0.4435900000000  0.4396060000000  0.5609940000000 1.0
C      1  0.5638080000000  0.5122690000000  0.5547300000000 1.0
C      1  0.5048260000000  0.5057120000000  0.5392690000000 1.0
C      1  0.4334120000000  0.5619510000000  0.4884530000000 1.0
C      1  0.5127780000000  0.5911370000000  0.5710180000000 1.0
C      1  0.4469500000000  0.4140290000000  0.4746100000000 1.0
C      1  0.5017180000000  0.5448990000000  0.5746140000000 1.0
C      1  0.4403600000000  0.5201810000000  0.5485670000000 1.0
C      1  0.4901760000000  0.5779890000000  0.4584970000000 1.0
C      1  0.5403720000000  0.5096680000000  0.5162620000000 1.0
C      1  0.5900960000000  0.4925070000000  0.5129000000000 1.0
C      1  0.4039140000000  0.4923330000000  0.4956370000000 1.0
C      1  0.5777740000000  0.5431490000000  0.5285990000000 1.0
C      1  0.4599050000000  0.5159430000000  0.4218470000000 1.0
C      1  0.4931290000000  0.4864870000000  0.5546080000000 1.0
C      1  0.4761300000000  0.5626640000000  0.5715800000000 1.0
C      1  0.4227910000000  0.4450890000000  0.5107830000000 1.0
C      1  0.5918160000000  0.5203070000000  0.4615360000000 1.0
C      1  0.4481900000000  0.5100000000000  0.4951570000000 1.0
C      1  0.4309480000000  0.5198490000000  0.4269520000000 1.0
C      1  0.5598540000000  0.5151000000000  0.4952700000000 1.0
C      1  0.5753210000000  0.5588310000000  0.4995620000000 1.0
C      1  0.5112870000000  0.4555370000000  0.4886120000000 1.0
C      1  0.4788580000000  0.5403450000000  0.5174430000000 1.0
C      1  0.5204630000000  0.5915470000000  0.5442810000000 1.0
C      1  0.4809240000000  0.4082040000000  0.5349170000000 1.0
C      1  0.5062240000000  0.5500060000000  0.5150450000000 1.0
C      1  0.4497810000000  0.5785760000000  0.5044470000000 1.0
C      1  0.4211330000000  0.5018440000000  0.5480550000000 1.0
C      1  0.5556230000000  0.5017360000000  0.4178580000000 1.0
C      1  0.4749640000000  0.4781960000000  0.5893340000000 1.0
C      1  0.4376450000000  0.5487810000000  0.5462870000000 1.0
C      1  0.4984020000000  0.5074200000000  0.4306090000000 1.0
C      1  0.4299360000000  0.4715860000000  0.4418880000000 1.0
C      1  0.5142720000000  0.4053550000000  0.4937200000000 1.0
C      1  0.4559650000000  0.4179400000000  0.4465700000000 1.0
C      1  0.5160330000000  0.5279790000000  0.4428320000000 1.0
C      1  0.5401100000000  0.5671990000000  0.4370540000000 1.0
C      1  0.4731210000000  0.5164850000000  0.5040630000000 1.0
C      1  0.5674370000000  0.5545660000000  0.5521600000000 1.0
C      1  0.4172740000000  0.5441340000000  0.4746500000000 1.0
C      1  0.5153420000000  0.4968590000000  0.5138760000000 1.0
C      1  0.4549040000000  0.5570820000000  0.5239990000000 1.0
C      1  0.5085840000000  0.4562060000000  0.5184140000000 1.0
C      1  0.5209480000000  0.5153090000000  0.6025640000000 1.0
C      1  0.5541210000000  0.5769760000000  0.4869090000000 1.0
C      1  0.4726360000000  0.4033590000000  0.4647030000000 1.0
C      1  0.5501070000000  0.4753160000000  0.4274930000000 1.0
C      1  0.5507580000000  0.5543430000000  0.5785340000000 1.0
C      1  0.4828620000000  0.5887290000000  0.5602450000000 1.0
C      1  0.5213800000000  0.5755430000000  0.5211530000000 1.0
C      1  0.4258490000000  0.5677630000000  0.4307100000000 1.0
C      1  0.4649320000000  0.5264800000000  0.4501270000000 1.0
C      1  0.5144840000000  0.4947550000000  0.4734820000000 1.0
C      1  0.5226530000000  0.4254160000000  0.5563020000000 1.0
C      1  0.4464530000000  0.5205070000000  0.5758820000000 1.0
C      1  0.5664850000000  0.5156200000000  0.4413960000000 1.0
C      1  0.5016370000000  0.4089830000000  0.4699210000000 1.0
C      1  0.5166030000000  0.5409460000000  0.4899780000000 1.0
C      1  0.4802480000000  0.5926430000000  0.5314720000000 1.0
C      1  0.5457800000000  0.5359660000000  0.4785040000000 1.0
END
