TITL C-883728-9229-48 51.0877163075187 125000 -23582.1787018516 0 0 160 (C1) n - 1
REM
REM in /home/nfs/bkarasulu/CARBON/AIRSS/Generating-Clusters/ReaxFF-fromJPCA2015/Units_Real/with-SteepDescent/Only-C1/SD-CG/Try1-3A/FIRE-CG
REM
REM
REM
REM
REM
REM ./C.cell (11c1c37f851c82e70ff6c80c92926a4b)
REM
REM compiler GCC version 9.2.1 20190827 (Red Hat 9.2.1-1)
REM options -cpp -mtune=generic -march=x86-64 -g -O0 -fpre-include=/usr/include/finclude/math-vector-fortran.h
REM seed -716284795 1413732982 -2130629399 -1138716833 1143342114 1328940875 -988683859 -1996208734 -557921508 543150474 741414806 -2010666377 1090501674 1762471042 -1104157663 -904496070 -948796688 -1304457527 -637069766 140917618 -706454458 270736104 538480820 -956244918 -248360825 1680134126 1363353016 1232104504 603697418 -1347189108 286270513 -1236202458 480673509
REM
CELL 1.54180   50.00000   50.00000   50.00000   90.00000   90.00000   90.00000
LATT -1
SFAC C  
C      1  0.5285340000000  0.5642260000000  0.4353310000000 1.0
C      1  0.4249660000000  0.4420940000000  0.4589920000000 1.0
C      1  0.4783600000000  0.4990310000000  0.5538440000000 1.0
C      1  0.4435100000000  0.4459150000000  0.5519090000000 1.0
C      1  0.4729120000000  0.4104540000000  0.5377510000000 1.0
C      1  0.5908460000000  0.4637330000000  0.4604060000000 1.0
C      1  0.4574220000000  0.5376310000000  0.4726480000000 1.0
C      1  0.4389030000000  0.5432770000000  0.5129430000000 1.0
C      1  0.4980460000000  0.4955180000000  0.5342420000000 1.0
C      1  0.5391030000000  0.4635910000000  0.5822160000000 1.0
C      1  0.4507540000000  0.4830760000000  0.5210780000000 1.0
C      1  0.4566190000000  0.5671940000000  0.5748270000000 1.0
C      1  0.5318460000000  0.4098820000000  0.4487150000000 1.0
C      1  0.5789270000000  0.5063510000000  0.4314400000000 1.0
C      1  0.4557110000000  0.4004140000000  0.4651050000000 1.0
C      1  0.5262380000000  0.5255750000000  0.5613950000000 1.0
C      1  0.5007910000000  0.5287290000000  0.4547840000000 1.0
C      1  0.4501300000000  0.5036400000000  0.5996920000000 1.0
C      1  0.4667780000000  0.4761590000000  0.4190030000000 1.0
C      1  0.3942140000000  0.5199660000000  0.5550500000000 1.0
C      1  0.5001950000000  0.5651900000000  0.4256240000000 1.0
C      1  0.4789060000000  0.5024390000000  0.6076040000000 1.0
C      1  0.5329050000000  0.6142330000000  0.5414640000000 1.0
C      1  0.5552980000000  0.4566210000000  0.4997090000000 1.0
C      1  0.5029380000000  0.4063720000000  0.4526730000000 1.0
C      1  0.5696110000000  0.4902670000000  0.4695510000000 1.0
C      1  0.5756490000000  0.4841180000000  0.5515200000000 1.0
C      1  0.4729320000000  0.6003840000000  0.4867690000000 1.0
C      1  0.4755860000000  0.4337980000000  0.4063330000000 1.0
C      1  0.4962820000000  0.5863620000000  0.5598120000000 1.0
C      1  0.4870970000000  0.5027820000000  0.4563480000000 1.0
C      1  0.4984310000000  0.4478810000000  0.3972060000000 1.0
C      1  0.5418940000000  0.4723850000000  0.4029970000000 1.0
C      1  0.5493590000000  0.4247450000000  0.5502950000000 1.0
C      1  0.4625440000000  0.4124360000000  0.4943370000000 1.0
C      1  0.5790070000000  0.5530750000000  0.5279350000000 1.0
C      1  0.4883340000000  0.5881980000000  0.5105320000000 1.0
C      1  0.4110050000000  0.5451100000000  0.5616580000000 1.0
C      1  0.5325950000000  0.3974690000000  0.4979160000000 1.0
C      1  0.5380210000000  0.5029250000000  0.4018090000000 1.0
C      1  0.4802150000000  0.3989370000000  0.5129960000000 1.0
C      1  0.4921670000000  0.5970420000000  0.4651490000000 1.0
C      1  0.5931020000000  0.5342870000000  0.4939290000000 1.0
C      1  0.5257120000000  0.5463250000000  0.5133130000000 1.0
C      1  0.5249600000000  0.4131010000000  0.5468220000000 1.0
C      1  0.5353630000000  0.4526720000000  0.4799700000000 1.0
C      1  0.4458040000000  0.4197880000000  0.5402270000000 1.0
C      1  0.5012940000000  0.4487440000000  0.5285640000000 1.0
C      1  0.5192760000000  0.4714270000000  0.5348620000000 1.0
C      1  0.4834460000000  0.5599330000000  0.5045600000000 1.0
C      1  0.5416160000000  0.4913080000000  0.4564100000000 1.0
C      1  0.4266530000000  0.5423700000000  0.4597570000000 1.0
C      1  0.4143430000000  0.5561930000000  0.5075660000000 1.0
C      1  0.4560730000000  0.4602800000000  0.4410840000000 1.0
C      1  0.4506500000000  0.5328930000000  0.6006660000000 1.0
C      1  0.5220330000000  0.5295330000000  0.4713570000000 1.0
C      1  0.5827220000000  0.5020690000000  0.5731540000000 1.0
C      1  0.5138480000000  0.4739070000000  0.4846970000000 1.0
C      1  0.4602870000000  0.5622810000000  0.5463290000000 1.0
C      1  0.4310390000000  0.4668310000000  0.5354340000000 1.0
C      1  0.5518920000000  0.5623480000000  0.5757270000000 1.0
C      1  0.4753320000000  0.4786310000000  0.5722240000000 1.0
C      1  0.5750660000000  0.4982600000000  0.6043970000000 1.0
C      1  0.5010530000000  0.5505010000000  0.5942040000000 1.0
C      1  0.4385450000000  0.4096660000000  0.5149550000000 1.0
C      1  0.5896030000000  0.4431580000000  0.5250860000000 1.0
C      1  0.5338510000000  0.5361010000000  0.5377300000000 1.0
C      1  0.5632410000000  0.5714460000000  0.5093770000000 1.0
C      1  0.4354980000000  0.5491160000000  0.5818010000000 1.0
C      1  0.5206530000000  0.4152590000000  0.5174550000000 1.0
C      1  0.5065160000000  0.3933440000000  0.5076620000000 1.0
C      1  0.4702270000000  0.4418450000000  0.4901530000000 1.0
C      1  0.4432460000000  0.4957110000000  0.4952400000000 1.0
C      1  0.5673470000000  0.4851700000000  0.5009810000000 1.0
C      1  0.5671710000000  0.5524370000000  0.4408730000000 1.0
C      1  0.5304710000000  0.6246810000000  0.5188410000000 1.0
C      1  0.4786360000000  0.5465180000000  0.4153240000000 1.0
C      1  0.4784210000000  0.5831830000000  0.5380440000000 1.0
C      1  0.4565200000000  0.5581700000000  0.4963100000000 1.0
C      1  0.5468320000000  0.5058590000000  0.5100380000000 1.0
C      1  0.5138100000000  0.4896510000000  0.4588650000000 1.0
C      1  0.4892650000000  0.5085730000000  0.5077980000000 1.0
C      1  0.5110250000000  0.4577280000000  0.5902060000000 1.0
C      1  0.5715230000000  0.4330900000000  0.5046890000000 1.0
C      1  0.4387910000000  0.4967110000000  0.4420010000000 1.0
C      1  0.4477850000000  0.5872310000000  0.4851290000000 1.0
C      1  0.5628590000000  0.5728780000000  0.4806970000000 1.0
C      1  0.4160800000000  0.5025540000000  0.4860800000000 1.0
C      1  0.6079690000000  0.4674800000000  0.4854240000000 1.0
C      1  0.5835260000000  0.4776990000000  0.4315720000000 1.0
C      1  0.4964800000000  0.4272790000000  0.5496830000000 1.0
C      1  0.5353020000000  0.5755000000000  0.5177620000000 1.0
C      1  0.4812810000000  0.5314250000000  0.6045780000000 1.0
C      1  0.4908390000000  0.4424020000000  0.5763360000000 1.0
C      1  0.4777130000000  0.4611020000000  0.5116310000000 1.0
C      1  0.4516220000000  0.5361740000000  0.5362570000000 1.0
C      1  0.3950850000000  0.4611070000000  0.5022890000000 1.0
C      1  0.3929870000000  0.5089890000000  0.5034700000000 1.0
C      1  0.5875060000000  0.4929090000000  0.5249120000000 1.0
C      1  0.5706130000000  0.4420670000000  0.5479720000000 1.0
C      1  0.5468520000000  0.4042890000000  0.4734360000000 1.0
C      1  0.5563350000000  0.5192870000000  0.4164550000000 1.0
C      1  0.4494720000000  0.5457590000000  0.4255720000000 1.0
C      1  0.4806660000000  0.3863000000000  0.4572500000000 1.0
C      1  0.4982510000000  0.5381680000000  0.5087580000000 1.0
C      1  0.5627110000000  0.4645420000000  0.4189020000000 1.0
C      1  0.4029050000000  0.4723510000000  0.5286760000000 1.0
C      1  0.5903330000000  0.5260980000000  0.5190910000000 1.0
C      1  0.4874410000000  0.4303630000000  0.4450750000000 1.0
C      1  0.4312650000000  0.5242370000000  0.4351240000000 1.0
C      1  0.4115940000000  0.5037200000000  0.5690550000000 1.0
C      1  0.4282810000000  0.5833180000000  0.4642480000000 1.0
C      1  0.5838020000000  0.5142840000000  0.4591120000000 1.0
C      1  0.4531560000000  0.5079820000000  0.5451770000000 1.0
C      1  0.5750760000000  0.4385130000000  0.4595630000000 1.0
C      1  0.5738980000000  0.5532970000000  0.5571800000000 1.0
C      1  0.4332500000000  0.5654590000000  0.4404010000000 1.0
C      1  0.5207450000000  0.5990910000000  0.5040470000000 1.0
C      1  0.5480490000000  0.4461740000000  0.4554100000000 1.0
C      1  0.5394790000000  0.5777060000000  0.4613090000000 1.0
C      1  0.4854410000000  0.5715140000000  0.5822200000000 1.0
C      1  0.4829940000000  0.4735530000000  0.3953570000000 1.0
C      1  0.5281170000000  0.4845290000000  0.5103220000000 1.0
C      1  0.5427320000000  0.5303130000000  0.4875130000000 1.0
C      1  0.5689170000000  0.5382390000000  0.4634050000000 1.0
C      1  0.4795380000000  0.5484180000000  0.4570180000000 1.0
C      1  0.5487790000000  0.5484970000000  0.4205400000000 1.0
C      1  0.5547250000000  0.4801340000000  0.5967650000000 1.0
C      1  0.5150030000000  0.5145990000000  0.3883960000000 1.0
C      1  0.5515160000000  0.4659240000000  0.5538320000000 1.0
C      1  0.4638340000000  0.4200810000000  0.4281040000000 1.0
C      1  0.5741370000000  0.5245630000000  0.5573010000000 1.0
C      1  0.5485830000000  0.5150280000000  0.5436300000000 1.0
C      1  0.4204920000000  0.4292230000000  0.5096110000000 1.0
C      1  0.5201620000000  0.5950940000000  0.4731090000000 1.0
C      1  0.3939750000000  0.5004570000000  0.5314970000000 1.0
C      1  0.5258890000000  0.4486140000000  0.4095390000000 1.0
C      1  0.4128310000000  0.5627780000000  0.4777340000000 1.0
C      1  0.4744170000000  0.4493160000000  0.4628800000000 1.0
C      1  0.4827840000000  0.5757160000000  0.4463610000000 1.0
C      1  0.4900950000000  0.5003740000000  0.3847050000000 1.0
C      1  0.3922640000000  0.4856020000000  0.4860780000000 1.0
C      1  0.4923930000000  0.4796430000000  0.5941360000000 1.0
C      1  0.4648900000000  0.4533260000000  0.5694940000000 1.0
C      1  0.4386010000000  0.4994840000000  0.5725810000000 1.0
C      1  0.5242670000000  0.5887910000000  0.5489840000000 1.0
C      1  0.5867610000000  0.5563790000000  0.4763540000000 1.0
C      1  0.4655270000000  0.5103290000000  0.4832120000000 1.0
C      1  0.4886050000000  0.5280900000000  0.3950490000000 1.0
C      1  0.5720940000000  0.4177920000000  0.4790930000000 1.0
C      1  0.6024950000000  0.4677840000000  0.5137450000000 1.0
C      1  0.5366830000000  0.5849440000000  0.5692200000000 1.0
C      1  0.5283430000000  0.5452250000000  0.5822600000000 1.0
C      1  0.5380220000000  0.4340070000000  0.4321120000000 1.0
C      1  0.4666600000000  0.4989710000000  0.4353510000000 1.0
C      1  0.4904860000000  0.4817060000000  0.4981750000000 1.0
C      1  0.4286440000000  0.4680850000000  0.4458500000000 1.0
C      1  0.4072230000000  0.5545310000000  0.5350140000000 1.0
C      1  0.4411120000000  0.4197320000000  0.4485830000000 1.0
C      1  0.4104220000000  0.4405600000000  0.4869470000000 1.0
END
