TITL C-883727-9645-33 -125248.109706914 125000 -13562.4657742953 0 0 91 (C1) n - 1
REM
REM in /home/nfs/bkarasulu/CARBON/AIRSS/Generating-Clusters/ReaxFF-fromJPCA2015/Units_Real/with-SteepDescent/Only-C1/SD-CG/Try1-3A/FIRE-CG
REM
REM
REM
REM
REM
REM ./C.cell (11c1c37f851c82e70ff6c80c92926a4b)
REM
REM compiler GCC version 9.2.1 20190827 (Red Hat 9.2.1-1)
REM options -cpp -mtune=generic -march=x86-64 -g -O0 -fpre-include=/usr/include/finclude/math-vector-fortran.h
REM seed 1006765955 1625009269 -537691362 -1796149285 -2077875356 -2028738631 1450723034 -561116730 -277038203 -110208515 588278881 -1621621047 -1824327347 -84293323 -840042075 -441347248 -604982881 -804005323 36469950 -955124496 1317783316 454819034 -931391111 -997851492 -1713840101 1533149597 421760098 -414857385 -1628839095 -1645423096 -71012278 749286189 1705789119
REM
CELL 1.54180   50.00000   50.00000   50.00000   90.00000   90.00000   90.00000
LATT -1
SFAC C  
C      1  0.4961040000000  0.4349320000000  0.5517250000000 1.0
C      1  0.5890180000000  0.5106060000000  0.4583090000000 1.0
C      1  0.5189350000000  0.4182900000000  0.4845920000000 1.0
C      1  0.4688040000000  0.4682810000000  0.5834590000000 1.0
C      1  0.5051760000000  0.5619500000000  0.4754810000000 1.0
C      1  0.4742890000000  0.4422150000000  0.5695930000000 1.0
C      1  0.5698610000000  0.5468580000000  0.4786490000000 1.0
C      1  0.4723890000000  0.5291680000000  0.5723130000000 1.0
C      1  0.5587350000000  0.5280220000000  0.5489690000000 1.0
C      1  0.5191210000000  0.4982280000000  0.4728860000000 1.0
C      1  0.4831260000000  0.4337540000000  0.4537760000000 1.0
C      1  0.4932190000000  0.4186690000000  0.4993880000000 1.0
C      1  0.4942560000000  0.4697560000000  0.5037320000000 1.0
C      1  0.4818340000000  0.5000250000000  0.4418780000000 1.0
C      1  0.4660350000000  0.5575660000000  0.5297740000000 1.0
C      1  0.4829210000000  0.5730470000000  0.4586760000000 1.0
C      1  0.4952330000000  0.5557860000000  0.5294980000000 1.0
C      1  0.5637070000000  0.5011400000000  0.5912790000000 1.0
C      1  0.5089190000000  0.5312970000000  0.5386430000000 1.0
C      1  0.4577930000000  0.4420390000000  0.5260670000000 1.0
C      1  0.4545300000000  0.5421170000000  0.5545580000000 1.0
C      1  0.5216410000000  0.5707120000000  0.5316660000000 1.0
C      1  0.5296650000000  0.4527020000000  0.5142250000000 1.0
C      1  0.4383960000000  0.4887070000000  0.4317560000000 1.0
C      1  0.4901690000000  0.4869050000000  0.5909120000000 1.0
C      1  0.4799390000000  0.5562010000000  0.4342970000000 1.0
C      1  0.5762890000000  0.5368930000000  0.4521740000000 1.0
C      1  0.5325450000000  0.4939250000000  0.4166210000000 1.0
C      1  0.4178910000000  0.4867180000000  0.4538740000000 1.0
C      1  0.4581760000000  0.5101050000000  0.4306220000000 1.0
C      1  0.5660420000000  0.4769790000000  0.4691670000000 1.0
C      1  0.5398100000000  0.5164790000000  0.5943330000000 1.0
C      1  0.4667080000000  0.5752340000000  0.4821220000000 1.0
C      1  0.4594730000000  0.4684530000000  0.4306890000000 1.0
C      1  0.5196570000000  0.4504910000000  0.5596690000000 1.0
C      1  0.4890640000000  0.4748560000000  0.4313070000000 1.0
C      1  0.5584270000000  0.4793820000000  0.5417530000000 1.0
C      1  0.4515920000000  0.4470400000000  0.5530180000000 1.0
C      1  0.5119300000000  0.4768830000000  0.5728960000000 1.0
C      1  0.4441220000000  0.4707840000000  0.5676970000000 1.0
C      1  0.5797280000000  0.5000890000000  0.4842520000000 1.0
C      1  0.5283720000000  0.5376530000000  0.5595520000000 1.0
C      1  0.4459780000000  0.4559700000000  0.5013090000000 1.0
C      1  0.5025290000000  0.5202710000000  0.4064220000000 1.0
C      1  0.5296440000000  0.4367550000000  0.4634650000000 1.0
C      1  0.4561290000000  0.4448400000000  0.4482750000000 1.0
C      1  0.5427050000000  0.5605340000000  0.5139340000000 1.0
C      1  0.4834450000000  0.4302390000000  0.5252660000000 1.0
C      1  0.4171030000000  0.4922530000000  0.4822980000000 1.0
C      1  0.5307590000000  0.5498710000000  0.4371390000000 1.0
C      1  0.4362790000000  0.5172520000000  0.4906880000000 1.0
C      1  0.4663060000000  0.5062150000000  0.4879710000000 1.0
C      1  0.5536970000000  0.4507660000000  0.4743090000000 1.0
C      1  0.5234650000000  0.5152880000000  0.5190400000000 1.0
C      1  0.4995970000000  0.4875170000000  0.5506890000000 1.0
C      1  0.4351970000000  0.5479780000000  0.4842690000000 1.0
C      1  0.5603890000000  0.5381980000000  0.5219570000000 1.0
C      1  0.5744310000000  0.4895360000000  0.4439960000000 1.0
C      1  0.5049500000000  0.5452690000000  0.4227980000000 1.0
C      1  0.4528310000000  0.5648220000000  0.5045030000000 1.0
C      1  0.4699180000000  0.5113210000000  0.5164140000000 1.0
C      1  0.4345660000000  0.5211350000000  0.5571300000000 1.0
C      1  0.5058830000000  0.4535130000000  0.4554500000000 1.0
C      1  0.4487360000000  0.4373700000000  0.4761710000000 1.0
C      1  0.5455560000000  0.5627840000000  0.4846100000000 1.0
C      1  0.5289710000000  0.5638980000000  0.4618720000000 1.0
C      1  0.5672770000000  0.5026230000000  0.5596120000000 1.0
C      1  0.5182990000000  0.5183750000000  0.4925260000000 1.0
C      1  0.4908620000000  0.5171040000000  0.5882660000000 1.0
C      1  0.4902830000000  0.4918040000000  0.5255860000000 1.0
C      1  0.5338300000000  0.4236620000000  0.5083400000000 1.0
C      1  0.5544420000000  0.5340800000000  0.4334330000000 1.0
C      1  0.4240430000000  0.4942140000000  0.5273090000000 1.0
C      1  0.5428500000000  0.4961150000000  0.5265350000000 1.0
C      1  0.5182250000000  0.5321060000000  0.5870870000000 1.0
C      1  0.5733990000000  0.5256150000000  0.4979310000000 1.0
C      1  0.5557290000000  0.5049350000000  0.4255910000000 1.0
C      1  0.4997410000000  0.5132540000000  0.4569230000000 1.0
C      1  0.5411710000000  0.4544280000000  0.5407230000000 1.0
C      1  0.5243180000000  0.5624670000000  0.5586830000000 1.0
C      1  0.4281270000000  0.4932170000000  0.5567560000000 1.0
C      1  0.5545230000000  0.4441660000000  0.5028060000000 1.0
C      1  0.5134020000000  0.4703570000000  0.4813330000000 1.0
C      1  0.5062390000000  0.4905590000000  0.4096620000000 1.0
C      1  0.4971830000000  0.5326700000000  0.4794350000000 1.0
C      1  0.4222220000000  0.4753150000000  0.5051500000000 1.0
C      1  0.4687850000000  0.4774410000000  0.4920080000000 1.0
C      1  0.4409030000000  0.5151330000000  0.5179130000000 1.0
C      1  0.4437800000000  0.5455460000000  0.4585340000000 1.0
C      1  0.4725550000000  0.4202120000000  0.4782280000000 1.0
C      1  0.4551110000000  0.5400680000000  0.4338050000000 1.0
END
