TITL C-884134-5972-398 27.2873601771032 125000 -18283.9853280994 0 0 124 (C1) n - 1
REM
REM in /home/nfs/bkarasulu/CARBON/AIRSS/Generating-Clusters/ReaxFF-fromJPCA2015/Units_Real/with-SteepDescent/Only-C1/SD-CG/Try1-3A/FIRE-CG
REM
REM
REM
REM
REM
REM ./C.cell (11c1c37f851c82e70ff6c80c92926a4b)
REM
REM compiler GCC version 9.2.1 20190827 (Red Hat 9.2.1-1)
REM options -cpp -mtune=generic -march=x86-64 -g -O0 -fpre-include=/usr/include/finclude/math-vector-fortran.h
REM seed 1705172430 352493895 -304717774 -1791281123 -1125149594 700099961 -708209925 1254957376 55475694 1162363911 1118406995 -61176504 -49396252 1124734864 -56243555 -1092599615 -414994389 -1266419817 -97101506 -502389004 615607918 -577598065 -705589022 -1869160503 -1237425290 -1542565259 1051073193 -575725694 -218535616 -1702258572 1641301767 2093738184 210437334
REM
CELL 1.54180   50.00000   50.00000   50.00000   90.00000   90.00000   90.00000
LATT -1
SFAC C  
C      1  0.5028560000000  0.4689620000000  0.5046120000000 1.0
C      1  0.5544430000000  0.5701750000000  0.4824580000000 1.0
C      1  0.5440290000000  0.5275760000000  0.4811700000000 1.0
C      1  0.5458240000000  0.4643100000000  0.4694570000000 1.0
C      1  0.5553850000000  0.4381980000000  0.5556300000000 1.0
C      1  0.5578690000000  0.4232160000000  0.5119740000000 1.0
C      1  0.5786760000000  0.5278870000000  0.5486300000000 1.0
C      1  0.5495340000000  0.4667330000000  0.4969300000000 1.0
C      1  0.4257440000000  0.4656770000000  0.4534900000000 1.0
C      1  0.4381990000000  0.4364490000000  0.4917640000000 1.0
C      1  0.5265690000000  0.5456650000000  0.4041840000000 1.0
C      1  0.5163980000000  0.5368380000000  0.4829620000000 1.0
C      1  0.5394220000000  0.5646220000000  0.4594550000000 1.0
C      1  0.4524900000000  0.4593530000000  0.4882440000000 1.0
C      1  0.5439460000000  0.5261640000000  0.4201200000000 1.0
C      1  0.4478140000000  0.4992190000000  0.5450910000000 1.0
C      1  0.3992610000000  0.4603700000000  0.4450110000000 1.0
C      1  0.4418390000000  0.5325860000000  0.5773220000000 1.0
C      1  0.5120850000000  0.5636450000000  0.5622430000000 1.0
C      1  0.4473810000000  0.5086010000000  0.5941590000000 1.0
C      1  0.5749870000000  0.5612280000000  0.4995140000000 1.0
C      1  0.4986110000000  0.5199650000000  0.5903660000000 1.0
C      1  0.5021530000000  0.5846470000000  0.5445970000000 1.0
C      1  0.4331840000000  0.5702260000000  0.5155870000000 1.0
C      1  0.4394320000000  0.5643780000000  0.4621130000000 1.0
C      1  0.4981340000000  0.4460080000000  0.4311320000000 1.0
C      1  0.4510870000000  0.5771310000000  0.5656630000000 1.0
C      1  0.4444310000000  0.4818710000000  0.5838390000000 1.0
C      1  0.5398990000000  0.5538560000000  0.5657550000000 1.0
C      1  0.5689920000000  0.4479270000000  0.5044220000000 1.0
C      1  0.4761990000000  0.5804340000000  0.5254740000000 1.0
C      1  0.5184690000000  0.4923830000000  0.4973840000000 1.0
C      1  0.4642930000000  0.4347100000000  0.4309810000000 1.0
C      1  0.5575860000000  0.5113780000000  0.5600200000000 1.0
C      1  0.4678200000000  0.4126110000000  0.4499660000000 1.0
C      1  0.4211650000000  0.5419280000000  0.4589910000000 1.0
C      1  0.5389190000000  0.4959140000000  0.4167370000000 1.0
C      1  0.4636400000000  0.5526840000000  0.5763850000000 1.0
C      1  0.4827560000000  0.5530080000000  0.4569640000000 1.0
C      1  0.4722480000000  0.4787700000000  0.5804550000000 1.0
C      1  0.4482480000000  0.5836250000000  0.5365240000000 1.0
C      1  0.5296480000000  0.4208640000000  0.5001790000000 1.0
C      1  0.4836000000000  0.4443420000000  0.5453750000000 1.0
C      1  0.5935330000000  0.4620090000000  0.5154210000000 1.0
C      1  0.5497060000000  0.4365950000000  0.4582590000000 1.0
C      1  0.4609170000000  0.5289230000000  0.4068640000000 1.0
C      1  0.5121570000000  0.4108630000000  0.4558450000000 1.0
C      1  0.5632010000000  0.5534570000000  0.5477470000000 1.0
C      1  0.5068230000000  0.4592450000000  0.4603290000000 1.0
C      1  0.5765450000000  0.5096310000000  0.5035870000000 1.0
C      1  0.5408900000000  0.4967460000000  0.5396870000000 1.0
C      1  0.5103680000000  0.4476280000000  0.4865520000000 1.0
C      1  0.4257240000000  0.4359550000000  0.4645380000000 1.0
C      1  0.5925060000000  0.4840780000000  0.4656080000000 1.0
C      1  0.4427260000000  0.4210620000000  0.4465570000000 1.0
C      1  0.5328130000000  0.4170140000000  0.4723740000000 1.0
C      1  0.4456370000000  0.5003930000000  0.5169510000000 1.0
C      1  0.5525420000000  0.4715900000000  0.4265300000000 1.0
C      1  0.5670810000000  0.4743760000000  0.4519160000000 1.0
C      1  0.5437660000000  0.4428570000000  0.4304820000000 1.0
C      1  0.4452080000000  0.5750770000000  0.4890670000000 1.0
C      1  0.5270740000000  0.4572100000000  0.5832300000000 1.0
C      1  0.5061280000000  0.4140840000000  0.5174840000000 1.0
C      1  0.5127610000000  0.4980130000000  0.5434570000000 1.0
C      1  0.4825490000000  0.4776660000000  0.4551040000000 1.0
C      1  0.4704850000000  0.5546650000000  0.4164680000000 1.0
C      1  0.4110360000000  0.4879750000000  0.4721930000000 1.0
C      1  0.5012050000000  0.5164390000000  0.4974470000000 1.0
C      1  0.5064090000000  0.4267250000000  0.5442480000000 1.0
C      1  0.5672110000000  0.4643410000000  0.5586620000000 1.0
C      1  0.4052170000000  0.4760550000000  0.4981030000000 1.0
C      1  0.5278340000000  0.4372350000000  0.5619650000000 1.0
C      1  0.4903420000000  0.5133990000000  0.4161710000000 1.0
C      1  0.5610490000000  0.5194750000000  0.4581890000000 1.0
C      1  0.4961710000000  0.5905310000000  0.4821830000000 1.0
C      1  0.4927850000000  0.4718030000000  0.5351460000000 1.0
C      1  0.4248080000000  0.5171200000000  0.4779600000000 1.0
C      1  0.5840280000000  0.5101180000000  0.4746980000000 1.0
C      1  0.5107190000000  0.5483980000000  0.5230090000000 1.0
C      1  0.5617730000000  0.4226960000000  0.5347860000000 1.0
C      1  0.5435560000000  0.5285790000000  0.5795130000000 1.0
C      1  0.4924100000000  0.5421040000000  0.5700350000000 1.0
C      1  0.4872680000000  0.4092340000000  0.4698480000000 1.0
C      1  0.5082500000000  0.5641450000000  0.4684650000000 1.0
C      1  0.4745370000000  0.4873510000000  0.5527060000000 1.0
C      1  0.5197040000000  0.4256980000000  0.4312130000000 1.0
C      1  0.4883420000000  0.5051940000000  0.4444060000000 1.0
C      1  0.5121620000000  0.4923590000000  0.4056840000000 1.0
C      1  0.5023840000000  0.4655170000000  0.4078900000000 1.0
C      1  0.4253820000000  0.5434850000000  0.5268440000000 1.0
C      1  0.4616080000000  0.5663400000000  0.4423100000000 1.0
C      1  0.6046400000000  0.4717330000000  0.4899490000000 1.0
C      1  0.4544510000000  0.5097760000000  0.4757710000000 1.0
C      1  0.5472690000000  0.4915020000000  0.5097550000000 1.0
C      1  0.4583030000000  0.4225290000000  0.5099480000000 1.0
C      1  0.5641840000000  0.5335450000000  0.5007600000000 1.0
C      1  0.4570830000000  0.4642360000000  0.4379750000000 1.0
C      1  0.4319850000000  0.4772390000000  0.5594540000000 1.0
C      1  0.5001350000000  0.5248540000000  0.5403170000000 1.0
C      1  0.5251160000000  0.5131210000000  0.5942610000000 1.0
C      1  0.4704110000000  0.5884780000000  0.4960210000000 1.0
C      1  0.4571180000000  0.4374910000000  0.5352690000000 1.0
C      1  0.4752030000000  0.5241030000000  0.4613970000000 1.0
C      1  0.5202130000000  0.5963130000000  0.5253030000000 1.0
C      1  0.5501000000000  0.4738600000000  0.5801150000000 1.0
C      1  0.5231930000000  0.4864630000000  0.5854740000000 1.0
C      1  0.4760210000000  0.5027380000000  0.5975960000000 1.0
C      1  0.4151090000000  0.5326560000000  0.4323230000000 1.0
C      1  0.4836960000000  0.5517540000000  0.5126480000000 1.0
C      1  0.5854740000000  0.4776720000000  0.5395250000000 1.0
C      1  0.5123140000000  0.6088970000000  0.4985830000000 1.0
C      1  0.5879450000000  0.5058320000000  0.5318750000000 1.0
C      1  0.4649620000000  0.4833440000000  0.4811770000000 1.0
C      1  0.5608230000000  0.5700140000000  0.5237120000000 1.0
C      1  0.4836070000000  0.4124630000000  0.4993180000000 1.0
C      1  0.4338730000000  0.5284160000000  0.5501660000000 1.0
C      1  0.4333590000000  0.5208060000000  0.4108170000000 1.0
C      1  0.4788590000000  0.5228660000000  0.5174460000000 1.0
C      1  0.4990650000000  0.5432640000000  0.4146380000000 1.0
C      1  0.5520650000000  0.5424490000000  0.4429390000000 1.0
C      1  0.4267550000000  0.5212560000000  0.5086580000000 1.0
C      1  0.4345480000000  0.4567050000000  0.5394880000000 1.0
C      1  0.5312680000000  0.5696010000000  0.5178340000000 1.0
C      1  0.4282550000000  0.4764310000000  0.5184260000000 1.0
END
