TITL C-884132-5695-338 54.9998091875951 125000 -15976.3812656884 0 0 107 (C1) n - 1
REM
REM in /home/nfs/bkarasulu/CARBON/AIRSS/Generating-Clusters/ReaxFF-fromJPCA2015/Units_Real/with-SteepDescent/Only-C1/SD-CG/Try1-3A/FIRE-CG
REM
REM
REM
REM
REM
REM ./C.cell (11c1c37f851c82e70ff6c80c92926a4b)
REM
REM compiler GCC version 9.2.1 20190827 (Red Hat 9.2.1-1)
REM options -cpp -mtune=generic -march=x86-64 -g -O0 -fpre-include=/usr/include/finclude/math-vector-fortran.h
REM seed 746753471 483670622 1360225246 1810018841 -853065877 -1350207241 379392568 744882555 -580837029 1468087819 -250709662 3830604 -14785678 -244891964 -2076117270 11470108 1585781385 525350627 -1084206172 -1254706689 -431978828 -1815944198 559060658 -502495196 559305716 -1065832822 -1583225110 286232442 -414019835 353658249 943060591 649921224 -329589440
REM
CELL 1.54180   50.00000   50.00000   50.00000   90.00000   90.00000   90.00000
LATT -1
SFAC C  
C      1  0.5722590000000  0.5362610000000  0.5093850000000 1.0
C      1  0.5223850000000  0.4672960000000  0.4513280000000 1.0
C      1  0.5533100000000  0.4472470000000  0.5591570000000 1.0
C      1  0.4291100000000  0.5297710000000  0.4579550000000 1.0
C      1  0.5830380000000  0.5013130000000  0.4773870000000 1.0
C      1  0.4140470000000  0.5206430000000  0.4806050000000 1.0
C      1  0.4801440000000  0.5324550000000  0.4213420000000 1.0
C      1  0.5840430000000  0.4814830000000  0.4991080000000 1.0
C      1  0.4190800000000  0.5184440000000  0.5280370000000 1.0
C      1  0.4788150000000  0.4429040000000  0.5473270000000 1.0
C      1  0.4952330000000  0.5792340000000  0.5479570000000 1.0
C      1  0.4595840000000  0.5874940000000  0.4798990000000 1.0
C      1  0.4909880000000  0.4964190000000  0.5946900000000 1.0
C      1  0.4717100000000  0.4885230000000  0.5226120000000 1.0
C      1  0.5214990000000  0.5667330000000  0.4519720000000 1.0
C      1  0.4356190000000  0.4703070000000  0.5706470000000 1.0
C      1  0.4703880000000  0.5055950000000  0.4163820000000 1.0
C      1  0.5155110000000  0.4816730000000  0.4233560000000 1.0
C      1  0.4933070000000  0.5719630000000  0.4531280000000 1.0
C      1  0.4763130000000  0.4553700000000  0.4224770000000 1.0
C      1  0.4624580000000  0.4565770000000  0.5695470000000 1.0
C      1  0.5240250000000  0.4288360000000  0.4378840000000 1.0
C      1  0.5114080000000  0.5280920000000  0.4233790000000 1.0
C      1  0.5409360000000  0.5028280000000  0.5824020000000 1.0
C      1  0.5179280000000  0.4815580000000  0.4988590000000 1.0
C      1  0.4725160000000  0.5531920000000  0.4417510000000 1.0
C      1  0.4629370000000  0.4321530000000  0.5239640000000 1.0
C      1  0.4729610000000  0.5902960000000  0.5289150000000 1.0
C      1  0.4894710000000  0.4783720000000  0.5454560000000 1.0
C      1  0.5008260000000  0.5615190000000  0.5704500000000 1.0
C      1  0.5392790000000  0.4429010000000  0.5173420000000 1.0
C      1  0.4771480000000  0.5206390000000  0.4861520000000 1.0
C      1  0.4746300000000  0.5441370000000  0.5734270000000 1.0
C      1  0.5284380000000  0.4858460000000  0.4727890000000 1.0
C      1  0.5138440000000  0.5818130000000  0.5046760000000 1.0
C      1  0.5314440000000  0.5333420000000  0.4853110000000 1.0
C      1  0.5203260000000  0.4870510000000  0.5967160000000 1.0
C      1  0.4901920000000  0.4765820000000  0.5030300000000 1.0
C      1  0.5575170000000  0.5372680000000  0.4389700000000 1.0
C      1  0.4922610000000  0.5965050000000  0.5025820000000 1.0
C      1  0.4189270000000  0.4377830000000  0.4972740000000 1.0
C      1  0.4879760000000  0.4812570000000  0.4147850000000 1.0
C      1  0.5682190000000  0.4616600000000  0.4566680000000 1.0
C      1  0.5671870000000  0.4697380000000  0.5500350000000 1.0
C      1  0.4306100000000  0.4992110000000  0.5706030000000 1.0
C      1  0.4776370000000  0.5462500000000  0.5172930000000 1.0
C      1  0.4328170000000  0.5235310000000  0.5535460000000 1.0
C      1  0.5344330000000  0.5677970000000  0.5066750000000 1.0
C      1  0.4422050000000  0.4629380000000  0.4585430000000 1.0
C      1  0.4751670000000  0.5188950000000  0.5101030000000 1.0
C      1  0.5053130000000  0.4485350000000  0.4673590000000 1.0
C      1  0.4490400000000  0.4641630000000  0.4303230000000 1.0
C      1  0.5262990000000  0.5129110000000  0.4667240000000 1.0
C      1  0.4831800000000  0.5204650000000  0.5848980000000 1.0
C      1  0.5466860000000  0.5222470000000  0.5072960000000 1.0
C      1  0.5271070000000  0.5173980000000  0.5274710000000 1.0
C      1  0.4188180000000  0.5351480000000  0.5053270000000 1.0
C      1  0.4355810000000  0.4369580000000  0.4731090000000 1.0
C      1  0.5052450000000  0.4289980000000  0.5510220000000 1.0
C      1  0.4337080000000  0.5581090000000  0.5070760000000 1.0
C      1  0.5317010000000  0.5496750000000  0.4320000000000 1.0
C      1  0.5835050000000  0.4843890000000  0.5286290000000 1.0
C      1  0.4475950000000  0.5540010000000  0.4561050000000 1.0
C      1  0.5821640000000  0.5305950000000  0.4820770000000 1.0
C      1  0.4384540000000  0.5695000000000  0.4801620000000 1.0
C      1  0.5574590000000  0.5080180000000  0.4334550000000 1.0
C      1  0.5886250000000  0.5083820000000  0.5444910000000 1.0
C      1  0.5280820000000  0.4380740000000  0.5700630000000 1.0
C      1  0.4729870000000  0.4169120000000  0.5017520000000 1.0
C      1  0.5465200000000  0.5310380000000  0.5743100000000 1.0
C      1  0.4849240000000  0.5931820000000  0.4728270000000 1.0
C      1  0.5457460000000  0.4476610000000  0.4420530000000 1.0
C      1  0.5718550000000  0.4902720000000  0.4526400000000 1.0
C      1  0.4446640000000  0.4938820000000  0.4261040000000 1.0
C      1  0.5266950000000  0.5499000000000  0.5637450000000 1.0
C      1  0.4542120000000  0.5605990000000  0.5282600000000 1.0
C      1  0.4390070000000  0.4481320000000  0.5185260000000 1.0
C      1  0.4922810000000  0.4320360000000  0.4327340000000 1.0
C      1  0.5331440000000  0.4720800000000  0.5208590000000 1.0
C      1  0.5162090000000  0.4234580000000  0.4781400000000 1.0
C      1  0.5255730000000  0.5464540000000  0.5326930000000 1.0
C      1  0.5211280000000  0.4898450000000  0.5392940000000 1.0
C      1  0.5431530000000  0.4867520000000  0.5577670000000 1.0
C      1  0.4429770000000  0.4764080000000  0.5199190000000 1.0
C      1  0.4060480000000  0.4930620000000  0.4883500000000 1.0
C      1  0.5249400000000  0.4616240000000  0.5856870000000 1.0
C      1  0.5769020000000  0.4570400000000  0.4843310000000 1.0
C      1  0.5161460000000  0.4218980000000  0.5260460000000 1.0
C      1  0.5623070000000  0.4364390000000  0.4985290000000 1.0
C      1  0.4188180000000  0.4918990000000  0.5161880000000 1.0
C      1  0.4519630000000  0.5447800000000  0.5547230000000 1.0
C      1  0.5018310000000  0.4134580000000  0.5025810000000 1.0
C      1  0.5322950000000  0.5038510000000  0.4196060000000 1.0
C      1  0.5376030000000  0.4377580000000  0.4883960000000 1.0
C      1  0.5407380000000  0.5597250000000  0.4769910000000 1.0
C      1  0.4829870000000  0.4616150000000  0.4805020000000 1.0
C      1  0.4596830000000  0.4187440000000  0.4748030000000 1.0
C      1  0.4778280000000  0.5077950000000  0.4620050000000 1.0
C      1  0.5663820000000  0.5470730000000  0.4645670000000 1.0
C      1  0.4647360000000  0.4794980000000  0.4664660000000 1.0
C      1  0.5039760000000  0.5137760000000  0.4491130000000 1.0
C      1  0.4753710000000  0.4244500000000  0.4526140000000 1.0
C      1  0.4990370000000  0.5559640000000  0.5312870000000 1.0
C      1  0.4782260000000  0.4808330000000  0.5721620000000 1.0
C      1  0.4321480000000  0.5080580000000  0.4457250000000 1.0
C      1  0.5853330000000  0.5361860000000  0.5354150000000 1.0
C      1  0.5729580000000  0.5286000000000  0.5608260000000 1.0
END
