TITL C-884135-4325-342 -14.5764706097176 125000 -5930.84619127895 0 0 41 (C1) n - 1
REM
REM in /home/nfs/bkarasulu/CARBON/AIRSS/Generating-Clusters/ReaxFF-fromJPCA2015/Units_Real/with-SteepDescent/Only-C1/SD-CG/Try1-3A/FIRE-CG
REM
REM
REM
REM
REM
REM ./C.cell (11c1c37f851c82e70ff6c80c92926a4b)
REM
REM compiler GCC version 9.2.1 20190827 (Red Hat 9.2.1-1)
REM options -cpp -mtune=generic -march=x86-64 -g -O0 -fpre-include=/usr/include/finclude/math-vector-fortran.h
REM seed -1191434327 -2080288380 159846602 825382039 -1260856440 -1756498704 -1280579671 -551525546 -1962568871 1620072620 -500678950 1202799589 1599650118 1971116483 -351778363 -1403489925 -658990837 4351383 1427140548 2111120104 817730344 1179411199 -554564939 -491207746 -2090413813 -1757292989 -2020226060 -1554148292 717307483 -1785137163 -1422092953 607433793 -502127541
REM
CELL 1.54180   50.00000   50.00000   50.00000   90.00000   90.00000   90.00000
LATT -1
SFAC C  
C      1  0.5147970000000  0.4959770000000  0.4923170000000 1.0
C      1  0.5176450000000  0.5480270000000  0.5562730000000 1.0
C      1  0.5648340000000  0.4886050000000  0.5026700000000 1.0
C      1  0.5142590000000  0.5177780000000  0.4381860000000 1.0
C      1  0.5520660000000  0.4854490000000  0.4586870000000 1.0
C      1  0.5384390000000  0.5384470000000  0.5388850000000 1.0
C      1  0.4689090000000  0.5080430000000  0.4834570000000 1.0
C      1  0.5409920000000  0.4541710000000  0.5001340000000 1.0
C      1  0.4952140000000  0.5272490000000  0.5196050000000 1.0
C      1  0.5348750000000  0.5390790000000  0.5087120000000 1.0
C      1  0.5118400000000  0.5226810000000  0.5672600000000 1.0
C      1  0.4891810000000  0.4873410000000  0.4800220000000 1.0
C      1  0.5620660000000  0.5043250000000  0.4795040000000 1.0
C      1  0.4270360000000  0.5058370000000  0.4732460000000 1.0
C      1  0.4474550000000  0.5466070000000  0.5139460000000 1.0
C      1  0.5076260000000  0.5482770000000  0.5018820000000 1.0
C      1  0.4943140000000  0.5366350000000  0.4491190000000 1.0
C      1  0.4876730000000  0.4442640000000  0.5068470000000 1.0
C      1  0.4664010000000  0.5212680000000  0.5140920000000 1.0
C      1  0.4499550000000  0.4610830000000  0.4966100000000 1.0
C      1  0.4658550000000  0.5039430000000  0.5406910000000 1.0
C      1  0.4290420000000  0.4804650000000  0.4878560000000 1.0
C      1  0.5090440000000  0.5006790000000  0.5204620000000 1.0
C      1  0.4668830000000  0.5244060000000  0.4595980000000 1.0
C      1  0.4766650000000  0.4606330000000  0.4840400000000 1.0
C      1  0.5281190000000  0.4429520000000  0.4484180000000 1.0
C      1  0.5148660000000  0.4480890000000  0.5054800000000 1.0
C      1  0.5514260000000  0.4735590000000  0.5219930000000 1.0
C      1  0.4361190000000  0.5526010000000  0.4882260000000 1.0
C      1  0.4840760000000  0.5061740000000  0.5642100000000 1.0
C      1  0.5367530000000  0.5120820000000  0.5544980000000 1.0
C      1  0.5441340000000  0.4600130000000  0.4696460000000 1.0
C      1  0.5010000000000  0.5442930000000  0.4748400000000 1.0
C      1  0.5241290000000  0.4677750000000  0.4342290000000 1.0
C      1  0.5366720000000  0.5166530000000  0.4896110000000 1.0
C      1  0.4807810000000  0.4774990000000  0.5702980000000 1.0
C      1  0.4634080000000  0.4751310000000  0.5435500000000 1.0
C      1  0.5321760000000  0.4951410000000  0.4363920000000 1.0
C      1  0.4393990000000  0.5318500000000  0.4653200000000 1.0
C      1  0.4626770000000  0.4548950000000  0.5225650000000 1.0
C      1  0.5312000000000  0.4900240000000  0.5366270000000 1.0
END
