TITL C-884142-5251-308 64.2166331582528 125000 -28180.9476784794 0 0 190 (C1) n - 1
REM
REM in /home/nfs/bkarasulu/CARBON/AIRSS/Generating-Clusters/ReaxFF-fromJPCA2015/Units_Real/with-SteepDescent/Only-C1/SD-CG/Try1-3A/FIRE-CG
REM
REM
REM
REM
REM
REM ./C.cell (11c1c37f851c82e70ff6c80c92926a4b)
REM
REM compiler GCC version 9.2.1 20190827 (Red Hat 9.2.1-1)
REM options -cpp -mtune=generic -march=x86-64 -g -O0 -fpre-include=/usr/include/finclude/math-vector-fortran.h
REM seed 1607613421 -1451538338 -669048232 1986237423 -292796366 -1384839132 418585226 -747925196 1220082652 1304027641 -5079408 1399292627 888699014 -698924702 -191324251 2071181236 1762896212 1160204606 -1149280374 1585474470 1429874521 -256371627 111968938 -2007923418 -1232573823 1450389244 1059729195 -1514630268 -1912160013 1977907468 857053960 -334939338 97351126
REM
CELL 1.54180   50.00000   50.00000   50.00000   90.00000   90.00000   90.00000
LATT -1
SFAC C  
C      1  0.5996520000000  0.5573730000000  0.4734510000000 1.0
C      1  0.4760350000000  0.5122610000000  0.5546010000000 1.0
C      1  0.4621490000000  0.4008090000000  0.5215920000000 1.0
C      1  0.4784190000000  0.5344140000000  0.6020070000000 1.0
C      1  0.4800730000000  0.5680140000000  0.4806660000000 1.0
C      1  0.4185440000000  0.5327130000000  0.4322250000000 1.0
C      1  0.5369390000000  0.5325990000000  0.4409260000000 1.0
C      1  0.4778340000000  0.6082580000000  0.5093070000000 1.0
C      1  0.5801800000000  0.4512670000000  0.4401650000000 1.0
C      1  0.5774620000000  0.5176520000000  0.4134620000000 1.0
C      1  0.5253560000000  0.3741020000000  0.4682440000000 1.0
C      1  0.6082750000000  0.4632040000000  0.5583290000000 1.0
C      1  0.4029070000000  0.5143510000000  0.4452890000000 1.0
C      1  0.5188060000000  0.5044750000000  0.4752280000000 1.0
C      1  0.5832500000000  0.4664420000000  0.5701630000000 1.0
C      1  0.4927820000000  0.4121140000000  0.4230660000000 1.0
C      1  0.5650520000000  0.4264670000000  0.4333730000000 1.0
C      1  0.5483740000000  0.5621990000000  0.5551270000000 1.0
C      1  0.5594000000000  0.4095220000000  0.4562630000000 1.0
C      1  0.3834670000000  0.5065490000000  0.5452970000000 1.0
C      1  0.4347110000000  0.4454440000000  0.4427400000000 1.0
C      1  0.4260540000000  0.4375160000000  0.5947020000000 1.0
C      1  0.5009310000000  0.5521660000000  0.5937660000000 1.0
C      1  0.4688610000000  0.4798220000000  0.3975620000000 1.0
C      1  0.5064770000000  0.5587200000000  0.5281800000000 1.0
C      1  0.4484110000000  0.5696100000000  0.4275890000000 1.0
C      1  0.6153340000000  0.4862490000000  0.4949320000000 1.0
C      1  0.4996040000000  0.5090260000000  0.5190240000000 1.0
C      1  0.4499610000000  0.5366440000000  0.5962490000000 1.0
C      1  0.5088790000000  0.5154540000000  0.4324980000000 1.0
C      1  0.4967800000000  0.4417120000000  0.5078140000000 1.0
C      1  0.5172400000000  0.4201360000000  0.4559410000000 1.0
C      1  0.5905860000000  0.5485450000000  0.4497600000000 1.0
C      1  0.4463470000000  0.4163410000000  0.5988640000000 1.0
C      1  0.4698220000000  0.5198930000000  0.4577360000000 1.0
C      1  0.3876890000000  0.5007430000000  0.5184610000000 1.0
C      1  0.4245610000000  0.4679050000000  0.5148080000000 1.0
C      1  0.4540830000000  0.4248640000000  0.5367030000000 1.0
C      1  0.4318410000000  0.5837920000000  0.4477900000000 1.0
C      1  0.5133960000000  0.4163680000000  0.5050100000000 1.0
C      1  0.4329910000000  0.5215750000000  0.5210650000000 1.0
C      1  0.4720980000000  0.4072270000000  0.4426920000000 1.0
C      1  0.5629230000000  0.4745930000000  0.4446490000000 1.0
C      1  0.5334010000000  0.4612230000000  0.5752710000000 1.0
C      1  0.4390910000000  0.5581860000000  0.5749430000000 1.0
C      1  0.5240320000000  0.4899070000000  0.3954790000000 1.0
C      1  0.5581080000000  0.5645010000000  0.4101380000000 1.0
C      1  0.5411700000000  0.3874140000000  0.4491160000000 1.0
C      1  0.4977230000000  0.5958980000000  0.4318800000000 1.0
C      1  0.5064430000000  0.4003180000000  0.4754370000000 1.0
C      1  0.6110780000000  0.4914310000000  0.5491960000000 1.0
C      1  0.3974930000000  0.4922170000000  0.5876210000000 1.0
C      1  0.5881560000000  0.5920070000000  0.4935630000000 1.0
C      1  0.5440120000000  0.5554930000000  0.4843140000000 1.0
C      1  0.5003840000000  0.6038510000000  0.4595580000000 1.0
C      1  0.4998830000000  0.5191170000000  0.5681290000000 1.0
C      1  0.4549930000000  0.5571070000000  0.4860950000000 1.0
C      1  0.3866530000000  0.4542190000000  0.5599330000000 1.0
C      1  0.5495510000000  0.4406680000000  0.5286430000000 1.0
C      1  0.4374070000000  0.4883660000000  0.4225200000000 1.0
C      1  0.5963490000000  0.4188010000000  0.5044780000000 1.0
C      1  0.5411600000000  0.4269740000000  0.4173180000000 1.0
C      1  0.4989170000000  0.5506220000000  0.4681240000000 1.0
C      1  0.5162490000000  0.5364370000000  0.4858190000000 1.0
C      1  0.5659740000000  0.5062070000000  0.5707870000000 1.0
C      1  0.5828200000000  0.4974970000000  0.4584820000000 1.0
C      1  0.4339650000000  0.5787000000000  0.4886710000000 1.0
C      1  0.4041980000000  0.5185650000000  0.4756290000000 1.0
C      1  0.5029030000000  0.4317640000000  0.6009980000000 1.0
C      1  0.5635510000000  0.5349350000000  0.5271640000000 1.0
C      1  0.4629280000000  0.5612270000000  0.5602120000000 1.0
C      1  0.5566550000000  0.5127660000000  0.5431890000000 1.0
C      1  0.4745610000000  0.5797350000000  0.4193770000000 1.0
C      1  0.5892120000000  0.5206960000000  0.4398520000000 1.0
C      1  0.5512480000000  0.5348260000000  0.4105330000000 1.0
C      1  0.5331450000000  0.5708010000000  0.3999200000000 1.0
C      1  0.5183850000000  0.4486760000000  0.4579490000000 1.0
C      1  0.4132600000000  0.5714240000000  0.4691190000000 1.0
C      1  0.5628090000000  0.5343500000000  0.4979280000000 1.0
C      1  0.4864250000000  0.5543610000000  0.4156050000000 1.0
C      1  0.4034080000000  0.4356480000000  0.5745260000000 1.0
C      1  0.5211420000000  0.5836260000000  0.5193030000000 1.0
C      1  0.4918470000000  0.5064080000000  0.6123060000000 1.0
C      1  0.5720520000000  0.5999160000000  0.4436540000000 1.0
C      1  0.4282030000000  0.4874920000000  0.5850640000000 1.0
C      1  0.5024130000000  0.4598650000000  0.5323650000000 1.0
C      1  0.4138630000000  0.5459500000000  0.5280060000000 1.0
C      1  0.6069030000000  0.5707040000000  0.4990180000000 1.0
C      1  0.5878270000000  0.4301260000000  0.4798790000000 1.0
C      1  0.5002370000000  0.4887420000000  0.4404250000000 1.0
C      1  0.5752430000000  0.4558030000000  0.5235190000000 1.0
C      1  0.5412520000000  0.5817030000000  0.4997100000000 1.0
C      1  0.4849700000000  0.4573010000000  0.3945590000000 1.0
C      1  0.4844320000000  0.3852680000000  0.5315670000000 1.0
C      1  0.5503760000000  0.4796090000000  0.4146710000000 1.0
C      1  0.4608780000000  0.5295350000000  0.5325010000000 1.0
C      1  0.4562970000000  0.5835230000000  0.5743680000000 1.0
C      1  0.5442000000000  0.4604120000000  0.4677310000000 1.0
C      1  0.4292170000000  0.5174240000000  0.5990630000000 1.0
C      1  0.3923580000000  0.5533970000000  0.5081410000000 1.0
C      1  0.4461010000000  0.5972980000000  0.4696090000000 1.0
C      1  0.5201660000000  0.5115730000000  0.6146130000000 1.0
C      1  0.5132190000000  0.4641750000000  0.3913050000000 1.0
C      1  0.5218290000000  0.4089310000000  0.4291450000000 1.0
C      1  0.5726630000000  0.5332390000000  0.5915570000000 1.0
C      1  0.4903430000000  0.4772300000000  0.6040990000000 1.0
C      1  0.5621750000000  0.6021740000000  0.4946800000000 1.0
C      1  0.5591900000000  0.4761930000000  0.5790810000000 1.0
C      1  0.5989040000000  0.4446750000000  0.5368220000000 1.0
C      1  0.5950180000000  0.5660240000000  0.5253270000000 1.0
C      1  0.5146250000000  0.6062220000000  0.5373830000000 1.0
C      1  0.4717250000000  0.5105210000000  0.5137140000000 1.0
C      1  0.4742750000000  0.4342500000000  0.5587480000000 1.0
C      1  0.5117670000000  0.4853850000000  0.5257780000000 1.0
C      1  0.5404630000000  0.5607760000000  0.4535760000000 1.0
C      1  0.4678940000000  0.5910550000000  0.5304150000000 1.0
C      1  0.4390990000000  0.4855360000000  0.5573220000000 1.0
C      1  0.5315690000000  0.4527410000000  0.4104880000000 1.0
C      1  0.5018580000000  0.5977330000000  0.5623500000000 1.0
C      1  0.4699650000000  0.4763570000000  0.4804870000000 1.0
C      1  0.5257450000000  0.5596580000000  0.5546120000000 1.0
C      1  0.5962380000000  0.5094230000000  0.5663080000000 1.0
C      1  0.4737910000000  0.5616600000000  0.5334360000000 1.0
C      1  0.5286280000000  0.4459190000000  0.5505620000000 1.0
C      1  0.4383560000000  0.4634950000000  0.6011090000000 1.0
C      1  0.4545640000000  0.4929480000000  0.4982510000000 1.0
C      1  0.4664490000000  0.4607880000000  0.6042900000000 1.0
C      1  0.5745570000000  0.4907800000000  0.4005470000000 1.0
C      1  0.4992770000000  0.6259090000000  0.5196030000000 1.0
C      1  0.5057570000000  0.4212510000000  0.5577350000000 1.0
C      1  0.5430070000000  0.4254340000000  0.5058950000000 1.0
C      1  0.3940670000000  0.4944550000000  0.4919090000000 1.0
C      1  0.5116970000000  0.4118170000000  0.5839980000000 1.0
C      1  0.5781950000000  0.4834520000000  0.5104910000000 1.0
C      1  0.4735090000000  0.5063530000000  0.3978290000000 1.0
C      1  0.5070070000000  0.4610380000000  0.4340940000000 1.0
C      1  0.6054970000000  0.4935860000000  0.5193760000000 1.0
C      1  0.3950300000000  0.5302200000000  0.5628960000000 1.0
C      1  0.4761530000000  0.5984560000000  0.4785100000000 1.0
C      1  0.4716090000000  0.4329280000000  0.5921020000000 1.0
C      1  0.4662000000000  0.4847870000000  0.5572990000000 1.0
C      1  0.4798750000000  0.4618340000000  0.5513990000000 1.0
C      1  0.5127040000000  0.4594120000000  0.5966310000000 1.0
C      1  0.5318870000000  0.4804600000000  0.4859590000000 1.0
C      1  0.5655940000000  0.5101160000000  0.4816920000000 1.0
C      1  0.4015830000000  0.5207640000000  0.5902080000000 1.0
C      1  0.4133850000000  0.5503970000000  0.5564270000000 1.0
C      1  0.5991420000000  0.4511420000000  0.4621630000000 1.0
C      1  0.4051590000000  0.4452430000000  0.4785270000000 1.0
C      1  0.4773060000000  0.3969670000000  0.4694160000000 1.0
C      1  0.4129520000000  0.4717810000000  0.4865130000000 1.0
C      1  0.5344460000000  0.4817790000000  0.5141870000000 1.0
C      1  0.3974200000000  0.5485280000000  0.4794540000000 1.0
C      1  0.4518510000000  0.5316520000000  0.4755310000000 1.0
C      1  0.6024170000000  0.4130640000000  0.5317570000000 1.0
C      1  0.4494890000000  0.5132120000000  0.4120370000000 1.0
C      1  0.5193810000000  0.5856240000000  0.4481330000000 1.0
C      1  0.4729520000000  0.6003220000000  0.5579470000000 1.0
C      1  0.4536760000000  0.4292540000000  0.4874670000000 1.0
C      1  0.5132750000000  0.5733880000000  0.5752460000000 1.0
C      1  0.4164370000000  0.4310130000000  0.4572190000000 1.0
C      1  0.5252790000000  0.5313670000000  0.3925640000000 1.0
C      1  0.5568030000000  0.4302060000000  0.4797630000000 1.0
C      1  0.5772790000000  0.5572110000000  0.5476320000000 1.0
C      1  0.5096430000000  0.3931320000000  0.5227430000000 1.0
C      1  0.6059990000000  0.4788340000000  0.4693900000000 1.0
C      1  0.5069290000000  0.5113850000000  0.4015250000000 1.0
C      1  0.5919730000000  0.5384870000000  0.5713580000000 1.0
C      1  0.5676760000000  0.5701620000000  0.4389530000000 1.0
C      1  0.4254290000000  0.4241240000000  0.4829690000000 1.0
C      1  0.4583950000000  0.4322500000000  0.4346700000000 1.0
C      1  0.4386890000000  0.4455050000000  0.5252730000000 1.0
C      1  0.5117390000000  0.5348030000000  0.5130410000000 1.0
C      1  0.4896680000000  0.5364520000000  0.4431910000000 1.0
C      1  0.5090140000000  0.5558510000000  0.3964640000000 1.0
C      1  0.5560420000000  0.4906970000000  0.5261190000000 1.0
C      1  0.5064740000000  0.3928430000000  0.5493140000000 1.0
C      1  0.4756000000000  0.4489640000000  0.4896840000000 1.0
C      1  0.4350150000000  0.5158550000000  0.4908310000000 1.0
C      1  0.4584060000000  0.4008150000000  0.4920180000000 1.0
C      1  0.4827820000000  0.4399290000000  0.4198260000000 1.0
C      1  0.4296060000000  0.4921940000000  0.5311500000000 1.0
C      1  0.5184490000000  0.5290320000000  0.5878510000000 1.0
C      1  0.5434440000000  0.5128870000000  0.4617980000000 1.0
C      1  0.3826880000000  0.4841010000000  0.5643100000000 1.0
C      1  0.4851250000000  0.4954110000000  0.4634750000000 1.0
C      1  0.5661160000000  0.6164460000000  0.4668440000000 1.0
C      1  0.4124580000000  0.4892940000000  0.4345070000000 1.0
C      1  0.4380750000000  0.5426780000000  0.4180230000000 1.0
C      1  0.4301600000000  0.4738140000000  0.4487730000000 1.0
END
