TITL C-884135-4325-238 -6.72508430925828 125000 -24059.2118315612 0 0 157 (C1) n - 1
REM
REM in /home/nfs/bkarasulu/CARBON/AIRSS/Generating-Clusters/ReaxFF-fromJPCA2015/Units_Real/with-SteepDescent/Only-C1/SD-CG/Try1-3A/FIRE-CG
REM
REM
REM
REM
REM
REM ./C.cell (11c1c37f851c82e70ff6c80c92926a4b)
REM
REM compiler GCC version 9.2.1 20190827 (Red Hat 9.2.1-1)
REM options -cpp -mtune=generic -march=x86-64 -g -O0 -fpre-include=/usr/include/finclude/math-vector-fortran.h
REM seed -284670112 1084473428 -1422827478 1378148727 518483188 -1524757656 -1543550332 -1590423347 -1172150723 902546102 1589325854 880721694 -1122546924 -1795887907 1989434450 -287188714 -1181785191 1961403016 1160357891 -1362751121 303876868 1031546119 310305709 -1169137878 966930873 -580725917 2037168502 1356028862 1322739438 -2024845381 1444171833 -1952241158 -661221264
REM
CELL 1.54180   50.00000   50.00000   50.00000   90.00000   90.00000   90.00000
LATT -1
SFAC C  
C      1  0.5278370000000  0.4055460000000  0.4707360000000 1.0
C      1  0.3984940000000  0.4528240000000  0.5320090000000 1.0
C      1  0.5512640000000  0.4599570000000  0.5389420000000 1.0
C      1  0.6112850000000  0.4756730000000  0.4900340000000 1.0
C      1  0.5550040000000  0.5150980000000  0.5937590000000 1.0
C      1  0.5028230000000  0.4432940000000  0.4862930000000 1.0
C      1  0.5266240000000  0.4637420000000  0.5212270000000 1.0
C      1  0.6152040000000  0.5036470000000  0.4966070000000 1.0
C      1  0.4373600000000  0.4638910000000  0.4210360000000 1.0
C      1  0.4934000000000  0.4971840000000  0.5012710000000 1.0
C      1  0.5248470000000  0.4390780000000  0.4212110000000 1.0
C      1  0.3959380000000  0.4970610000000  0.4883850000000 1.0
C      1  0.5201700000000  0.5827730000000  0.5452950000000 1.0
C      1  0.5030970000000  0.4257850000000  0.4299370000000 1.0
C      1  0.3883210000000  0.5242110000000  0.5487410000000 1.0
C      1  0.5148390000000  0.4311760000000  0.5567280000000 1.0
C      1  0.4418490000000  0.5907880000000  0.4901760000000 1.0
C      1  0.5308390000000  0.4535640000000  0.4878690000000 1.0
C      1  0.4584540000000  0.4095050000000  0.4819910000000 1.0
C      1  0.5162460000000  0.4908810000000  0.5191210000000 1.0
C      1  0.4891900000000  0.5122210000000  0.4708480000000 1.0
C      1  0.4030640000000  0.4254510000000  0.4865360000000 1.0
C      1  0.4542960000000  0.4387910000000  0.5430930000000 1.0
C      1  0.4873100000000  0.4772810000000  0.6092390000000 1.0
C      1  0.5890280000000  0.5341120000000  0.4622760000000 1.0
C      1  0.4877830000000  0.5437820000000  0.5838150000000 1.0
C      1  0.4679810000000  0.5772620000000  0.5461450000000 1.0
C      1  0.5033950000000  0.4463260000000  0.5319190000000 1.0
C      1  0.4407030000000  0.4997240000000  0.5060810000000 1.0
C      1  0.3887500000000  0.5028700000000  0.4653570000000 1.0
C      1  0.5496320000000  0.4878300000000  0.5826440000000 1.0
C      1  0.5488580000000  0.5197450000000  0.5393720000000 1.0
C      1  0.5257960000000  0.5196010000000  0.5560060000000 1.0
C      1  0.6065720000000  0.5123360000000  0.4699920000000 1.0
C      1  0.5923440000000  0.4851330000000  0.4666630000000 1.0
C      1  0.4807030000000  0.5723320000000  0.4188410000000 1.0
C      1  0.5857730000000  0.4371810000000  0.5130070000000 1.0
C      1  0.5200740000000  0.4911170000000  0.4526190000000 1.0
C      1  0.4845190000000  0.3890340000000  0.5675250000000 1.0
C      1  0.4579730000000  0.5570590000000  0.4200020000000 1.0
C      1  0.5083100000000  0.5959950000000  0.4634290000000 1.0
C      1  0.4100060000000  0.4977390000000  0.5131570000000 1.0
C      1  0.4415450000000  0.5569500000000  0.4463230000000 1.0
C      1  0.4951510000000  0.4770220000000  0.4446460000000 1.0
C      1  0.5429870000000  0.5827070000000  0.5258770000000 1.0
C      1  0.4492300000000  0.4181950000000  0.5229970000000 1.0
C      1  0.5073850000000  0.5802570000000  0.4164890000000 1.0
C      1  0.4709540000000  0.4332720000000  0.5856350000000 1.0
C      1  0.3960310000000  0.5246730000000  0.4482330000000 1.0
C      1  0.5839800000000  0.4782260000000  0.4378010000000 1.0
C      1  0.5717640000000  0.5428090000000  0.4853800000000 1.0
C      1  0.4280500000000  0.5253360000000  0.5706660000000 1.0
C      1  0.5222030000000  0.5436850000000  0.4742670000000 1.0
C      1  0.5363970000000  0.4750850000000  0.4031730000000 1.0
C      1  0.5474750000000  0.5706630000000  0.4465370000000 1.0
C      1  0.5209030000000  0.5382650000000  0.5022310000000 1.0
C      1  0.5082230000000  0.4945770000000  0.5520290000000 1.0
C      1  0.4827700000000  0.4712820000000  0.4909860000000 1.0
C      1  0.5355990000000  0.5146510000000  0.5125130000000 1.0
C      1  0.4075200000000  0.5290220000000  0.5261220000000 1.0
C      1  0.4861520000000  0.5560380000000  0.4862730000000 1.0
C      1  0.4993090000000  0.4247200000000  0.5112550000000 1.0
C      1  0.5165940000000  0.6008610000000  0.4914080000000 1.0
C      1  0.4701400000000  0.5995610000000  0.4911320000000 1.0
C      1  0.5711720000000  0.4530930000000  0.4364220000000 1.0
C      1  0.4016460000000  0.5417200000000  0.4726960000000 1.0
C      1  0.5711310000000  0.5337160000000  0.5785630000000 1.0
C      1  0.5594570000000  0.5587900000000  0.5649840000000 1.0
C      1  0.4755860000000  0.5513480000000  0.5581390000000 1.0
C      1  0.5628720000000  0.4922150000000  0.4780880000000 1.0
C      1  0.5242730000000  0.5865870000000  0.4409220000000 1.0
C      1  0.5020490000000  0.4205910000000  0.4633660000000 1.0
C      1  0.4910200000000  0.4519350000000  0.5975910000000 1.0
C      1  0.4738970000000  0.4609170000000  0.5360410000000 1.0
C      1  0.5646380000000  0.4756460000000  0.5610220000000 1.0
C      1  0.5835430000000  0.4372930000000  0.4855160000000 1.0
C      1  0.5178360000000  0.5414310000000  0.5787620000000 1.0
C      1  0.4356350000000  0.4257160000000  0.4959070000000 1.0
C      1  0.5847640000000  0.5545620000000  0.5166330000000 1.0
C      1  0.6046640000000  0.4602300000000  0.5139380000000 1.0
C      1  0.5238200000000  0.4054650000000  0.5186460000000 1.0
C      1  0.4466270000000  0.4412370000000  0.5714170000000 1.0
C      1  0.5416160000000  0.5454840000000  0.4037970000000 1.0
C      1  0.5897930000000  0.5183020000000  0.5627320000000 1.0
C      1  0.4273050000000  0.4523710000000  0.4468920000000 1.0
C      1  0.4361520000000  0.5803120000000  0.4623800000000 1.0
C      1  0.5708170000000  0.4346830000000  0.4604690000000 1.0
C      1  0.5314800000000  0.5667080000000  0.5667200000000 1.0
C      1  0.4346870000000  0.4936170000000  0.4208790000000 1.0
C      1  0.5125140000000  0.5109070000000  0.3908090000000 1.0
C      1  0.5626820000000  0.4340520000000  0.5338350000000 1.0
C      1  0.4486690000000  0.4615860000000  0.4651320000000 1.0
C      1  0.6056560000000  0.4808800000000  0.5357380000000 1.0
C      1  0.4510580000000  0.5135840000000  0.5290750000000 1.0
C      1  0.4349960000000  0.4682210000000  0.5732260000000 1.0
C      1  0.5486690000000  0.4510510000000  0.4162590000000 1.0
C      1  0.4091070000000  0.4780290000000  0.5627290000000 1.0
C      1  0.5547180000000  0.4980220000000  0.4035320000000 1.0
C      1  0.4737620000000  0.4298600000000  0.4307710000000 1.0
C      1  0.4641390000000  0.4541950000000  0.4183590000000 1.0
C      1  0.4092530000000  0.4371740000000  0.4623340000000 1.0
C      1  0.4668170000000  0.5136710000000  0.4525030000000 1.0
C      1  0.5479450000000  0.5636970000000  0.4759380000000 1.0
C      1  0.4731140000000  0.4149260000000  0.4573010000000 1.0
C      1  0.4726060000000  0.5257140000000  0.6000160000000 1.0
C      1  0.4573790000000  0.4873480000000  0.5729400000000 1.0
C      1  0.4841270000000  0.5821170000000  0.4722360000000 1.0
C      1  0.5148720000000  0.5564610000000  0.4004300000000 1.0
C      1  0.4439450000000  0.5300430000000  0.4886560000000 1.0
C      1  0.4154560000000  0.5472930000000  0.4978430000000 1.0
C      1  0.5912760000000  0.4880810000000  0.5599520000000 1.0
C      1  0.6031890000000  0.5070270000000  0.5236100000000 1.0
C      1  0.4437180000000  0.4536600000000  0.4914200000000 1.0
C      1  0.5306760000000  0.5274550000000  0.6044890000000 1.0
C      1  0.4029810000000  0.4762150000000  0.5363620000000 1.0
C      1  0.4437080000000  0.5664100000000  0.5342520000000 1.0
C      1  0.5311180000000  0.3883210000000  0.4955290000000 1.0
C      1  0.4885230000000  0.5379970000000  0.5348030000000 1.0
C      1  0.4439980000000  0.5302680000000  0.4604610000000 1.0
C      1  0.4144920000000  0.5075370000000  0.4339870000000 1.0
C      1  0.4585260000000  0.4718930000000  0.5075350000000 1.0
C      1  0.5233710000000  0.4779800000000  0.5742330000000 1.0
C      1  0.4652540000000  0.5431120000000  0.4923390000000 1.0
C      1  0.4843230000000  0.4787230000000  0.4168950000000 1.0
C      1  0.4958640000000  0.5342040000000  0.3964820000000 1.0
C      1  0.5399420000000  0.5849880000000  0.4968100000000 1.0
C      1  0.5388710000000  0.4185660000000  0.5397270000000 1.0
C      1  0.4749500000000  0.4718890000000  0.4636260000000 1.0
C      1  0.4338880000000  0.5360540000000  0.5425730000000 1.0
C      1  0.5590470000000  0.5166930000000  0.4911870000000 1.0
C      1  0.5572720000000  0.5504000000000  0.4278410000000 1.0
C      1  0.4929480000000  0.5903530000000  0.5360980000000 1.0
C      1  0.5397420000000  0.5193330000000  0.3934110000000 1.0
C      1  0.5089420000000  0.4839540000000  0.3995290000000 1.0
C      1  0.4719360000000  0.4101190000000  0.5074270000000 1.0
C      1  0.5447990000000  0.4288510000000  0.4739020000000 1.0
C      1  0.4640590000000  0.5058720000000  0.4228700000000 1.0
C      1  0.5140290000000  0.5204380000000  0.4581890000000 1.0
C      1  0.4896360000000  0.4138520000000  0.5719200000000 1.0
C      1  0.4992000000000  0.5534860000000  0.5117660000000 1.0
C      1  0.5641200000000  0.5682870000000  0.5385610000000 1.0
C      1  0.4049350000000  0.5076290000000  0.5678150000000 1.0
C      1  0.5757510000000  0.5294020000000  0.4364470000000 1.0
C      1  0.5101650000000  0.5123370000000  0.6149590000000 1.0
C      1  0.4698370000000  0.5321360000000  0.4087800000000 1.0
C      1  0.5154920000000  0.4506190000000  0.5791330000000 1.0
C      1  0.4795130000000  0.4831360000000  0.5549780000000 1.0
C      1  0.4501830000000  0.5139040000000  0.5856770000000 1.0
C      1  0.5384180000000  0.4779810000000  0.4712180000000 1.0
C      1  0.3972340000000  0.4372350000000  0.5113600000000 1.0
C      1  0.4924050000000  0.6022550000000  0.5097630000000 1.0
C      1  0.4788250000000  0.5133730000000  0.5238240000000 1.0
C      1  0.4307740000000  0.5726540000000  0.5097780000000 1.0
C      1  0.5743940000000  0.5023460000000  0.4243890000000 1.0
C      1  0.4841890000000  0.5034150000000  0.6195110000000 1.0
C      1  0.6086540000000  0.5657930000000  0.5151610000000 1.0
C      1  0.5805490000000  0.5245050000000  0.5353350000000 1.0
END
