TITL C-883741-3679-388 2.97263217363846 125000 -2859.73267741475 0 0 21 (C1) n - 1
REM
REM in /home/nfs/bkarasulu/CARBON/AIRSS/Generating-Clusters/ReaxFF-fromJPCA2015/Units_Real/with-SteepDescent/Only-C1/SD-CG/Try1-3A/FIRE-CG
REM
REM
REM
REM
REM
REM ./C.cell (11c1c37f851c82e70ff6c80c92926a4b)
REM
REM compiler GCC version 9.2.1 20190827 (Red Hat 9.2.1-1)
REM options -cpp -mtune=generic -march=x86-64 -g -O0 -fpre-include=/usr/include/finclude/math-vector-fortran.h
REM seed 667017945 -789638548 882220658 -42853781 1982859702 647045969 -364485234 731358096 1988904322 1825102472 2130100215 -1469802234 2070713672 -417951942 -1469598541 750109537 -2109814423 -371690864 -2109061559 -1580756428 -123973328 1664106094 2003318468 -1523579179 -7440211 -1071547143 -1589518806 -375919997 -291444933 18707591 1196890815 -1019551648 872939189
REM
CELL 1.54180   50.00000   50.00000   50.00000   90.00000   90.00000   90.00000
LATT -1
SFAC C  
C      1  0.5316290000000  0.4876170000000  0.5283520000000 1.0
C      1  0.5326410000000  0.5199940000000  0.5314990000000 1.0
C      1  0.5455430000000  0.4841410000000  0.5026130000000 1.0
C      1  0.4355510000000  0.4958550000000  0.5092420000000 1.0
C      1  0.5071300000000  0.4738280000000  0.5336760000000 1.0
C      1  0.4866940000000  0.5470550000000  0.5095670000000 1.0
C      1  0.5328810000000  0.5309970000000  0.5030640000000 1.0
C      1  0.4384910000000  0.5057780000000  0.4818200000000 1.0
C      1  0.5367740000000  0.4875630000000  0.4746560000000 1.0
C      1  0.5508230000000  0.5372770000000  0.5391730000000 1.0
C      1  0.5050070000000  0.5340650000000  0.4929050000000 1.0
C      1  0.4837010000000  0.4506020000000  0.4971740000000 1.0
C      1  0.4700710000000  0.4962810000000  0.4798320000000 1.0
C      1  0.5099080000000  0.4918040000000  0.4638770000000 1.0
C      1  0.4807020000000  0.4659670000000  0.5209220000000 1.0
C      1  0.4865760000000  0.4735390000000  0.4623950000000 1.0
C      1  0.4942620000000  0.5135960000000  0.4743180000000 1.0
C      1  0.4656470000000  0.4880770000000  0.5087060000000 1.0
C      1  0.5483180000000  0.5100810000000  0.4892510000000 1.0
C      1  0.4708200000000  0.5583140000000  0.5240090000000 1.0
C      1  0.4868320000000  0.4475670000000  0.4729510000000 1.0
END
