TITL C-884132-5695-163 -5.29115429681272 125000 -10027.7354680816 0 0 69 (C1) n - 1
REM
REM in /home/nfs/bkarasulu/CARBON/AIRSS/Generating-Clusters/ReaxFF-fromJPCA2015/Units_Real/with-SteepDescent/Only-C1/SD-CG/Try1-3A/FIRE-CG
REM
REM
REM
REM
REM
REM ./C.cell (11c1c37f851c82e70ff6c80c92926a4b)
REM
REM compiler GCC version 9.2.1 20190827 (Red Hat 9.2.1-1)
REM options -cpp -mtune=generic -march=x86-64 -g -O0 -fpre-include=/usr/include/finclude/math-vector-fortran.h
REM seed -1239009387 1665808266 -306850634 -2001481382 1806107920 -1314374386 273003730 -354375554 1757489034 1767269054 1788794852 -1945943665 1037708075 873430983 1714568720 -1616159280 521699864 2053397769 -235400689 396491269 599793585 -1322047212 -734790065 1845916052 843689270 284539161 -588555787 487607521 -346843478 1350939713 1265365991 -1758335624 1414306961
REM
CELL 1.54180   50.00000   50.00000   50.00000   90.00000   90.00000   90.00000
LATT -1
SFAC C  
C      1  0.5065350000000  0.5137260000000  0.4274010000000 1.0
C      1  0.4452600000000  0.4476560000000  0.5027550000000 1.0
C      1  0.4445250000000  0.4593200000000  0.4764200000000 1.0
C      1  0.5062320000000  0.5632330000000  0.5439240000000 1.0
C      1  0.5102700000000  0.4652580000000  0.5704430000000 1.0
C      1  0.4699150000000  0.4315450000000  0.5050500000000 1.0
C      1  0.4630720000000  0.5472600000000  0.4330940000000 1.0
C      1  0.5664120000000  0.5019160000000  0.4975240000000 1.0
C      1  0.5467990000000  0.4662590000000  0.4492440000000 1.0
C      1  0.5359810000000  0.5345480000000  0.5496980000000 1.0
C      1  0.4972590000000  0.5074330000000  0.4886370000000 1.0
C      1  0.5228880000000  0.5148620000000  0.5317430000000 1.0
C      1  0.4510440000000  0.5440260000000  0.5099830000000 1.0
C      1  0.4589530000000  0.4687450000000  0.5568310000000 1.0
C      1  0.5352010000000  0.5462610000000  0.4599010000000 1.0
C      1  0.5427050000000  0.4971610000000  0.4849270000000 1.0
C      1  0.4314600000000  0.4875270000000  0.5038350000000 1.0
C      1  0.5266200000000  0.4444120000000  0.4555420000000 1.0
C      1  0.4550800000000  0.5402020000000  0.5508870000000 1.0
C      1  0.5208990000000  0.5738900000000  0.4995180000000 1.0
C      1  0.5311280000000  0.4419950000000  0.5072690000000 1.0
C      1  0.4872170000000  0.5299100000000  0.4425570000000 1.0
C      1  0.4441940000000  0.5391910000000  0.4814810000000 1.0
C      1  0.5703500000000  0.5224650000000  0.5198310000000 1.0
C      1  0.4844560000000  0.5444700000000  0.5504910000000 1.0
C      1  0.5578610000000  0.4688490000000  0.5359710000000 1.0
C      1  0.5062090000000  0.5246740000000  0.5097920000000 1.0
C      1  0.4525470000000  0.4882420000000  0.4883090000000 1.0
C      1  0.5411130000000  0.4941370000000  0.4441010000000 1.0
C      1  0.4798950000000  0.4336510000000  0.4550900000000 1.0
C      1  0.5174780000000  0.4361120000000  0.4819480000000 1.0
C      1  0.5653070000000  0.5483740000000  0.5060200000000 1.0
C      1  0.4652900000000  0.4799130000000  0.4357040000000 1.0
C      1  0.5313640000000  0.5200320000000  0.4407790000000 1.0
C      1  0.4885390000000  0.4288700000000  0.4823550000000 1.0
C      1  0.4972880000000  0.5729190000000  0.5172510000000 1.0
C      1  0.5106550000000  0.4496090000000  0.5255040000000 1.0
C      1  0.4848560000000  0.4375720000000  0.5304060000000 1.0
C      1  0.4724330000000  0.4650910000000  0.5303130000000 1.0
C      1  0.4521060000000  0.5203400000000  0.5286590000000 1.0
C      1  0.5587280000000  0.4545010000000  0.5127450000000 1.0
C      1  0.4832160000000  0.5036780000000  0.5721940000000 1.0
C      1  0.4914820000000  0.5297440000000  0.4714000000000 1.0
C      1  0.4406680000000  0.5117230000000  0.4711270000000 1.0
C      1  0.4920110000000  0.4873140000000  0.4221510000000 1.0
C      1  0.5343000000000  0.5611590000000  0.5416740000000 1.0
C      1  0.4323250000000  0.4682410000000  0.5239170000000 1.0
C      1  0.4846040000000  0.4590920000000  0.5667370000000 1.0
C      1  0.4476910000000  0.5024200000000  0.4438810000000 1.0
C      1  0.5606620000000  0.5177820000000  0.5466880000000 1.0
C      1  0.4733060000000  0.5627820000000  0.5051220000000 1.0
C      1  0.5569480000000  0.4879490000000  0.5558470000000 1.0
C      1  0.4994450000000  0.5007590000000  0.5434960000000 1.0
C      1  0.4849300000000  0.5590190000000  0.4770040000000 1.0
C      1  0.5162550000000  0.5645420000000  0.4727000000000 1.0
C      1  0.4604380000000  0.4549540000000  0.4526260000000 1.0
C      1  0.4947850000000  0.4784220000000  0.5231640000000 1.0
C      1  0.5025150000000  0.4624260000000  0.4258100000000 1.0
C      1  0.4426560000000  0.4886180000000  0.5421910000000 1.0
C      1  0.5041100000000  0.4372580000000  0.4376410000000 1.0
C      1  0.4575560000000  0.5557970000000  0.4604940000000 1.0
C      1  0.5728620000000  0.4622310000000  0.4644190000000 1.0
C      1  0.4808260000000  0.4866060000000  0.4990430000000 1.0
C      1  0.5345320000000  0.4747440000000  0.5685580000000 1.0
C      1  0.5445730000000  0.5671700000000  0.5160480000000 1.0
C      1  0.4593190000000  0.5177700000000  0.5691960000000 1.0
C      1  0.5738050000000  0.4710730000000  0.4924110000000 1.0
C      1  0.5539560000000  0.5479730000000  0.4800740000000 1.0
C      1  0.4841020000000  0.5225970000000  0.5304530000000 1.0
END
