TITL C-883729-9652-324 3.40064597228503 125000 -9973.72225580537 0 0 68 (C1) n - 1
REM
REM in /home/nfs/bkarasulu/CARBON/AIRSS/Generating-Clusters/ReaxFF-fromJPCA2015/Units_Real/with-SteepDescent/Only-C1/SD-CG/Try1-3A/FIRE-CG
REM
REM
REM
REM
REM
REM ./C.cell (11c1c37f851c82e70ff6c80c92926a4b)
REM
REM compiler GCC version 9.2.1 20190827 (Red Hat 9.2.1-1)
REM options -cpp -mtune=generic -march=x86-64 -g -O0 -fpre-include=/usr/include/finclude/math-vector-fortran.h
REM seed 1072579839 459936012 -100007607 -1015475951 -1250777093 1510652955 -1772127756 1923936109 1145773521 442960179 1810009196 670629899 -46315046 73554385 1810294318 -2127058916 -948281303 135460967 1586259530 1342708057 1401891228 -46911501 -1400092664 -474663419 55281822 2055661796 1174906116 1262555554 -1971895316 671564571 564541597 351390775 1114123216
REM
CELL 1.54180   50.00000   50.00000   50.00000   90.00000   90.00000   90.00000
LATT -1
SFAC C  
C      1  0.4457260000000  0.5208770000000  0.5594950000000 1.0
C      1  0.5254900000000  0.4649980000000  0.4281840000000 1.0
C      1  0.4678910000000  0.5293100000000  0.5773790000000 1.0
C      1  0.5581540000000  0.5593100000000  0.4724140000000 1.0
C      1  0.5554300000000  0.4476300000000  0.4984750000000 1.0
C      1  0.5069400000000  0.5416540000000  0.4499500000000 1.0
C      1  0.4717420000000  0.4460580000000  0.5555670000000 1.0
C      1  0.5129860000000  0.4881530000000  0.5204390000000 1.0
C      1  0.4372300000000  0.4713710000000  0.5309010000000 1.0
C      1  0.4461110000000  0.5374130000000  0.5350300000000 1.0
C      1  0.4875120000000  0.5183740000000  0.4524310000000 1.0
C      1  0.5562430000000  0.4634850000000  0.5223700000000 1.0
C      1  0.4890440000000  0.5446420000000  0.5669000000000 1.0
C      1  0.5221150000000  0.5442420000000  0.4238880000000 1.0
C      1  0.4851160000000  0.5704540000000  0.5124770000000 1.0
C      1  0.5006590000000  0.4539010000000  0.4319580000000 1.0
C      1  0.5292190000000  0.5264080000000  0.5611410000000 1.0
C      1  0.5375970000000  0.4438680000000  0.4759380000000 1.0
C      1  0.5133290000000  0.5124930000000  0.5792560000000 1.0
C      1  0.4861010000000  0.4256240000000  0.4644890000000 1.0
C      1  0.5031860000000  0.4203370000000  0.5020170000000 1.0
C      1  0.4457490000000  0.5444700000000  0.4715360000000 1.0
C      1  0.5118580000000  0.5503790000000  0.5519310000000 1.0
C      1  0.4728970000000  0.4856260000000  0.4954550000000 1.0
C      1  0.5408940000000  0.4932940000000  0.4559250000000 1.0
C      1  0.4882570000000  0.5112600000000  0.5925910000000 1.0
C      1  0.5904470000000  0.5300730000000  0.5225150000000 1.0
C      1  0.5137990000000  0.4247190000000  0.4764110000000 1.0
C      1  0.5858540000000  0.4929180000000  0.4985840000000 1.0
C      1  0.5285450000000  0.5275320000000  0.4969520000000 1.0
C      1  0.4793350000000  0.5654180000000  0.4835220000000 1.0
C      1  0.5391820000000  0.4847600000000  0.5328600000000 1.0
C      1  0.4877150000000  0.4829940000000  0.5880600000000 1.0
C      1  0.5309430000000  0.5708320000000  0.4794830000000 1.0
C      1  0.5796330000000  0.4668140000000  0.5031310000000 1.0
C      1  0.4555830000000  0.5130830000000  0.5202520000000 1.0
C      1  0.5070700000000  0.5142450000000  0.5106140000000 1.0
C      1  0.4773290000000  0.4237680000000  0.5123000000000 1.0
C      1  0.4652500000000  0.4290000000000  0.4850210000000 1.0
C      1  0.4475750000000  0.4961570000000  0.5432470000000 1.0
C      1  0.4531290000000  0.4577680000000  0.4513650000000 1.0
C      1  0.5306320000000  0.5560350000000  0.5049990000000 1.0
C      1  0.4275310000000  0.5177740000000  0.4696260000000 1.0
C      1  0.4469130000000  0.4508260000000  0.4787340000000 1.0
C      1  0.4817620000000  0.4943680000000  0.4686210000000 1.0
C      1  0.4823050000000  0.5250990000000  0.5194210000000 1.0
C      1  0.5720620000000  0.5215430000000  0.5335470000000 1.0
C      1  0.4908880000000  0.4715900000000  0.5143650000000 1.0
C      1  0.4684810000000  0.5408410000000  0.4799120000000 1.0
C      1  0.4722580000000  0.5504730000000  0.5289160000000 1.0
C      1  0.4654690000000  0.5376320000000  0.4508060000000 1.0
C      1  0.4376290000000  0.4969140000000  0.4530610000000 1.0
C      1  0.4802340000000  0.4646390000000  0.5735160000000 1.0
C      1  0.4428460000000  0.4742700000000  0.4987370000000 1.0
C      1  0.4626220000000  0.4853010000000  0.4465670000000 1.0
C      1  0.5490590000000  0.5096180000000  0.5450240000000 1.0
C      1  0.5906000000000  0.5200530000000  0.4951620000000 1.0
C      1  0.5397880000000  0.4637970000000  0.4552680000000 1.0
C      1  0.4228020000000  0.4976740000000  0.4906310000000 1.0
C      1  0.5290520000000  0.5189100000000  0.4100230000000 1.0
C      1  0.4861700000000  0.4460590000000  0.5296150000000 1.0
C      1  0.5454240000000  0.5149070000000  0.4765620000000 1.0
C      1  0.5330120000000  0.4951240000000  0.4281030000000 1.0
C      1  0.5106170000000  0.5642530000000  0.5251860000000 1.0
C      1  0.4415930000000  0.4480710000000  0.5473430000000 1.0
C      1  0.4774950000000  0.4418150000000  0.4410980000000 1.0
C      1  0.5048280000000  0.5646580000000  0.4676850000000 1.0
C      1  0.5690650000000  0.5320430000000  0.4750210000000 1.0
END
