TITL C-883726-8501-352 51.6274021460133 125000 -20919.6637007776 0 0 142 (C1) n - 1
REM
REM in /home/nfs/bkarasulu/CARBON/AIRSS/Generating-Clusters/ReaxFF-fromJPCA2015/Units_Real/with-SteepDescent/Only-C1/SD-CG/Try1-3A/FIRE-CG
REM
REM
REM
REM
REM
REM ./C.cell (11c1c37f851c82e70ff6c80c92926a4b)
REM
REM compiler GCC version 9.2.1 20190827 (Red Hat 9.2.1-1)
REM options -cpp -mtune=generic -march=x86-64 -g -O0 -fpre-include=/usr/include/finclude/math-vector-fortran.h
REM seed -435933630 -1570753927 -513778534 1786986139 1091279872 2006060194 -1564856202 -827805048 -1036617601 518973542 374865523 -666813573 139178579 -1240129129 234139646 134051983 -810902526 -1200062256 -794344328 440555262 -35828470 1446066024 2126410319 -1212694553 43987219 -1096349630 -1182630124 2094055989 -566227180 988943429 -87115473 -2059056034 1304239135
REM
CELL 1.54180   50.00000   50.00000   50.00000   90.00000   90.00000   90.00000
LATT -1
SFAC C  
C      1  0.5934320000000  0.4918810000000  0.4771870000000 1.0
C      1  0.5116920000000  0.6032820000000  0.5080850000000 1.0
C      1  0.4325360000000  0.4993780000000  0.4177290000000 1.0
C      1  0.4930960000000  0.4775370000000  0.4479360000000 1.0
C      1  0.5255860000000  0.4996650000000  0.4026290000000 1.0
C      1  0.5706770000000  0.4929790000000  0.5248810000000 1.0
C      1  0.5719850000000  0.5320980000000  0.5105440000000 1.0
C      1  0.5593280000000  0.4750630000000  0.4153670000000 1.0
C      1  0.5692170000000  0.5406730000000  0.4283820000000 1.0
C      1  0.4148050000000  0.5694350000000  0.4919600000000 1.0
C      1  0.3997940000000  0.4760430000000  0.4483580000000 1.0
C      1  0.4708670000000  0.5875940000000  0.5447620000000 1.0
C      1  0.5323340000000  0.4707820000000  0.4080640000000 1.0
C      1  0.5808530000000  0.4491000000000  0.4985390000000 1.0
C      1  0.4259310000000  0.4857810000000  0.5039420000000 1.0
C      1  0.5049200000000  0.5039210000000  0.5599420000000 1.0
C      1  0.5019760000000  0.5127630000000  0.3933040000000 1.0
C      1  0.5361190000000  0.5464270000000  0.5782590000000 1.0
C      1  0.4745890000000  0.5053640000000  0.5165280000000 1.0
C      1  0.5754650000000  0.4797960000000  0.4988770000000 1.0
C      1  0.3920330000000  0.4915690000000  0.4716610000000 1.0
C      1  0.5242550000000  0.5900150000000  0.4840710000000 1.0
C      1  0.5869730000000  0.4997860000000  0.5485680000000 1.0
C      1  0.5136280000000  0.4773630000000  0.5572490000000 1.0
C      1  0.4396140000000  0.5811580000000  0.5367880000000 1.0
C      1  0.5566730000000  0.4259020000000  0.4602040000000 1.0
C      1  0.4926610000000  0.4234110000000  0.4550840000000 1.0
C      1  0.4377930000000  0.5868200000000  0.4828210000000 1.0
C      1  0.4219930000000  0.5624950000000  0.5497320000000 1.0
C      1  0.5596420000000  0.5929260000000  0.5156900000000 1.0
C      1  0.4271400000000  0.4360610000000  0.4924280000000 1.0
C      1  0.4320210000000  0.4373750000000  0.5539660000000 1.0
C      1  0.5752380000000  0.4986080000000  0.5759730000000 1.0
C      1  0.5458240000000  0.4785240000000  0.4820190000000 1.0
C      1  0.5834090000000  0.5188150000000  0.4391340000000 1.0
C      1  0.5032060000000  0.5064230000000  0.5091600000000 1.0
C      1  0.5781630000000  0.5532320000000  0.5466180000000 1.0
C      1  0.5758590000000  0.4344270000000  0.5232380000000 1.0
C      1  0.5225600000000  0.5704110000000  0.5371280000000 1.0
C      1  0.4134340000000  0.5328720000000  0.5347710000000 1.0
C      1  0.4961750000000  0.3921670000000  0.5348320000000 1.0
C      1  0.5287360000000  0.5132400000000  0.6045720000000 1.0
C      1  0.5466370000000  0.4150880000000  0.4843640000000 1.0
C      1  0.4319400000000  0.4813080000000  0.5806490000000 1.0
C      1  0.4820190000000  0.5775610000000  0.4224880000000 1.0
C      1  0.4151070000000  0.4560080000000  0.5406170000000 1.0
C      1  0.5379490000000  0.4063800000000  0.5086870000000 1.0
C      1  0.4648350000000  0.5314230000000  0.5220670000000 1.0
C      1  0.5035610000000  0.4444610000000  0.5945730000000 1.0
C      1  0.4222940000000  0.5272070000000  0.4158050000000 1.0
C      1  0.4838210000000  0.4611040000000  0.4670980000000 1.0
C      1  0.4508300000000  0.5027160000000  0.5890780000000 1.0
C      1  0.4923070000000  0.3992690000000  0.4890780000000 1.0
C      1  0.4690200000000  0.4595370000000  0.5109960000000 1.0
C      1  0.5510110000000  0.5002730000000  0.5889060000000 1.0
C      1  0.4448780000000  0.5086460000000  0.4621620000000 1.0
C      1  0.4062370000000  0.5306570000000  0.5045880000000 1.0
C      1  0.4819240000000  0.5922580000000  0.4509500000000 1.0
C      1  0.4358120000000  0.5466610000000  0.4344180000000 1.0
C      1  0.4744500000000  0.4695250000000  0.4011230000000 1.0
C      1  0.5514000000000  0.5836850000000  0.4881770000000 1.0
C      1  0.4580590000000  0.5283310000000  0.5732370000000 1.0
C      1  0.5294990000000  0.5728560000000  0.4364200000000 1.0
C      1  0.5643940000000  0.5632330000000  0.4710900000000 1.0
C      1  0.4906700000000  0.4611080000000  0.5494230000000 1.0
C      1  0.4633600000000  0.5781450000000  0.4727910000000 1.0
C      1  0.4699980000000  0.4851470000000  0.5988610000000 1.0
C      1  0.4977310000000  0.5258480000000  0.5621660000000 1.0
C      1  0.4481360000000  0.5329360000000  0.5466220000000 1.0
C      1  0.4852340000000  0.5460920000000  0.5807970000000 1.0
C      1  0.4544160000000  0.5017800000000  0.4369080000000 1.0
C      1  0.5553180000000  0.5613090000000  0.4436850000000 1.0
C      1  0.6051960000000  0.4713910000000  0.5450280000000 1.0
C      1  0.5449910000000  0.4979890000000  0.4606540000000 1.0
C      1  0.4901700000000  0.4453600000000  0.5248930000000 1.0
C      1  0.4778300000000  0.5546450000000  0.4820140000000 1.0
C      1  0.5637100000000  0.4751130000000  0.5854850000000 1.0
C      1  0.4636580000000  0.5548360000000  0.4267090000000 1.0
C      1  0.5199490000000  0.4443330000000  0.4222460000000 1.0
C      1  0.4025340000000  0.5027280000000  0.4973870000000 1.0
C      1  0.5445310000000  0.5519010000000  0.5482810000000 1.0
C      1  0.5051040000000  0.4429640000000  0.4759280000000 1.0
C      1  0.5091500000000  0.5676990000000  0.4162830000000 1.0
C      1  0.5242650000000  0.5168500000000  0.4546520000000 1.0
C      1  0.5036750000000  0.5382440000000  0.4121340000000 1.0
C      1  0.5455200000000  0.5338800000000  0.5232350000000 1.0
C      1  0.5323060000000  0.5962780000000  0.5280960000000 1.0
C      1  0.4283610000000  0.5879600000000  0.5103850000000 1.0
C      1  0.4456040000000  0.4127350000000  0.5425880000000 1.0
C      1  0.4121780000000  0.5076000000000  0.5466990000000 1.0
C      1  0.5449540000000  0.4819990000000  0.5276120000000 1.0
C      1  0.4862790000000  0.5394090000000  0.4371650000000 1.0
C      1  0.4809090000000  0.5725340000000  0.5670720000000 1.0
C      1  0.4449150000000  0.4879820000000  0.4817780000000 1.0
C      1  0.4725200000000  0.4020460000000  0.5497410000000 1.0
C      1  0.4179790000000  0.4573800000000  0.5110540000000 1.0
C      1  0.4936330000000  0.4206490000000  0.5408540000000 1.0
C      1  0.5868940000000  0.4504950000000  0.5458040000000 1.0
C      1  0.4984770000000  0.5042320000000  0.4556780000000 1.0
C      1  0.4919270000000  0.4690770000000  0.6076540000000 1.0
C      1  0.4398760000000  0.4514040000000  0.4251900000000 1.0
C      1  0.5593890000000  0.4543380000000  0.5638950000000 1.0
C      1  0.4650880000000  0.4740780000000  0.5517590000000 1.0
C      1  0.5909500000000  0.5194250000000  0.4672830000000 1.0
C      1  0.5790560000000  0.5409150000000  0.4829450000000 1.0
C      1  0.5111900000000  0.5768920000000  0.4601840000000 1.0
C      1  0.4127090000000  0.4820830000000  0.5578350000000 1.0
C      1  0.5515950000000  0.4202480000000  0.5317850000000 1.0
C      1  0.5755220000000  0.5760360000000  0.5311850000000 1.0
C      1  0.5210540000000  0.4299890000000  0.5772370000000 1.0
C      1  0.4643330000000  0.4671280000000  0.4842620000000 1.0
C      1  0.5885270000000  0.5282530000000  0.5348550000000 1.0
C      1  0.4492800000000  0.4093270000000  0.5154610000000 1.0
C      1  0.5448230000000  0.4275470000000  0.5590810000000 1.0
C      1  0.4599050000000  0.4824700000000  0.5251460000000 1.0
C      1  0.5380280000000  0.4351920000000  0.4402910000000 1.0
C      1  0.5694230000000  0.4902230000000  0.4409700000000 1.0
C      1  0.5301420000000  0.5210120000000  0.4222440000000 1.0
C      1  0.5531240000000  0.5269150000000  0.4144190000000 1.0
C      1  0.5219190000000  0.4920160000000  0.5191590000000 1.0
C      1  0.4829430000000  0.4922320000000  0.3932020000000 1.0
C      1  0.4903080000000  0.5964860000000  0.5257720000000 1.0
C      1  0.4201520000000  0.4725990000000  0.4266620000000 1.0
C      1  0.4809240000000  0.4969120000000  0.4327460000000 1.0
C      1  0.4736380000000  0.4076070000000  0.4713400000000 1.0
C      1  0.5100170000000  0.3920950000000  0.5089010000000 1.0
C      1  0.5097980000000  0.4925940000000  0.6123100000000 1.0
C      1  0.5392240000000  0.4686590000000  0.5488140000000 1.0
C      1  0.4322050000000  0.5335760000000  0.4607780000000 1.0
C      1  0.5056580000000  0.5546250000000  0.5189090000000 1.0
C      1  0.5869310000000  0.4711620000000  0.4585670000000 1.0
C      1  0.4165650000000  0.5435670000000  0.4826750000000 1.0
C      1  0.4470750000000  0.4140150000000  0.4885560000000 1.0
C      1  0.4677130000000  0.4461220000000  0.4147660000000 1.0
C      1  0.4466770000000  0.4584740000000  0.5688830000000 1.0
C      1  0.5157880000000  0.5397870000000  0.5960980000000 1.0
C      1  0.4985440000000  0.5473710000000  0.4625520000000 1.0
C      1  0.4793980000000  0.5522510000000  0.5101310000000 1.0
C      1  0.5788310000000  0.4454160000000  0.4702160000000 1.0
C      1  0.5266270000000  0.4600730000000  0.4800580000000 1.0
C      1  0.4924280000000  0.4350000000000  0.4284380000000 1.0
C      1  0.5203180000000  0.5318610000000  0.5085280000000 1.0
END
