TITL C-884134-5972-173 32.1710888282568 125000 -17548.6038145424 0 0 118 (C1) n - 1
REM
REM in /home/nfs/bkarasulu/CARBON/AIRSS/Generating-Clusters/ReaxFF-fromJPCA2015/Units_Real/with-SteepDescent/Only-C1/SD-CG/Try1-3A/FIRE-CG
REM
REM
REM
REM
REM
REM ./C.cell (11c1c37f851c82e70ff6c80c92926a4b)
REM
REM compiler GCC version 9.2.1 20190827 (Red Hat 9.2.1-1)
REM options -cpp -mtune=generic -march=x86-64 -g -O0 -fpre-include=/usr/include/finclude/math-vector-fortran.h
REM seed -1381191748 -257253627 -1446763659 380118035 1842510672 -1243083430 -1961458324 -509397573 545611962 -224903665 -1923611370 -67485432 1610220738 1586572659 -817662690 -806618807 627432715 -1049112593 -310576367 2139583481 685603650 1696963469 780839715 285533435 -814717430 -2085020524 393284726 -483088767 -1201796889 -445832069 -360785068 1350486447 808080498
REM
CELL 1.54180   50.00000   50.00000   50.00000   90.00000   90.00000   90.00000
LATT -1
SFAC C  
C      1  0.4761230000000  0.5955000000000  0.5072590000000 1.0
C      1  0.5646480000000  0.4847370000000  0.5191650000000 1.0
C      1  0.4950900000000  0.4690380000000  0.4928450000000 1.0
C      1  0.4619590000000  0.5501180000000  0.4336900000000 1.0
C      1  0.4672200000000  0.4661730000000  0.5749410000000 1.0
C      1  0.4963760000000  0.5831840000000  0.5480970000000 1.0
C      1  0.4468600000000  0.4257590000000  0.4967930000000 1.0
C      1  0.5928990000000  0.4808090000000  0.5102120000000 1.0
C      1  0.5437420000000  0.4150350000000  0.5116730000000 1.0
C      1  0.4769570000000  0.5149820000000  0.4748800000000 1.0
C      1  0.5036420000000  0.5889250000000  0.4433420000000 1.0
C      1  0.4839320000000  0.4192120000000  0.4597190000000 1.0
C      1  0.4596390000000  0.4896330000000  0.5207210000000 1.0
C      1  0.5423920000000  0.5331860000000  0.4999760000000 1.0
C      1  0.5640870000000  0.4879120000000  0.5496040000000 1.0
C      1  0.5589220000000  0.5055750000000  0.4923230000000 1.0
C      1  0.4004960000000  0.4738840000000  0.4808960000000 1.0
C      1  0.5541680000000  0.4217080000000  0.4853460000000 1.0
C      1  0.5867810000000  0.4603870000000  0.4916580000000 1.0
C      1  0.5216940000000  0.5423110000000  0.5700630000000 1.0
C      1  0.5230180000000  0.4270970000000  0.5610220000000 1.0
C      1  0.4962390000000  0.4938220000000  0.4800910000000 1.0
C      1  0.5283530000000  0.5806210000000  0.4344040000000 1.0
C      1  0.5471430000000  0.5607590000000  0.4539090000000 1.0
C      1  0.5740110000000  0.4405480000000  0.4749920000000 1.0
C      1  0.5433950000000  0.5235030000000  0.5750380000000 1.0
C      1  0.4757620000000  0.4650920000000  0.5147310000000 1.0
C      1  0.5403750000000  0.4615370000000  0.5145050000000 1.0
C      1  0.5283660000000  0.4311810000000  0.4721180000000 1.0
C      1  0.5215120000000  0.4991390000000  0.4692470000000 1.0
C      1  0.5433390000000  0.5421110000000  0.4300860000000 1.0
C      1  0.5230290000000  0.5790070000000  0.5364830000000 1.0
C      1  0.5707590000000  0.5694350000000  0.4762890000000 1.0
C      1  0.5188620000000  0.5558120000000  0.4216980000000 1.0
C      1  0.4649600000000  0.5552890000000  0.5467070000000 1.0
C      1  0.5208040000000  0.4550390000000  0.4928710000000 1.0
C      1  0.4177190000000  0.4797640000000  0.4583840000000 1.0
C      1  0.4918210000000  0.5272330000000  0.4509510000000 1.0
C      1  0.4358410000000  0.4998090000000  0.5329810000000 1.0
C      1  0.4363500000000  0.4345280000000  0.5242270000000 1.0
C      1  0.5373770000000  0.5857520000000  0.5114940000000 1.0
C      1  0.4755520000000  0.5308130000000  0.4999400000000 1.0
C      1  0.5086600000000  0.4096930000000  0.4709910000000 1.0
C      1  0.4386050000000  0.5338480000000  0.5407600000000 1.0
C      1  0.4570550000000  0.5723190000000  0.4530360000000 1.0
C      1  0.4127960000000  0.4838900000000  0.5252280000000 1.0
C      1  0.4148490000000  0.4544300000000  0.5209600000000 1.0
C      1  0.4622420000000  0.5027600000000  0.4171160000000 1.0
C      1  0.5651460000000  0.5157210000000  0.5563060000000 1.0
C      1  0.4112640000000  0.5275400000000  0.4727640000000 1.0
C      1  0.4937560000000  0.5350890000000  0.5668570000000 1.0
C      1  0.5370770000000  0.4895810000000  0.4054210000000 1.0
C      1  0.5639630000000  0.5736480000000  0.5049600000000 1.0
C      1  0.5306560000000  0.5040100000000  0.5935410000000 1.0
C      1  0.4342400000000  0.4558990000000  0.4559290000000 1.0
C      1  0.5528390000000  0.4669430000000  0.5666950000000 1.0
C      1  0.5078540000000  0.4631110000000  0.5887900000000 1.0
C      1  0.4859310000000  0.5610130000000  0.5655260000000 1.0
C      1  0.5201790000000  0.5788560000000  0.4891370000000 1.0
C      1  0.5017100000000  0.5042420000000  0.5999960000000 1.0
C      1  0.5613210000000  0.4498530000000  0.4485990000000 1.0
C      1  0.4450430000000  0.5647750000000  0.4780280000000 1.0
C      1  0.4927600000000  0.5933270000000  0.4842940000000 1.0
C      1  0.5965290000000  0.5114740000000  0.5135610000000 1.0
C      1  0.5269150000000  0.5007560000000  0.4422000000000 1.0
C      1  0.4436610000000  0.4444680000000  0.5491470000000 1.0
C      1  0.4284100000000  0.4377230000000  0.4783320000000 1.0
C      1  0.5313060000000  0.5544020000000  0.4783920000000 1.0
C      1  0.5455120000000  0.4869970000000  0.4751120000000 1.0
C      1  0.4429440000000  0.5679250000000  0.5071830000000 1.0
C      1  0.4714830000000  0.4159850000000  0.4868700000000 1.0
C      1  0.4699940000000  0.5816380000000  0.5338680000000 1.0
C      1  0.5138830000000  0.5032390000000  0.5353640000000 1.0
C      1  0.5284430000000  0.5509030000000  0.5427690000000 1.0
C      1  0.5802470000000  0.5117990000000  0.4715590000000 1.0
C      1  0.5148680000000  0.4113520000000  0.5169520000000 1.0
C      1  0.3964150000000  0.4924070000000  0.5026180000000 1.0
C      1  0.4085630000000  0.5403960000000  0.4984030000000 1.0
C      1  0.5796020000000  0.5272670000000  0.5320610000000 1.0
C      1  0.5030470000000  0.5093420000000  0.4315570000000 1.0
C      1  0.4570920000000  0.4402130000000  0.5734260000000 1.0
C      1  0.5043270000000  0.4261250000000  0.5396840000000 1.0
C      1  0.3936350000000  0.5184260000000  0.4927920000000 1.0
C      1  0.5347460000000  0.4749780000000  0.5879350000000 1.0
C      1  0.4849040000000  0.4417200000000  0.4409990000000 1.0
C      1  0.4973860000000  0.4054640000000  0.4956780000000 1.0
C      1  0.5120800000000  0.4765330000000  0.4102440000000 1.0
C      1  0.4732770000000  0.5157900000000  0.5245230000000 1.0
C      1  0.4792330000000  0.5913390000000  0.4565580000000 1.0
C      1  0.4209950000000  0.5165810000000  0.5874460000000 1.0
C      1  0.4954880000000  0.4546730000000  0.5333370000000 1.0
C      1  0.4599230000000  0.4852430000000  0.4407950000000 1.0
C      1  0.4824470000000  0.4204770000000  0.5744750000000 1.0
C      1  0.5509320000000  0.5122970000000  0.4278980000000 1.0
C      1  0.4279930000000  0.5100170000000  0.4563730000000 1.0
C      1  0.4483540000000  0.5238580000000  0.4319120000000 1.0
C      1  0.4083710000000  0.4504570000000  0.4934230000000 1.0
C      1  0.4250370000000  0.5494340000000  0.5193710000000 1.0
C      1  0.5637140000000  0.5469840000000  0.5173200000000 1.0
C      1  0.4903440000000  0.4978580000000  0.4089330000000 1.0
C      1  0.5340180000000  0.4422420000000  0.4429500000000 1.0
C      1  0.5259220000000  0.5279170000000  0.5248060000000 1.0
C      1  0.5529620000000  0.4367370000000  0.5282580000000 1.0
C      1  0.5069910000000  0.4341330000000  0.5826910000000 1.0
C      1  0.4915300000000  0.5478470000000  0.4325030000000 1.0
C      1  0.4880750000000  0.4846550000000  0.5795660000000 1.0
C      1  0.4895820000000  0.5128620000000  0.5491620000000 1.0
C      1  0.4646770000000  0.5553870000000  0.4961320000000 1.0
C      1  0.5103850000000  0.4522220000000  0.4302710000000 1.0
C      1  0.4526040000000  0.5001110000000  0.4650330000000 1.0
C      1  0.5749930000000  0.5033460000000  0.4443340000000 1.0
C      1  0.5906620000000  0.5506820000000  0.4812930000000 1.0
C      1  0.6014760000000  0.5250760000000  0.4875860000000 1.0
C      1  0.5626080000000  0.4786100000000  0.4531000000000 1.0
C      1  0.4591950000000  0.4559790000000  0.4405860000000 1.0
C      1  0.5476900000000  0.4397840000000  0.5563180000000 1.0
C      1  0.4276000000000  0.5247700000000  0.5655340000000 1.0
C      1  0.5167730000000  0.4745940000000  0.5305060000000 1.0
END
