TITL C-883738-3659-179 0.0081130447392636 125000 -3595.777935874 0 0 26 (C1) n - 1
REM
REM in /home/nfs/bkarasulu/CARBON/AIRSS/Generating-Clusters/ReaxFF-fromJPCA2015/Units_Real/with-SteepDescent/Only-C1/SD-CG/Try1-3A/FIRE-CG
REM
REM
REM
REM
REM
REM ./C.cell (11c1c37f851c82e70ff6c80c92926a4b)
REM
REM compiler GCC version 9.2.1 20190827 (Red Hat 9.2.1-1)
REM options -cpp -mtune=generic -march=x86-64 -g -O0 -fpre-include=/usr/include/finclude/math-vector-fortran.h
REM seed 1795733415 1624450989 -2007091722 -1944651528 -5528295 -747958152 1841874275 1782301907 -42431863 1730153342 -1199607160 -616348060 -875031844 -772875698 -1790370922 1129567977 -647313278 441863870 -1241783190 -230196397 183281654 -859311265 489814369 -647129697 -1094188521 -1973865743 1095829840 1377306825 1939969960 -1463129273 -240508889 1457860396 -747443475
REM
CELL 1.54180   50.00000   50.00000   50.00000   90.00000   90.00000   90.00000
LATT -1
SFAC C  
C      1  0.4996990000000  0.5220990000000  0.4875840000000 1.0
C      1  0.5370140000000  0.4632060000000  0.5417510000000 1.0
C      1  0.4849880000000  0.5500060000000  0.5271360000000 1.0
C      1  0.4513670000000  0.5036480000000  0.5392500000000 1.0
C      1  0.4968650000000  0.4921480000000  0.4873760000000 1.0
C      1  0.5411410000000  0.4777520000000  0.4671920000000 1.0
C      1  0.4755210000000  0.5392680000000  0.5010930000000 1.0
C      1  0.4778380000000  0.4922660000000  0.5341000000000 1.0
C      1  0.5083390000000  0.5316450000000  0.5343940000000 1.0
C      1  0.4230920000000  0.4890120000000  0.5007830000000 1.0
C      1  0.5188600000000  0.4761860000000  0.4820640000000 1.0
C      1  0.5285830000000  0.4938380000000  0.5406030000000 1.0
C      1  0.5280720000000  0.5203570000000  0.4454790000000 1.0
C      1  0.5508600000000  0.4998330000000  0.4202630000000 1.0
C      1  0.5216780000000  0.5260120000000  0.5085500000000 1.0
C      1  0.4340960000000  0.5113590000000  0.5150950000000 1.0
C      1  0.4586620000000  0.4508750000000  0.4853300000000 1.0
C      1  0.5440740000000  0.4789520000000  0.4965870000000 1.0
C      1  0.4473300000000  0.5338430000000  0.4980220000000 1.0
C      1  0.5024710000000  0.5050820000000  0.5458550000000 1.0
C      1  0.5381440000000  0.5039140000000  0.5154350000000 1.0
C      1  0.5466440000000  0.4992630000000  0.4474230000000 1.0
C      1  0.5466960000000  0.4530570000000  0.5171960000000 1.0
C      1  0.5085190000000  0.5343490000000  0.4576800000000 1.0
C      1  0.4787670000000  0.4802960000000  0.5067430000000 1.0
C      1  0.4506810000000  0.4717330000000  0.4970160000000 1.0
END
