TITL C-883731-9874-366 -5.38442357627307 125000 -22585.4434090182 0 0 149 (C1) n - 1
REM
REM in /home/nfs/bkarasulu/CARBON/AIRSS/Generating-Clusters/ReaxFF-fromJPCA2015/Units_Real/with-SteepDescent/Only-C1/SD-CG/Try1-3A/FIRE-CG
REM
REM
REM
REM
REM
REM ./C.cell (11c1c37f851c82e70ff6c80c92926a4b)
REM
REM compiler GCC version 9.2.1 20190827 (Red Hat 9.2.1-1)
REM options -cpp -mtune=generic -march=x86-64 -g -O0 -fpre-include=/usr/include/finclude/math-vector-fortran.h
REM seed -981495189 -709045500 -469997735 134906549 -787924322 781511406 -496147659 1643765824 -1681495344 -1291887029 712952085 202348572 555946525 -808441222 303395463 -468628729 -27996947 -1316854196 -1513204541 -1322464292 2130555765 2063689456 1551971895 -1769571624 613833297 1755642329 165902305 -2108297043 -1517171554 -959874264 -1674686255 -1579506473 -491439140
REM
CELL 1.54180   50.00000   50.00000   50.00000   90.00000   90.00000   90.00000
LATT -1
SFAC C  
C      1  0.4873880000000  0.5347240000000  0.5651420000000 1.0
C      1  0.4457480000000  0.5449750000000  0.5108490000000 1.0
C      1  0.5648430000000  0.5735650000000  0.4725360000000 1.0
C      1  0.4992290000000  0.5122660000000  0.4026880000000 1.0
C      1  0.4708900000000  0.5459510000000  0.5230560000000 1.0
C      1  0.4878930000000  0.4452230000000  0.5743100000000 1.0
C      1  0.4172110000000  0.5197240000000  0.4490910000000 1.0
C      1  0.4963290000000  0.4227120000000  0.4442250000000 1.0
C      1  0.5148460000000  0.4502600000000  0.5875900000000 1.0
C      1  0.4165950000000  0.5273310000000  0.4772760000000 1.0
C      1  0.5408640000000  0.4803920000000  0.4100080000000 1.0
C      1  0.5355780000000  0.5230060000000  0.5955400000000 1.0
C      1  0.5416940000000  0.4671520000000  0.4896670000000 1.0
C      1  0.6043850000000  0.5348920000000  0.4679200000000 1.0
C      1  0.5395580000000  0.5524920000000  0.4857390000000 1.0
C      1  0.6129220000000  0.4912130000000  0.5001050000000 1.0
C      1  0.5597700000000  0.5412450000000  0.5582450000000 1.0
C      1  0.5502360000000  0.5306050000000  0.5028200000000 1.0
C      1  0.5374190000000  0.5316350000000  0.4059660000000 1.0
C      1  0.5910250000000  0.5493770000000  0.5295730000000 1.0
C      1  0.3983910000000  0.4760870000000  0.4554350000000 1.0
C      1  0.4663920000000  0.4630480000000  0.5639550000000 1.0
C      1  0.5176850000000  0.4020090000000  0.4713140000000 1.0
C      1  0.4838670000000  0.4920480000000  0.4202280000000 1.0
C      1  0.4429330000000  0.5017670000000  0.5862280000000 1.0
C      1  0.5993680000000  0.5229560000000  0.5425730000000 1.0
C      1  0.4171370000000  0.5034930000000  0.4962790000000 1.0
C      1  0.5547890000000  0.4137140000000  0.5300400000000 1.0
C      1  0.5770090000000  0.4497440000000  0.5488670000000 1.0
C      1  0.5679680000000  0.4939890000000  0.5743510000000 1.0
C      1  0.4247870000000  0.5465780000000  0.5318870000000 1.0
C      1  0.5021380000000  0.5739770000000  0.5494030000000 1.0
C      1  0.5445890000000  0.4954320000000  0.5919820000000 1.0
C      1  0.4812150000000  0.5798070000000  0.5587260000000 1.0
C      1  0.4631680000000  0.4855100000000  0.5447710000000 1.0
C      1  0.4090120000000  0.4497170000000  0.5167080000000 1.0
C      1  0.6012640000000  0.5693980000000  0.5093940000000 1.0
C      1  0.4710000000000  0.4234490000000  0.4845400000000 1.0
C      1  0.5044590000000  0.3989670000000  0.5181950000000 1.0
C      1  0.5156900000000  0.4680160000000  0.5510980000000 1.0
C      1  0.4403970000000  0.4568550000000  0.5755580000000 1.0
C      1  0.6081830000000  0.5083440000000  0.4741680000000 1.0
C      1  0.4249710000000  0.4318400000000  0.4601810000000 1.0
C      1  0.4662460000000  0.5152400000000  0.4813540000000 1.0
C      1  0.4938320000000  0.5412490000000  0.4082400000000 1.0
C      1  0.4831200000000  0.4179040000000  0.5652410000000 1.0
C      1  0.4633090000000  0.4129450000000  0.5454830000000 1.0
C      1  0.5287680000000  0.4439530000000  0.5626480000000 1.0
C      1  0.5692800000000  0.4762240000000  0.5529990000000 1.0
C      1  0.5231750000000  0.4760360000000  0.5994860000000 1.0
C      1  0.5273760000000  0.4745380000000  0.5280530000000 1.0
C      1  0.4997450000000  0.5795230000000  0.4574070000000 1.0
C      1  0.5361500000000  0.3919310000000  0.4905780000000 1.0
C      1  0.5658080000000  0.5089380000000  0.4921980000000 1.0
C      1  0.4356330000000  0.5898720000000  0.5164010000000 1.0
C      1  0.4757100000000  0.4412200000000  0.5079280000000 1.0
C      1  0.5344600000000  0.3953420000000  0.5190060000000 1.0
C      1  0.4555420000000  0.5688550000000  0.5592950000000 1.0
C      1  0.5172570000000  0.4672110000000  0.5035380000000 1.0
C      1  0.4901580000000  0.5418810000000  0.5935680000000 1.0
C      1  0.5342740000000  0.5971230000000  0.5252010000000 1.0
C      1  0.4882610000000  0.5997500000000  0.5058790000000 1.0
C      1  0.5591000000000  0.5821440000000  0.5218400000000 1.0
C      1  0.3942120000000  0.4563530000000  0.4926900000000 1.0
C      1  0.4989920000000  0.4937290000000  0.5951240000000 1.0
C      1  0.5792150000000  0.5036600000000  0.4680800000000 1.0
C      1  0.4152760000000  0.4650530000000  0.5642410000000 1.0
C      1  0.5626980000000  0.4940340000000  0.4237360000000 1.0
C      1  0.4649560000000  0.5082660000000  0.4390730000000 1.0
C      1  0.5541130000000  0.4320170000000  0.5524940000000 1.0
C      1  0.4559390000000  0.4831500000000  0.4516480000000 1.0
C      1  0.3968260000000  0.4841890000000  0.4838330000000 1.0
C      1  0.4878670000000  0.4003090000000  0.5426480000000 1.0
C      1  0.5486920000000  0.5863850000000  0.4514000000000 1.0
C      1  0.4376000000000  0.4395850000000  0.4346800000000 1.0
C      1  0.4172240000000  0.4915780000000  0.4401740000000 1.0
C      1  0.5445200000000  0.4205980000000  0.4614200000000 1.0
C      1  0.4390690000000  0.4239760000000  0.4840860000000 1.0
C      1  0.4276570000000  0.5393540000000  0.4291050000000 1.0
C      1  0.5053580000000  0.5983820000000  0.5305700000000 1.0
C      1  0.4593290000000  0.5999780000000  0.5011410000000 1.0
C      1  0.5774940000000  0.5842700000000  0.4990580000000 1.0
C      1  0.4649480000000  0.5489810000000  0.4129020000000 1.0
C      1  0.5373580000000  0.5465990000000  0.5762080000000 1.0
C      1  0.4785210000000  0.5604800000000  0.4585340000000 1.0
C      1  0.5150690000000  0.5626090000000  0.4977960000000 1.0
C      1  0.4500140000000  0.5243610000000  0.4176020000000 1.0
C      1  0.5536130000000  0.4839610000000  0.5312160000000 1.0
C      1  0.4321040000000  0.5509350000000  0.4848040000000 1.0
C      1  0.4406790000000  0.4699500000000  0.4292560000000 1.0
C      1  0.4991400000000  0.4732940000000  0.4437730000000 1.0
C      1  0.4555990000000  0.4326650000000  0.5266140000000 1.0
C      1  0.5888620000000  0.4463830000000  0.5220500000000 1.0
C      1  0.5334170000000  0.5440190000000  0.4580830000000 1.0
C      1  0.5939650000000  0.4693300000000  0.5054430000000 1.0
C      1  0.5613760000000  0.5515590000000  0.5295850000000 1.0
C      1  0.4480600000000  0.5099530000000  0.5570510000000 1.0
C      1  0.5453710000000  0.4425080000000  0.4422910000000 1.0
C      1  0.4534390000000  0.5712130000000  0.4568190000000 1.0
C      1  0.4682290000000  0.5269170000000  0.6049860000000 1.0
C      1  0.5088910000000  0.5214590000000  0.6051390000000 1.0
C      1  0.4994030000000  0.5499020000000  0.5182380000000 1.0
C      1  0.5634580000000  0.4819970000000  0.5038020000000 1.0
C      1  0.4684590000000  0.4855040000000  0.5165220000000 1.0
C      1  0.5613580000000  0.4233200000000  0.4834290000000 1.0
C      1  0.4646980000000  0.5405800000000  0.5515590000000 1.0
C      1  0.5164600000000  0.5632690000000  0.5688270000000 1.0
C      1  0.4864470000000  0.4671190000000  0.4992450000000 1.0
C      1  0.4670460000000  0.4997490000000  0.6025780000000 1.0
C      1  0.4307670000000  0.4306440000000  0.5104880000000 1.0
C      1  0.4516920000000  0.5019940000000  0.4982540000000 1.0
C      1  0.4227240000000  0.5195960000000  0.5434290000000 1.0
C      1  0.4766430000000  0.4052180000000  0.4300890000000 1.0
C      1  0.5732160000000  0.4239890000000  0.5091200000000 1.0
C      1  0.4265790000000  0.4784980000000  0.5860180000000 1.0
C      1  0.4786770000000  0.4671170000000  0.4641050000000 1.0
C      1  0.5263120000000  0.5042070000000  0.3996440000000 1.0
C      1  0.4771360000000  0.4475140000000  0.4081630000000 1.0
C      1  0.4641910000000  0.4722650000000  0.4090470000000 1.0
C      1  0.4335030000000  0.5732270000000  0.5410180000000 1.0
C      1  0.5686560000000  0.4855650000000  0.4502500000000 1.0
C      1  0.4242430000000  0.5794970000000  0.4911150000000 1.0
C      1  0.4962170000000  0.4029570000000  0.4909650000000 1.0
C      1  0.5460740000000  0.4688380000000  0.4608080000000 1.0
C      1  0.4115190000000  0.4992810000000  0.5265080000000 1.0
C      1  0.5614920000000  0.5386630000000  0.4453530000000 1.0
C      1  0.4001910000000  0.4474600000000  0.4651730000000 1.0
C      1  0.4806330000000  0.4382650000000  0.4629490000000 1.0
C      1  0.5206770000000  0.4835070000000  0.4588240000000 1.0
C      1  0.5327600000000  0.4532930000000  0.4189530000000 1.0
C      1  0.5164970000000  0.5046210000000  0.4781220000000 1.0
C      1  0.4453300000000  0.5631760000000  0.4303960000000 1.0
C      1  0.5839710000000  0.5514100000000  0.4580250000000 1.0
C      1  0.5031740000000  0.4479670000000  0.4251820000000 1.0
C      1  0.5092490000000  0.5242680000000  0.5243780000000 1.0
C      1  0.5046330000000  0.5866050000000  0.4854710000000 1.0
C      1  0.4822880000000  0.5310760000000  0.4606030000000 1.0
C      1  0.5110190000000  0.5261010000000  0.4600540000000 1.0
C      1  0.5239450000000  0.5719450000000  0.4406450000000 1.0
C      1  0.4582370000000  0.4268350000000  0.4188720000000 1.0
C      1  0.5191040000000  0.5526200000000  0.4148780000000 1.0
C      1  0.5053050000000  0.4911220000000  0.5644190000000 1.0
C      1  0.6066140000000  0.5043540000000  0.5232890000000 1.0
C      1  0.5271630000000  0.5131600000000  0.5047410000000 1.0
C      1  0.4104180000000  0.4719350000000  0.5360970000000 1.0
C      1  0.5778050000000  0.5191730000000  0.5630350000000 1.0
C      1  0.4456960000000  0.5918040000000  0.4758680000000 1.0
C      1  0.5028850000000  0.5158370000000  0.5505880000000 1.0
C      1  0.5616990000000  0.5235500000000  0.4209440000000 1.0
END
