TITL C-884136-4169-295 1.57020858473569 125000 -11559.622709249 0 0 78 (C1) n - 1
REM
REM in /home/nfs/bkarasulu/CARBON/AIRSS/Generating-Clusters/ReaxFF-fromJPCA2015/Units_Real/with-SteepDescent/Only-C1/SD-CG/Try1-3A/FIRE-CG
REM
REM
REM
REM
REM
REM ./C.cell (11c1c37f851c82e70ff6c80c92926a4b)
REM
REM compiler GCC version 9.2.1 20190827 (Red Hat 9.2.1-1)
REM options -cpp -mtune=generic -march=x86-64 -g -O0 -fpre-include=/usr/include/finclude/math-vector-fortran.h
REM seed 704155081 -1220217147 -1626421822 1344177794 -1991560961 -1332033540 2072435857 428555643 1248751095 1166117314 -1735278578 957989461 53842791 2132831448 363832038 1799530434 609292687 -1662697815 569699940 -543792772 -1889081387 107973499 1867207596 422123357 -380407578 1988790611 -1230544797 28896229 631698532 -1553731304 1690745753 -1109421502 1821476755
REM
CELL 1.54180   50.00000   50.00000   50.00000   90.00000   90.00000   90.00000
LATT -1
SFAC C  
C      1  0.5302820000000  0.5661190000000  0.4813950000000 1.0
C      1  0.5728980000000  0.5229400000000  0.5141370000000 1.0
C      1  0.4624540000000  0.5681340000000  0.4439130000000 1.0
C      1  0.5002920000000  0.4357760000000  0.4412440000000 1.0
C      1  0.4293390000000  0.4776110000000  0.5008350000000 1.0
C      1  0.4291340000000  0.5288020000000  0.4940960000000 1.0
C      1  0.4364630000000  0.5517660000000  0.5111750000000 1.0
C      1  0.4721710000000  0.5717030000000  0.5206870000000 1.0
C      1  0.4798590000000  0.4168620000000  0.5038370000000 1.0
C      1  0.4595570000000  0.5270970000000  0.5499440000000 1.0
C      1  0.5051050000000  0.4667810000000  0.5037540000000 1.0
C      1  0.5213030000000  0.4709170000000  0.5706130000000 1.0
C      1  0.4576790000000  0.5462570000000  0.4246030000000 1.0
C      1  0.5041240000000  0.5792450000000  0.4799880000000 1.0
C      1  0.4699350000000  0.4860940000000  0.4681780000000 1.0
C      1  0.5380780000000  0.4957080000000  0.4592350000000 1.0
C      1  0.5433070000000  0.5482220000000  0.4600320000000 1.0
C      1  0.4356790000000  0.4594840000000  0.5454600000000 1.0
C      1  0.5725700000000  0.4783390000000  0.5067970000000 1.0
C      1  0.4471400000000  0.5130950000000  0.4463330000000 1.0
C      1  0.5378630000000  0.5644220000000  0.5093160000000 1.0
C      1  0.4586040000000  0.4468510000000  0.4655210000000 1.0
C      1  0.4557160000000  0.5535680000000  0.5348950000000 1.0
C      1  0.5039290000000  0.5007750000000  0.5294780000000 1.0
C      1  0.5673690000000  0.5301050000000  0.4637000000000 1.0
C      1  0.4795850000000  0.5134600000000  0.5669900000000 1.0
C      1  0.5423570000000  0.4451410000000  0.5319730000000 1.0
C      1  0.4549030000000  0.4810290000000  0.5469490000000 1.0
C      1  0.4902460000000  0.5007580000000  0.4831160000000 1.0
C      1  0.5387510000000  0.4573190000000  0.4503100000000 1.0
C      1  0.5364990000000  0.4801670000000  0.4387510000000 1.0
C      1  0.5052720000000  0.4264270000000  0.4645040000000 1.0
C      1  0.5232940000000  0.5350600000000  0.4471910000000 1.0
C      1  0.5224430000000  0.5044170000000  0.5080960000000 1.0
C      1  0.4960070000000  0.5102470000000  0.4274530000000 1.0
C      1  0.5727650000000  0.4972560000000  0.5287500000000 1.0
C      1  0.5294780000000  0.4592120000000  0.4898410000000 1.0
C      1  0.4795190000000  0.5678930000000  0.4678950000000 1.0
C      1  0.4662170000000  0.5173570000000  0.4259670000000 1.0
C      1  0.5511520000000  0.5018630000000  0.5634200000000 1.0
C      1  0.4412210000000  0.4348650000000  0.5309670000000 1.0
C      1  0.4997210000000  0.5299800000000  0.4490050000000 1.0
C      1  0.5202860000000  0.5446510000000  0.5642220000000 1.0
C      1  0.5143350000000  0.5737680000000  0.5249370000000 1.0
C      1  0.4788180000000  0.4262130000000  0.4747970000000 1.0
C      1  0.4815440000000  0.5397150000000  0.4742300000000 1.0
C      1  0.4751590000000  0.4844860000000  0.5665080000000 1.0
C      1  0.5813990000000  0.5236100000000  0.4872650000000 1.0
C      1  0.4233890000000  0.4561140000000  0.5197550000000 1.0
C      1  0.5033210000000  0.5516030000000  0.5410830000000 1.0
C      1  0.4939600000000  0.5286450000000  0.5255200000000 1.0
C      1  0.4851120000000  0.5256540000000  0.4983090000000 1.0
C      1  0.5450510000000  0.4619520000000  0.5558690000000 1.0
C      1  0.5292020000000  0.4408780000000  0.4671190000000 1.0
C      1  0.4693080000000  0.4291880000000  0.5283490000000 1.0
C      1  0.5269310000000  0.4993690000000  0.5769890000000 1.0
C      1  0.4494260000000  0.4700460000000  0.4814940000000 1.0
C      1  0.4935540000000  0.5851810000000  0.5073230000000 1.0
C      1  0.4943780000000  0.4630360000000  0.5657290000000 1.0
C      1  0.5637050000000  0.5016450000000  0.4583300000000 1.0
C      1  0.5582960000000  0.5470840000000  0.5241200000000 1.0
C      1  0.4915490000000  0.4459610000000  0.5407630000000 1.0
C      1  0.4449300000000  0.5064450000000  0.5371830000000 1.0
C      1  0.4730290000000  0.4655410000000  0.4486900000000 1.0
C      1  0.4313500000000  0.5052190000000  0.5111520000000 1.0
C      1  0.5436430000000  0.5459980000000  0.5478380000000 1.0
C      1  0.5636410000000  0.4850620000000  0.5530790000000 1.0
C      1  0.5093740000000  0.4845470000000  0.4275880000000 1.0
C      1  0.4371240000000  0.5530090000000  0.4451890000000 1.0
C      1  0.5076450000000  0.4203990000000  0.5036230000000 1.0
C      1  0.5170580000000  0.4307090000000  0.5282100000000 1.0
C      1  0.5193210000000  0.4983730000000  0.4814950000000 1.0
C      1  0.5797920000000  0.4955050000000  0.4832730000000 1.0
C      1  0.5066010000000  0.5204590000000  0.5749510000000 1.0
C      1  0.4935180000000  0.4599610000000  0.4296420000000 1.0
C      1  0.4881810000000  0.4747030000000  0.5242650000000 1.0
C      1  0.5537160000000  0.4567010000000  0.5078860000000 1.0
C      1  0.4320730000000  0.5294440000000  0.4628820000000 1.0
END
