TITL C-883728-9229-399 -1.60981041364461 125000 -13308.7141256954 0 0 89 (C1) n - 1
REM
REM in /home/nfs/bkarasulu/CARBON/AIRSS/Generating-Clusters/ReaxFF-fromJPCA2015/Units_Real/with-SteepDescent/Only-C1/SD-CG/Try1-3A/FIRE-CG
REM
REM
REM
REM
REM
REM ./C.cell (11c1c37f851c82e70ff6c80c92926a4b)
REM
REM compiler GCC version 9.2.1 20190827 (Red Hat 9.2.1-1)
REM options -cpp -mtune=generic -march=x86-64 -g -O0 -fpre-include=/usr/include/finclude/math-vector-fortran.h
REM seed -1868644285 -966329469 624978547 1022748159 689290863 2021570393 1018003742 -1215670620 -1397359498 -755653359 -163925872 142453244 -1755019047 -1450180639 -19250211 249497687 1250375372 103145609 -2085418374 941136856 -199522125 -1753613306 510359994 1684525971 -1092428004 1135516744 1101295822 -1717332843 -989379295 -1283027848 -2100559497 -1761785219 852128407
REM
CELL 1.54180   50.00000   50.00000   50.00000   90.00000   90.00000   90.00000
LATT -1
SFAC C  
C      1  0.5465200000000  0.4641740000000  0.4331660000000 1.0
C      1  0.5328790000000  0.5004020000000  0.4651060000000 1.0
C      1  0.5287260000000  0.4955000000000  0.4934810000000 1.0
C      1  0.5672120000000  0.4501840000000  0.4984930000000 1.0
C      1  0.4683640000000  0.4769650000000  0.5132240000000 1.0
C      1  0.4844230000000  0.5018400000000  0.4682620000000 1.0
C      1  0.5561010000000  0.5071100000000  0.4480870000000 1.0
C      1  0.5063110000000  0.5237280000000  0.5284840000000 1.0
C      1  0.5435460000000  0.5143660000000  0.4202700000000 1.0
C      1  0.5623930000000  0.5459870000000  0.4677390000000 1.0
C      1  0.4922100000000  0.4022350000000  0.4939700000000 1.0
C      1  0.4623640000000  0.5007440000000  0.5260240000000 1.0
C      1  0.4647760000000  0.5137030000000  0.5880440000000 1.0
C      1  0.5588350000000  0.5087980000000  0.5605740000000 1.0
C      1  0.5005060000000  0.5760710000000  0.4833870000000 1.0
C      1  0.4942210000000  0.4646650000000  0.4181660000000 1.0
C      1  0.5089460000000  0.5771320000000  0.5435780000000 1.0
C      1  0.4101200000000  0.4846850000000  0.5022270000000 1.0
C      1  0.5542340000000  0.5789360000000  0.4932880000000 1.0
C      1  0.4491220000000  0.5818040000000  0.5080440000000 1.0
C      1  0.4944710000000  0.5565270000000  0.4467220000000 1.0
C      1  0.5074330000000  0.5569670000000  0.5602260000000 1.0
C      1  0.4103180000000  0.4622000000000  0.5213200000000 1.0
C      1  0.5158800000000  0.5177280000000  0.4275760000000 1.0
C      1  0.4603940000000  0.4453620000000  0.4547890000000 1.0
C      1  0.4658610000000  0.4574280000000  0.4275450000000 1.0
C      1  0.4889540000000  0.4796710000000  0.5826890000000 1.0
C      1  0.5758550000000  0.5217340000000  0.4666900000000 1.0
C      1  0.4824870000000  0.5355420000000  0.5836830000000 1.0
C      1  0.5067900000000  0.4619790000000  0.5681900000000 1.0
C      1  0.4635410000000  0.4523230000000  0.5557480000000 1.0
C      1  0.5218060000000  0.4041590000000  0.5007310000000 1.0
C      1  0.4651450000000  0.5460270000000  0.5389950000000 1.0
C      1  0.4862760000000  0.4740750000000  0.4889680000000 1.0
C      1  0.4884120000000  0.5248990000000  0.4863870000000 1.0
C      1  0.5486640000000  0.4473140000000  0.5210560000000 1.0
C      1  0.5761720000000  0.5080730000000  0.5157870000000 1.0
C      1  0.5617820000000  0.5577390000000  0.5092670000000 1.0
C      1  0.5634420000000  0.4585340000000  0.4573330000000 1.0
C      1  0.5505300000000  0.4686640000000  0.5400590000000 1.0
C      1  0.5247660000000  0.4287340000000  0.5176950000000 1.0
C      1  0.5091440000000  0.4439180000000  0.4581940000000 1.0
C      1  0.5298960000000  0.4771720000000  0.5598080000000 1.0
C      1  0.4617820000000  0.4727520000000  0.5759490000000 1.0
C      1  0.4594710000000  0.5045180000000  0.4465530000000 1.0
C      1  0.5149310000000  0.4704360000000  0.4949660000000 1.0
C      1  0.4960030000000  0.4320840000000  0.5258840000000 1.0
C      1  0.4269320000000  0.4764790000000  0.4789800000000 1.0
C      1  0.5095420000000  0.5034450000000  0.4519300000000 1.0
C      1  0.4803920000000  0.5550420000000  0.5621400000000 1.0
C      1  0.4325100000000  0.4432950000000  0.5210670000000 1.0
C      1  0.4554300000000  0.4572710000000  0.5294100000000 1.0
C      1  0.5246180000000  0.4468720000000  0.4816170000000 1.0
C      1  0.4940640000000  0.5374900000000  0.4250150000000 1.0
C      1  0.4389780000000  0.5003260000000  0.5441050000000 1.0
C      1  0.4151570000000  0.4889580000000  0.5318170000000 1.0
C      1  0.4906930000000  0.4436250000000  0.5520030000000 1.0
C      1  0.5529550000000  0.5349340000000  0.5502220000000 1.0
C      1  0.4877960000000  0.4921790000000  0.4089890000000 1.0
C      1  0.5458530000000  0.5678370000000  0.4657630000000 1.0
C      1  0.4807910000000  0.5537680000000  0.4761470000000 1.0
C      1  0.5208510000000  0.5939040000000  0.5322320000000 1.0
C      1  0.4747840000000  0.4224300000000  0.5070780000000 1.0
C      1  0.4287690000000  0.5174900000000  0.4875450000000 1.0
C      1  0.4939270000000  0.5080860000000  0.5864460000000 1.0
C      1  0.5691630000000  0.5367590000000  0.5252230000000 1.0
C      1  0.5065070000000  0.5942790000000  0.5057100000000 1.0
C      1  0.4783450000000  0.5250610000000  0.5254420000000 1.0
C      1  0.4463820000000  0.4971070000000  0.5725270000000 1.0
C      1  0.4340960000000  0.5016530000000  0.4659850000000 1.0
C      1  0.5514340000000  0.4396440000000  0.4761580000000 1.0
C      1  0.4337590000000  0.5429860000000  0.4976990000000 1.0
C      1  0.4516140000000  0.5632690000000  0.4843370000000 1.0
C      1  0.5162340000000  0.5706760000000  0.4595940000000 1.0
C      1  0.5348980000000  0.5972890000000  0.5073780000000 1.0
C      1  0.5689270000000  0.4915510000000  0.5383610000000 1.0
C      1  0.5314060000000  0.5046330000000  0.5691060000000 1.0
C      1  0.4471820000000  0.4327430000000  0.4984180000000 1.0
C      1  0.5223590000000  0.5319740000000  0.5516450000000 1.0
C      1  0.5128000000000  0.5190140000000  0.5014510000000 1.0
C      1  0.4404040000000  0.4498660000000  0.4754750000000 1.0
C      1  0.5793750000000  0.5010190000000  0.4881610000000 1.0
C      1  0.5179170000000  0.4557130000000  0.4331890000000 1.0
C      1  0.4740820000000  0.5156140000000  0.4216260000000 1.0
C      1  0.5556030000000  0.4886900000000  0.4210240000000 1.0
C      1  0.4839060000000  0.4508420000000  0.4699210000000 1.0
C      1  0.5760210000000  0.4726530000000  0.4805820000000 1.0
C      1  0.4489970000000  0.4813310000000  0.4277710000000 1.0
C      1  0.4425360000000  0.5566150000000  0.5242870000000 1.0
END
