TITL C-884132-5695-152 17.5060487633527 125000 -4683.867956376 0 0 33 (C1) n - 1
REM
REM in /home/nfs/bkarasulu/CARBON/AIRSS/Generating-Clusters/ReaxFF-fromJPCA2015/Units_Real/with-SteepDescent/Only-C1/SD-CG/Try1-3A/FIRE-CG
REM
REM
REM
REM
REM
REM ./C.cell (11c1c37f851c82e70ff6c80c92926a4b)
REM
REM compiler GCC version 9.2.1 20190827 (Red Hat 9.2.1-1)
REM options -cpp -mtune=generic -march=x86-64 -g -O0 -fpre-include=/usr/include/finclude/math-vector-fortran.h
REM seed -1793764300 265532687 1334275190 -634131708 640600450 -473917076 -818681404 -1055668978 -2125605705 456549664 1036921511 -954764665 334432789 923510533 -1175938236 -1503029629 -1927883714 -860392077 864948612 -493196800 -1008760106 -943357592 -2076646953 2069839918 -2030935168 -964345261 -1268629350 -2106288555 -784619365 115009465 -1151976206 1215707761 -1750696341
REM
CELL 1.54180   50.00000   50.00000   50.00000   90.00000   90.00000   90.00000
LATT -1
SFAC C  
C      1  0.4989110000000  0.5616680000000  0.4606290000000 1.0
C      1  0.5304850000000  0.5349370000000  0.4699580000000 1.0
C      1  0.4587850000000  0.4559990000000  0.4664360000000 1.0
C      1  0.5359770000000  0.5031310000000  0.5485550000000 1.0
C      1  0.5462030000000  0.5099620000000  0.4751970000000 1.0
C      1  0.4786680000000  0.5445820000000  0.5256720000000 1.0
C      1  0.5145970000000  0.4895010000000  0.5580940000000 1.0
C      1  0.5499480000000  0.5181260000000  0.5032120000000 1.0
C      1  0.4750740000000  0.5575810000000  0.5547500000000 1.0
C      1  0.4566680000000  0.5289600000000  0.5153150000000 1.0
C      1  0.5041550000000  0.5420230000000  0.5131460000000 1.0
C      1  0.5015980000000  0.5124600000000  0.5680110000000 1.0
C      1  0.5462580000000  0.4719010000000  0.5243390000000 1.0
C      1  0.5234900000000  0.4324680000000  0.5003050000000 1.0
C      1  0.4836800000000  0.4605830000000  0.5257000000000 1.0
C      1  0.4887750000000  0.5825980000000  0.4679350000000 1.0
C      1  0.4750980000000  0.4408510000000  0.4828570000000 1.0
C      1  0.5079570000000  0.5372990000000  0.4517870000000 1.0
C      1  0.4701860000000  0.5125790000000  0.4707000000000 1.0
C      1  0.5060960000000  0.4643710000000  0.5391720000000 1.0
C      1  0.5204130000000  0.4630320000000  0.4721290000000 1.0
C      1  0.4732990000000  0.4936830000000  0.4312670000000 1.0
C      1  0.5328660000000  0.4849130000000  0.4721000000000 1.0
C      1  0.4636690000000  0.4726180000000  0.4474560000000 1.0
C      1  0.4853620000000  0.5165150000000  0.4510410000000 1.0
C      1  0.4531710000000  0.4797330000000  0.4995380000000 1.0
C      1  0.5049090000000  0.4399560000000  0.4781840000000 1.0
C      1  0.5296060000000  0.4499600000000  0.5247760000000 1.0
C      1  0.4865450000000  0.5375310000000  0.5731360000000 1.0
C      1  0.4617610000000  0.4534760000000  0.5075570000000 1.0
C      1  0.5291900000000  0.5393730000000  0.5004430000000 1.0
C      1  0.4523650000000  0.5079570000000  0.4937850000000 1.0
C      1  0.5542360000000  0.4996730000000  0.5268190000000 1.0
END
