TITL C-884129-4740-413 15.8204111115195 125000 -10950.580363344 0 0 75 (C1) n - 1
REM
REM in /home/nfs/bkarasulu/CARBON/AIRSS/Generating-Clusters/ReaxFF-fromJPCA2015/Units_Real/with-SteepDescent/Only-C1/SD-CG/Try1-3A/FIRE-CG
REM
REM
REM
REM
REM
REM ./C.cell (11c1c37f851c82e70ff6c80c92926a4b)
REM
REM compiler GCC version 9.2.1 20190827 (Red Hat 9.2.1-1)
REM options -cpp -mtune=generic -march=x86-64 -g -O0 -fpre-include=/usr/include/finclude/math-vector-fortran.h
REM seed -1186489698 1613872096 -499752060 1418444032 1878722672 528545648 278423583 -282140024 1633962281 -293808736 -1662446974 -1763941388 -993751683 -968500841 -421204538 -1086438441 469255329 1715304005 149208396 1148640010 1781205371 -193830145 714963360 -1680398057 -1763567552 1349873691 2120571464 844491030 -1279118372 327895819 -890002654 1781382182 -1904164194
REM
CELL 1.54180   50.00000   50.00000   50.00000   90.00000   90.00000   90.00000
LATT -1
SFAC C  
C      1  0.5138850000000  0.5669120000000  0.4463470000000 1.0
C      1  0.4484330000000  0.4410940000000  0.5230650000000 1.0
C      1  0.5454540000000  0.4711990000000  0.5049110000000 1.0
C      1  0.5617360000000  0.5154440000000  0.4771480000000 1.0
C      1  0.4705210000000  0.4354250000000  0.4787920000000 1.0
C      1  0.4878820000000  0.5095660000000  0.5062570000000 1.0
C      1  0.5250850000000  0.4174820000000  0.5213310000000 1.0
C      1  0.4829110000000  0.5470230000000  0.5626220000000 1.0
C      1  0.5161530000000  0.4643690000000  0.4642430000000 1.0
C      1  0.4949810000000  0.4844190000000  0.4634040000000 1.0
C      1  0.4492450000000  0.4476380000000  0.4933690000000 1.0
C      1  0.5442920000000  0.4457970000000  0.5582020000000 1.0
C      1  0.4741910000000  0.5823250000000  0.4849640000000 1.0
C      1  0.5335320000000  0.5347650000000  0.5669630000000 1.0
C      1  0.5055360000000  0.4149750000000  0.5084870000000 1.0
C      1  0.4971910000000  0.4346480000000  0.4936360000000 1.0
C      1  0.4644390000000  0.5014410000000  0.5627870000000 1.0
C      1  0.4288890000000  0.5412950000000  0.4897220000000 1.0
C      1  0.5192600000000  0.4514580000000  0.5682370000000 1.0
C      1  0.5492030000000  0.5631020000000  0.4950890000000 1.0
C      1  0.4228490000000  0.4920030000000  0.4934910000000 1.0
C      1  0.4836100000000  0.5306450000000  0.4574070000000 1.0
C      1  0.5854080000000  0.5339650000000  0.5149060000000 1.0
C      1  0.4863810000000  0.5575960000000  0.4453410000000 1.0
C      1  0.4847020000000  0.4465090000000  0.4302960000000 1.0
C      1  0.4872900000000  0.5879170000000  0.5324420000000 1.0
C      1  0.5475970000000  0.4290940000000  0.5333640000000 1.0
C      1  0.4692730000000  0.3972360000000  0.5448290000000 1.0
C      1  0.5566160000000  0.5768930000000  0.5457900000000 1.0
C      1  0.5370980000000  0.5186520000000  0.4610420000000 1.0
C      1  0.4690390000000  0.4716720000000  0.5628930000000 1.0
C      1  0.5647330000000  0.4710440000000  0.4583300000000 1.0
C      1  0.5629600000000  0.4864450000000  0.4832470000000 1.0
C      1  0.4523590000000  0.5297980000000  0.4996680000000 1.0
C      1  0.5155260000000  0.5142010000000  0.5619420000000 1.0
C      1  0.4584380000000  0.4574740000000  0.5432320000000 1.0
C      1  0.4944070000000  0.4578950000000  0.5773740000000 1.0
C      1  0.4443430000000  0.4498880000000  0.4379070000000 1.0
C      1  0.5572000000000  0.4732790000000  0.5546510000000 1.0
C      1  0.4361350000000  0.4753830000000  0.4508390000000 1.0
C      1  0.5147120000000  0.5212220000000  0.5099230000000 1.0
C      1  0.4804840000000  0.5043960000000  0.4434510000000 1.0
C      1  0.4482140000000  0.5012570000000  0.4426760000000 1.0
C      1  0.5132940000000  0.5873920000000  0.5165090000000 1.0
C      1  0.4447450000000  0.5082610000000  0.5449350000000 1.0
C      1  0.5664700000000  0.5387430000000  0.4953100000000 1.0
C      1  0.5528290000000  0.4298830000000  0.4599640000000 1.0
C      1  0.5238580000000  0.5631370000000  0.4764680000000 1.0
C      1  0.5269440000000  0.5055860000000  0.4361830000000 1.0
C      1  0.4323600000000  0.4694850000000  0.4812700000000 1.0
C      1  0.5033920000000  0.5816570000000  0.4907230000000 1.0
C      1  0.5460480000000  0.5551680000000  0.5609080000000 1.0
C      1  0.4379720000000  0.5511980000000  0.4626300000000 1.0
C      1  0.4594640000000  0.4167390000000  0.5341290000000 1.0
C      1  0.4393290000000  0.5254510000000  0.4520910000000 1.0
C      1  0.5034380000000  0.4948290000000  0.4228360000000 1.0
C      1  0.5404820000000  0.4535400000000  0.4501200000000 1.0
C      1  0.4833630000000  0.5674520000000  0.5519970000000 1.0
C      1  0.4869500000000  0.5199090000000  0.5685010000000 1.0
C      1  0.5459640000000  0.4871700000000  0.5311020000000 1.0
C      1  0.4646670000000  0.5893220000000  0.5125300000000 1.0
C      1  0.4265260000000  0.5145700000000  0.5284210000000 1.0
C      1  0.5409330000000  0.5775440000000  0.5182370000000 1.0
C      1  0.6020540000000  0.5294820000000  0.5320020000000 1.0
C      1  0.5226470000000  0.5319160000000  0.4836040000000 1.0
C      1  0.4917670000000  0.4836730000000  0.4922290000000 1.0
C      1  0.5568820000000  0.4431540000000  0.5091310000000 1.0
C      1  0.5275280000000  0.5103350000000  0.5346250000000 1.0
C      1  0.4968020000000  0.4671130000000  0.4216340000000 1.0
C      1  0.4629710000000  0.5676790000000  0.4617640000000 1.0
C      1  0.4683200000000  0.4337840000000  0.4490940000000 1.0
C      1  0.4770080000000  0.5294370000000  0.4868580000000 1.0
C      1  0.5136630000000  0.4624920000000  0.4941980000000 1.0
C      1  0.4132860000000  0.5169270000000  0.5025150000000 1.0
C      1  0.5558480000000  0.4321280000000  0.4828590000000 1.0
END
