TITL C-883735-9890-81 19.5334479379531 125000 -27611.1972540147 0 0 186 (C1) n - 1
REM
REM in /home/nfs/bkarasulu/CARBON/AIRSS/Generating-Clusters/ReaxFF-fromJPCA2015/Units_Real/with-SteepDescent/Only-C1/SD-CG/Try1-3A/FIRE-CG
REM
REM
REM
REM
REM
REM ./C.cell (11c1c37f851c82e70ff6c80c92926a4b)
REM
REM compiler GCC version 9.2.1 20190827 (Red Hat 9.2.1-1)
REM options -cpp -mtune=generic -march=x86-64 -g -O0 -fpre-include=/usr/include/finclude/math-vector-fortran.h
REM seed -2119526316 -2006667190 -1720661139 -33321437 -1426576531 399730957 1692362297 -935587415 1421020451 -201260899 -155242931 -127298792 2052075168 97002321 -22707886 614922634 36693306 712791394 -1692913332 1858533205 1881803724 1820329968 448213474 -1949004904 2124475917 1695698346 1428786532 -995724764 282135949 2016056168 1763739502 -1206378802 1042057259
REM
CELL 1.54180   50.00000   50.00000   50.00000   90.00000   90.00000   90.00000
LATT -1
SFAC C  
C      1  0.4251470000000  0.5271870000000  0.4423720000000 1.0
C      1  0.5986640000000  0.4663520000000  0.5564090000000 1.0
C      1  0.5668870000000  0.4282660000000  0.5536570000000 1.0
C      1  0.5987650000000  0.5137150000000  0.5555560000000 1.0
C      1  0.4335220000000  0.4298530000000  0.4846720000000 1.0
C      1  0.4560820000000  0.5069990000000  0.4076140000000 1.0
C      1  0.5175920000000  0.4034040000000  0.5088220000000 1.0
C      1  0.5518280000000  0.5406570000000  0.5726310000000 1.0
C      1  0.4813550000000  0.4411100000000  0.5505930000000 1.0
C      1  0.5044690000000  0.5675930000000  0.4627480000000 1.0
C      1  0.5462770000000  0.4077450000000  0.4651040000000 1.0
C      1  0.5225830000000  0.5859950000000  0.4527520000000 1.0
C      1  0.4789040000000  0.4315640000000  0.5979180000000 1.0
C      1  0.5187470000000  0.5028550000000  0.5491740000000 1.0
C      1  0.5741150000000  0.5201610000000  0.4192710000000 1.0
C      1  0.6181650000000  0.4950090000000  0.5174140000000 1.0
C      1  0.4087720000000  0.5288640000000  0.5480610000000 1.0
C      1  0.5860620000000  0.5612750000000  0.4851110000000 1.0
C      1  0.4849700000000  0.4848750000000  0.5752170000000 1.0
C      1  0.4952420000000  0.4138790000000  0.5494730000000 1.0
C      1  0.4535200000000  0.5924650000000  0.5312150000000 1.0
C      1  0.4813070000000  0.4613310000000  0.4712150000000 1.0
C      1  0.4873170000000  0.5388790000000  0.6116590000000 1.0
C      1  0.5801990000000  0.5425010000000  0.4633720000000 1.0
C      1  0.4566460000000  0.4084070000000  0.5428520000000 1.0
C      1  0.4769440000000  0.4393750000000  0.4199520000000 1.0
C      1  0.4660300000000  0.5348810000000  0.5689720000000 1.0
C      1  0.5748290000000  0.5453880000000  0.4342910000000 1.0
C      1  0.6112220000000  0.4959640000000  0.4762580000000 1.0
C      1  0.4387040000000  0.4632360000000  0.5974840000000 1.0
C      1  0.4686730000000  0.5402600000000  0.4728070000000 1.0
C      1  0.6069330000000  0.5156640000000  0.4976760000000 1.0
C      1  0.5074910000000  0.5413670000000  0.5852940000000 1.0
C      1  0.4540290000000  0.5404120000000  0.5273110000000 1.0
C      1  0.4777530000000  0.4793440000000  0.5163950000000 1.0
C      1  0.4028970000000  0.4513400000000  0.5267310000000 1.0
C      1  0.5754210000000  0.5169030000000  0.5375770000000 1.0
C      1  0.4285800000000  0.4151360000000  0.5093570000000 1.0
C      1  0.4033020000000  0.4773870000000  0.5400360000000 1.0
C      1  0.4858800000000  0.5980800000000  0.5370410000000 1.0
C      1  0.4804050000000  0.4482510000000  0.4460240000000 1.0
C      1  0.5915290000000  0.4377320000000  0.4752760000000 1.0
C      1  0.5545750000000  0.4464300000000  0.3999570000000 1.0
C      1  0.5815310000000  0.6081140000000  0.4678710000000 1.0
C      1  0.5776760000000  0.5441710000000  0.5319890000000 1.0
C      1  0.4969750000000  0.6001760000000  0.5094480000000 1.0
C      1  0.5010260000000  0.5821800000000  0.5551910000000 1.0
C      1  0.4086620000000  0.5568680000000  0.5018090000000 1.0
C      1  0.4681420000000  0.5061710000000  0.5630590000000 1.0
C      1  0.5804160000000  0.4923340000000  0.4218850000000 1.0
C      1  0.4274380000000  0.5107990000000  0.4984660000000 1.0
C      1  0.5208680000000  0.4744840000000  0.5390530000000 1.0
C      1  0.3951550000000  0.4663460000000  0.4996330000000 1.0
C      1  0.5299960000000  0.5099310000000  0.6002980000000 1.0
C      1  0.5037220000000  0.5657850000000  0.4171950000000 1.0
C      1  0.4489370000000  0.5055670000000  0.4540860000000 1.0
C      1  0.5627180000000  0.4236030000000  0.4168840000000 1.0
C      1  0.4406560000000  0.4598770000000  0.4940360000000 1.0
C      1  0.4163190000000  0.4984320000000  0.5889520000000 1.0
C      1  0.4692250000000  0.4066860000000  0.4617650000000 1.0
C      1  0.4438010000000  0.4243780000000  0.4583990000000 1.0
C      1  0.5907790000000  0.4401100000000  0.5454550000000 1.0
C      1  0.5513350000000  0.5566080000000  0.4212170000000 1.0
C      1  0.5972740000000  0.4826550000000  0.4494430000000 1.0
C      1  0.4534210000000  0.4658760000000  0.5224480000000 1.0
C      1  0.4972660000000  0.4649010000000  0.5567240000000 1.0
C      1  0.5416650000000  0.4155420000000  0.4367740000000 1.0
C      1  0.5156180000000  0.4635650000000  0.4286880000000 1.0
C      1  0.5665980000000  0.4216730000000  0.4810730000000 1.0
C      1  0.4611010000000  0.5898130000000  0.4371120000000 1.0
C      1  0.4509610000000  0.5152730000000  0.6119870000000 1.0
C      1  0.4350930000000  0.4908170000000  0.6107850000000 1.0
C      1  0.4642120000000  0.5545380000000  0.6144400000000 1.0
C      1  0.5509770000000  0.6062170000000  0.5337650000000 1.0
C      1  0.5316350000000  0.6085400000000  0.4689160000000 1.0
C      1  0.4389640000000  0.4451740000000  0.4373910000000 1.0
C      1  0.4511340000000  0.4340400000000  0.5543110000000 1.0
C      1  0.5720560000000  0.4908130000000  0.4627590000000 1.0
C      1  0.4504840000000  0.5571380000000  0.4120620000000 1.0
C      1  0.5042950000000  0.4698200000000  0.4013870000000 1.0
C      1  0.5108550000000  0.5170170000000  0.5045790000000 1.0
C      1  0.6130040000000  0.4893930000000  0.5456100000000 1.0
C      1  0.4437210000000  0.5360740000000  0.5881810000000 1.0
C      1  0.3910270000000  0.5045330000000  0.5387590000000 1.0
C      1  0.4051080000000  0.5301790000000  0.4904450000000 1.0
C      1  0.5282690000000  0.4436090000000  0.5946950000000 1.0
C      1  0.5220100000000  0.5239240000000  0.4552250000000 1.0
C      1  0.4515580000000  0.4798330000000  0.4063600000000 1.0
C      1  0.5814160000000  0.4417410000000  0.4326990000000 1.0
C      1  0.5153910000000  0.5143670000000  0.5754610000000 1.0
C      1  0.6011010000000  0.4520070000000  0.4514070000000 1.0
C      1  0.5789700000000  0.5902770000000  0.4897390000000 1.0
C      1  0.4012840000000  0.5091980000000  0.4497250000000 1.0
C      1  0.5086590000000  0.4767590000000  0.4540380000000 1.0
C      1  0.5598260000000  0.4855550000000  0.5846470000000 1.0
C      1  0.5713080000000  0.5163720000000  0.4743080000000 1.0
C      1  0.5352820000000  0.5563430000000  0.5903940000000 1.0
C      1  0.5534870000000  0.4684850000000  0.4682430000000 1.0
C      1  0.5908680000000  0.5406970000000  0.5045020000000 1.0
C      1  0.4613390000000  0.5998800000000  0.4649990000000 1.0
C      1  0.3758310000000  0.5073410000000  0.5159750000000 1.0
C      1  0.3693210000000  0.5119440000000  0.4922820000000 1.0
C      1  0.5189970000000  0.4356010000000  0.4377420000000 1.0
C      1  0.4188510000000  0.5248500000000  0.5759990000000 1.0
C      1  0.4923440000000  0.4877840000000  0.6034630000000 1.0
C      1  0.5533990000000  0.5998630000000  0.5064100000000 1.0
C      1  0.5178410000000  0.4571270000000  0.5116420000000 1.0
C      1  0.5218590000000  0.3996250000000  0.4799150000000 1.0
C      1  0.4778010000000  0.5262530000000  0.5255120000000 1.0
C      1  0.5589370000000  0.4298720000000  0.5065210000000 1.0
C      1  0.4790840000000  0.5105990000000  0.6168450000000 1.0
C      1  0.5280640000000  0.5168920000000  0.4834150000000 1.0
C      1  0.4983170000000  0.4146970000000  0.4704330000000 1.0
C      1  0.4905260000000  0.4574330000000  0.5029800000000 1.0
C      1  0.5286510000000  0.4366310000000  0.3966870000000 1.0
C      1  0.3845180000000  0.5214670000000  0.4704210000000 1.0
C      1  0.5242130000000  0.4643850000000  0.4777960000000 1.0
C      1  0.4895470000000  0.5531190000000  0.5624130000000 1.0
C      1  0.4242550000000  0.4328910000000  0.5323370000000 1.0
C      1  0.5460970000000  0.5477870000000  0.5438650000000 1.0
C      1  0.4547940000000  0.4664990000000  0.4704420000000 1.0
C      1  0.4338500000000  0.5204260000000  0.5298210000000 1.0
C      1  0.4224020000000  0.4724230000000  0.5760210000000 1.0
C      1  0.4551170000000  0.4405260000000  0.5868650000000 1.0
C      1  0.4764100000000  0.5374140000000  0.4461430000000 1.0
C      1  0.4677960000000  0.3908060000000  0.4835720000000 1.0
C      1  0.5596230000000  0.6138040000000  0.4629230000000 1.0
C      1  0.5413690000000  0.5186330000000  0.3809860000000 1.0
C      1  0.5013430000000  0.5489930000000  0.4420850000000 1.0
C      1  0.5409010000000  0.4672560000000  0.6009580000000 1.0
C      1  0.4611780000000  0.5661840000000  0.5191390000000 1.0
C      1  0.5090750000000  0.4245590000000  0.5934950000000 1.0
C      1  0.5056600000000  0.5029230000000  0.4437360000000 1.0
C      1  0.4494540000000  0.6079660000000  0.5042810000000 1.0
C      1  0.5139440000000  0.5128900000000  0.3708060000000 1.0
C      1  0.4341140000000  0.4755020000000  0.5447510000000 1.0
C      1  0.4980170000000  0.5445160000000  0.5334380000000 1.0
C      1  0.5296820000000  0.5758190000000  0.4257030000000 1.0
C      1  0.5703490000000  0.4746480000000  0.5595520000000 1.0
C      1  0.5143040000000  0.4387620000000  0.4658340000000 1.0
C      1  0.4397750000000  0.5303130000000  0.4152500000000 1.0
C      1  0.5557090000000  0.4736870000000  0.5336230000000 1.0
C      1  0.5330620000000  0.4274680000000  0.5187970000000 1.0
C      1  0.4116070000000  0.5580630000000  0.5316470000000 1.0
C      1  0.4459060000000  0.3964030000000  0.5220360000000 1.0
C      1  0.5604340000000  0.4997670000000  0.5213630000000 1.0
C      1  0.6021050000000  0.5427270000000  0.5538350000000 1.0
C      1  0.5596660000000  0.4513310000000  0.4475190000000 1.0
C      1  0.4364710000000  0.5956210000000  0.4808700000000 1.0
C      1  0.5295900000000  0.5741500000000  0.5477300000000 1.0
C      1  0.5480240000000  0.4898300000000  0.3837570000000 1.0
C      1  0.5411570000000  0.4217490000000  0.5497470000000 1.0
C      1  0.5301880000000  0.5114260000000  0.4315650000000 1.0
C      1  0.3900890000000  0.4629150000000  0.4701630000000 1.0
C      1  0.4059560000000  0.4808280000000  0.4517480000000 1.0
C      1  0.4504000000000  0.4518670000000  0.4113260000000 1.0
C      1  0.5379610000000  0.5998000000000  0.5543570000000 1.0
C      1  0.5440920000000  0.5280480000000  0.4114200000000 1.0
C      1  0.4189120000000  0.4825630000000  0.4958630000000 1.0
C      1  0.4560890000000  0.5149060000000  0.4815800000000 1.0
C      1  0.5560160000000  0.5135570000000  0.5882260000000 1.0
C      1  0.5759290000000  0.4494360000000  0.5188400000000 1.0
C      1  0.5190620000000  0.4138050000000  0.5676480000000 1.0
C      1  0.5192230000000  0.4836040000000  0.3794820000000 1.0
C      1  0.4361770000000  0.4733530000000  0.4496180000000 1.0
C      1  0.5524730000000  0.5121150000000  0.4956980000000 1.0
C      1  0.5269340000000  0.6047520000000  0.4973500000000 1.0
C      1  0.4720150000000  0.5106930000000  0.4354230000000 1.0
C      1  0.4824560000000  0.5073220000000  0.5034770000000 1.0
C      1  0.5225940000000  0.5266930000000  0.5307670000000 1.0
C      1  0.5976760000000  0.4526810000000  0.4983220000000 1.0
C      1  0.4475440000000  0.4997590000000  0.5436680000000 1.0
C      1  0.5004790000000  0.4410670000000  0.3973990000000 1.0
C      1  0.4241690000000  0.5566060000000  0.4527890000000 1.0
C      1  0.4891840000000  0.5666480000000  0.5104260000000 1.0
C      1  0.4266880000000  0.5787640000000  0.5423190000000 1.0
C      1  0.5648420000000  0.4764050000000  0.4034350000000 1.0
C      1  0.4759950000000  0.5741870000000  0.4169450000000 1.0
C      1  0.4933920000000  0.3992390000000  0.5236060000000 1.0
C      1  0.5201700000000  0.4851760000000  0.6122100000000 1.0
C      1  0.4215770000000  0.5696110000000  0.4784960000000 1.0
C      1  0.4364850000000  0.5733390000000  0.4322700000000 1.0
C      1  0.4744680000000  0.6103120000000  0.4899810000000 1.0
C      1  0.4882300000000  0.5582530000000  0.4831090000000 1.0
C      1  0.6174190000000  0.4748100000000  0.4957810000000 1.0
C      1  0.4688200000000  0.3842950000000  0.5112160000000 1.0
END
