TITL C-883734-4173-325 31.101930076023 125000 -16960.8208618312 0 0 113 (C1) n - 1
REM
REM in /home/nfs/bkarasulu/CARBON/AIRSS/Generating-Clusters/ReaxFF-fromJPCA2015/Units_Real/with-SteepDescent/Only-C1/SD-CG/Try1-3A/FIRE-CG
REM
REM
REM
REM
REM
REM ./C.cell (11c1c37f851c82e70ff6c80c92926a4b)
REM
REM compiler GCC version 9.2.1 20190827 (Red Hat 9.2.1-1)
REM options -cpp -mtune=generic -march=x86-64 -g -O0 -fpre-include=/usr/include/finclude/math-vector-fortran.h
REM seed -847221890 -946774925 -615274442 573322692 1069368162 -1434463143 1323147435 -1415802028 -1098815295 -33628626 441259223 609351793 -535161544 -1855122908 -1419435460 268315807 1493979776 1635979197 197475013 -1218232819 603534351 -2085165603 -352393601 68677861 2121878848 -413634284 486362146 339852759 2038412683 1557522799 -785954804 530628934 -910493800
REM
CELL 1.54180   50.00000   50.00000   50.00000   90.00000   90.00000   90.00000
LATT -1
SFAC C  
C      1  0.5409380000000  0.4559180000000  0.4871730000000 1.0
C      1  0.4915320000000  0.4816390000000  0.5908520000000 1.0
C      1  0.5649790000000  0.5540530000000  0.5260420000000 1.0
C      1  0.5249380000000  0.4604750000000  0.5091860000000 1.0
C      1  0.5285780000000  0.5794510000000  0.5005580000000 1.0
C      1  0.5663630000000  0.5011040000000  0.5430740000000 1.0
C      1  0.5077250000000  0.5052020000000  0.5860360000000 1.0
C      1  0.4980710000000  0.4123240000000  0.4593090000000 1.0
C      1  0.5840510000000  0.5494000000000  0.5042380000000 1.0
C      1  0.5591500000000  0.4330040000000  0.4839900000000 1.0
C      1  0.4333250000000  0.5061930000000  0.4876930000000 1.0
C      1  0.5685100000000  0.4805980000000  0.4559210000000 1.0
C      1  0.4900750000000  0.4806820000000  0.4144490000000 1.0
C      1  0.4497110000000  0.4674650000000  0.5688930000000 1.0
C      1  0.5203770000000  0.3905760000000  0.5256040000000 1.0
C      1  0.5270570000000  0.4468210000000  0.4273240000000 1.0
C      1  0.3984950000000  0.5172850000000  0.5244870000000 1.0
C      1  0.4602430000000  0.5649620000000  0.5693450000000 1.0
C      1  0.5266850000000  0.5031940000000  0.4736190000000 1.0
C      1  0.4354900000000  0.4596970000000  0.4525750000000 1.0
C      1  0.4795080000000  0.4475170000000  0.5043870000000 1.0
C      1  0.4807310000000  0.4692620000000  0.4844220000000 1.0
C      1  0.4253120000000  0.4574920000000  0.4807870000000 1.0
C      1  0.5092510000000  0.4651820000000  0.5748120000000 1.0
C      1  0.4836030000000  0.4989620000000  0.5403960000000 1.0
C      1  0.4934940000000  0.3887690000000  0.5096470000000 1.0
C      1  0.4612750000000  0.5113170000000  0.4927570000000 1.0
C      1  0.4105680000000  0.5262010000000  0.5492200000000 1.0
C      1  0.5106520000000  0.5392320000000  0.5491180000000 1.0
C      1  0.4572960000000  0.5042950000000  0.5379490000000 1.0
C      1  0.5427640000000  0.5411640000000  0.4257750000000 1.0
C      1  0.4224990000000  0.4806450000000  0.4955120000000 1.0
C      1  0.5292400000000  0.5574860000000  0.5630980000000 1.0
C      1  0.4340690000000  0.5750540000000  0.4976160000000 1.0
C      1  0.5371750000000  0.4954760000000  0.4164300000000 1.0
C      1  0.5278260000000  0.5832200000000  0.5466620000000 1.0
C      1  0.5896740000000  0.4789930000000  0.4766820000000 1.0
C      1  0.5714410000000  0.4751970000000  0.5302300000000 1.0
C      1  0.5259390000000  0.5221060000000  0.4109570000000 1.0
C      1  0.4988090000000  0.5564250000000  0.4297820000000 1.0
C      1  0.5550060000000  0.4543720000000  0.5442570000000 1.0
C      1  0.4037330000000  0.5336670000000  0.4987420000000 1.0
C      1  0.4946010000000  0.5286470000000  0.5721350000000 1.0
C      1  0.5164350000000  0.4206270000000  0.4376920000000 1.0
C      1  0.4574070000000  0.4495740000000  0.5228560000000 1.0
C      1  0.4725520000000  0.4654080000000  0.4329530000000 1.0
C      1  0.4147590000000  0.5582390000000  0.5104560000000 1.0
C      1  0.5007310000000  0.5874410000000  0.4934310000000 1.0
C      1  0.6033790000000  0.4981280000000  0.4941790000000 1.0
C      1  0.4470090000000  0.4798990000000  0.4340380000000 1.0
C      1  0.4897380000000  0.4729200000000  0.4568070000000 1.0
C      1  0.4347470000000  0.4876260000000  0.5543250000000 1.0
C      1  0.5253540000000  0.5573510000000  0.4425060000000 1.0
C      1  0.4861410000000  0.5231900000000  0.4543800000000 1.0
C      1  0.4836010000000  0.4950500000000  0.4976310000000 1.0
C      1  0.5434980000000  0.4785380000000  0.4703580000000 1.0
C      1  0.5088720000000  0.5360160000000  0.5167860000000 1.0
C      1  0.4989290000000  0.5901960000000  0.5427700000000 1.0
C      1  0.4939030000000  0.5753390000000  0.4674940000000 1.0
C      1  0.5083050000000  0.3978410000000  0.4854920000000 1.0
C      1  0.4562450000000  0.5269890000000  0.4519620000000 1.0
C      1  0.4569760000000  0.5324840000000  0.5317020000000 1.0
C      1  0.4769400000000  0.5714090000000  0.4437150000000 1.0
C      1  0.5333590000000  0.5516210000000  0.4706990000000 1.0
C      1  0.5051480000000  0.4421280000000  0.5163860000000 1.0
C      1  0.5105220000000  0.5068120000000  0.5023200000000 1.0
C      1  0.5984560000000  0.5265520000000  0.4947580000000 1.0
C      1  0.5639970000000  0.4238960000000  0.4567350000000 1.0
C      1  0.5270450000000  0.4126110000000  0.5438660000000 1.0
C      1  0.4740140000000  0.4245060000000  0.4582680000000 1.0
C      1  0.4691780000000  0.5393480000000  0.4893320000000 1.0
C      1  0.5236230000000  0.4866490000000  0.5176860000000 1.0
C      1  0.4653290000000  0.4505120000000  0.5511570000000 1.0
C      1  0.5023920000000  0.4995640000000  0.4560360000000 1.0
C      1  0.4982290000000  0.5308750000000  0.4137990000000 1.0
C      1  0.5888530000000  0.4752760000000  0.5062550000000 1.0
C      1  0.4676980000000  0.5365120000000  0.5781680000000 1.0
C      1  0.5391830000000  0.4660360000000  0.5665040000000 1.0
C      1  0.5506040000000  0.4270910000000  0.5344390000000 1.0
C      1  0.4816570000000  0.5796690000000  0.5604450000000 1.0
C      1  0.5619480000000  0.4978250000000  0.4328010000000 1.0
C      1  0.5609610000000  0.5252020000000  0.4419810000000 1.0
C      1  0.5054370000000  0.4300430000000  0.5415470000000 1.0
C      1  0.4526370000000  0.5828750000000  0.5194490000000 1.0
C      1  0.5548200000000  0.4162190000000  0.5072910000000 1.0
C      1  0.5109670000000  0.4934200000000  0.5429430000000 1.0
C      1  0.4926690000000  0.4457720000000  0.5605300000000 1.0
C      1  0.5217380000000  0.5535230000000  0.4969690000000 1.0
C      1  0.4518400000000  0.4370720000000  0.4566330000000 1.0
C      1  0.5346540000000  0.3957340000000  0.5008630000000 1.0
C      1  0.5440930000000  0.4103400000000  0.4397730000000 1.0
C      1  0.5267260000000  0.5036470000000  0.5657170000000 1.0
C      1  0.4625300000000  0.4868050000000  0.5870620000000 1.0
C      1  0.4792700000000  0.5083840000000  0.4140480000000 1.0
C      1  0.5453080000000  0.5768390000000  0.5248710000000 1.0
C      1  0.5496450000000  0.5270060000000  0.4696750000000 1.0
C      1  0.4500220000000  0.5137450000000  0.5842630000000 1.0
C      1  0.4519260000000  0.5566900000000  0.4499310000000 1.0
C      1  0.5508210000000  0.4926600000000  0.5667470000000 1.0
C      1  0.4241930000000  0.5095950000000  0.5696230000000 1.0
C      1  0.4538050000000  0.5077940000000  0.4290100000000 1.0
C      1  0.4333790000000  0.4584090000000  0.5088260000000 1.0
C      1  0.5185760000000  0.4730570000000  0.4166930000000 1.0
C      1  0.4787920000000  0.5465590000000  0.5170700000000 1.0
C      1  0.4826100000000  0.5821090000000  0.5169220000000 1.0
C      1  0.5545560000000  0.4369230000000  0.4317380000000 1.0
C      1  0.4438760000000  0.5735220000000  0.5457340000000 1.0
C      1  0.4220270000000  0.5307720000000  0.4759580000000 1.0
C      1  0.5600460000000  0.5254220000000  0.5279000000000 1.0
C      1  0.5701720000000  0.5252310000000  0.4972060000000 1.0
C      1  0.4334180000000  0.5584420000000  0.4722730000000 1.0
C      1  0.4298530000000  0.5479790000000  0.5361730000000 1.0
C      1  0.4911190000000  0.5457430000000  0.4716540000000 1.0
END
