TITL C-883741-3679-79 88.7314455569799 125000 -26226.0814034925 0 0 177 (C1) n - 1
REM
REM in /home/nfs/bkarasulu/CARBON/AIRSS/Generating-Clusters/ReaxFF-fromJPCA2015/Units_Real/with-SteepDescent/Only-C1/SD-CG/Try1-3A/FIRE-CG
REM
REM
REM
REM
REM
REM ./C.cell (11c1c37f851c82e70ff6c80c92926a4b)
REM
REM compiler GCC version 9.2.1 20190827 (Red Hat 9.2.1-1)
REM options -cpp -mtune=generic -march=x86-64 -g -O0 -fpre-include=/usr/include/finclude/math-vector-fortran.h
REM seed -622610065 1120679612 1946647354 628307738 1085436217 503678293 -1073842642 -690166439 1876635051 -610464556 1018621597 248219229 161792234 966372818 -1637600448 1856819591 -245328610 360283632 -404679961 -745764516 -508688426 13864351 -287357518 576500112 -207064994 1423226121 -338573580 -694681257 -854279228 966089609 -464742978 7804672 832351001
REM
CELL 1.54180   50.00000   50.00000   50.00000   90.00000   90.00000   90.00000
LATT -1
SFAC C  
C      1  0.5760030000000  0.5403860000000  0.4276390000000 1.0
C      1  0.4663530000000  0.5028560000000  0.4055360000000 1.0
C      1  0.5559050000000  0.5561760000000  0.4140910000000 1.0
C      1  0.4784310000000  0.4876040000000  0.4687790000000 1.0
C      1  0.6069960000000  0.5415810000000  0.4837280000000 1.0
C      1  0.4707450000000  0.5652950000000  0.4889880000000 1.0
C      1  0.4699230000000  0.4754970000000  0.5250410000000 1.0
C      1  0.5159960000000  0.4608870000000  0.5327970000000 1.0
C      1  0.4535450000000  0.5496250000000  0.3946000000000 1.0
C      1  0.5389990000000  0.4815780000000  0.4957600000000 1.0
C      1  0.4196290000000  0.5052370000000  0.5560480000000 1.0
C      1  0.4991590000000  0.4803000000000  0.4856270000000 1.0
C      1  0.4762220000000  0.5587400000000  0.5537150000000 1.0
C      1  0.5735510000000  0.5081220000000  0.4747830000000 1.0
C      1  0.4143220000000  0.5431900000000  0.5092750000000 1.0
C      1  0.4477170000000  0.4528390000000  0.4878550000000 1.0
C      1  0.4759620000000  0.4462290000000  0.5933300000000 1.0
C      1  0.5375890000000  0.5398740000000  0.4014290000000 1.0
C      1  0.5350750000000  0.5218010000000  0.5033970000000 1.0
C      1  0.5090610000000  0.5221130000000  0.4909860000000 1.0
C      1  0.5078220000000  0.3922320000000  0.4715950000000 1.0
C      1  0.5361520000000  0.5482200000000  0.5176950000000 1.0
C      1  0.5082170000000  0.5136760000000  0.4405340000000 1.0
C      1  0.4934520000000  0.5616370000000  0.5075050000000 1.0
C      1  0.4800370000000  0.6073720000000  0.4735160000000 1.0
C      1  0.4298590000000  0.5489460000000  0.4322560000000 1.0
C      1  0.3933620000000  0.4833840000000  0.5194720000000 1.0
C      1  0.4838630000000  0.4059500000000  0.5696630000000 1.0
C      1  0.4741370000000  0.5406970000000  0.5929460000000 1.0
C      1  0.4794020000000  0.4072280000000  0.4345910000000 1.0
C      1  0.4556060000000  0.4804260000000  0.4217950000000 1.0
C      1  0.5065620000000  0.4663970000000  0.4381440000000 1.0
C      1  0.5360800000000  0.4505750000000  0.4937440000000 1.0
C      1  0.5029480000000  0.4782170000000  0.3807720000000 1.0
C      1  0.5268270000000  0.4700160000000  0.3941280000000 1.0
C      1  0.4881930000000  0.3848280000000  0.5155510000000 1.0
C      1  0.5301050000000  0.6084560000000  0.4643750000000 1.0
C      1  0.4670230000000  0.5664610000000  0.5799720000000 1.0
C      1  0.5893880000000  0.5624970000000  0.4762530000000 1.0
C      1  0.5293270000000  0.5971160000000  0.4902380000000 1.0
C      1  0.5590630000000  0.4356240000000  0.4409480000000 1.0
C      1  0.4154950000000  0.4350070000000  0.5082030000000 1.0
C      1  0.4856340000000  0.4317630000000  0.4241800000000 1.0
C      1  0.5134560000000  0.5950910000000  0.5433120000000 1.0
C      1  0.4717970000000  0.5482570000000  0.4669140000000 1.0
C      1  0.4991710000000  0.4696210000000  0.5539650000000 1.0
C      1  0.4744730000000  0.4546350000000  0.5528350000000 1.0
C      1  0.4301910000000  0.5845050000000  0.4953900000000 1.0
C      1  0.5748940000000  0.5749180000000  0.5012480000000 1.0
C      1  0.4271020000000  0.4469750000000  0.4488990000000 1.0
C      1  0.5011150000000  0.5337360000000  0.4652350000000 1.0
C      1  0.5101550000000  0.5158230000000  0.5363750000000 1.0
C      1  0.5339610000000  0.3810700000000  0.5338520000000 1.0
C      1  0.5424720000000  0.4871730000000  0.5765020000000 1.0
C      1  0.4993260000000  0.4403080000000  0.4791500000000 1.0
C      1  0.4290080000000  0.5182320000000  0.6020150000000 1.0
C      1  0.5915750000000  0.5172450000000  0.4993810000000 1.0
C      1  0.4589470000000  0.5044240000000  0.4777990000000 1.0
C      1  0.5143760000000  0.4328090000000  0.5016650000000 1.0
C      1  0.5069270000000  0.4472950000000  0.5913690000000 1.0
C      1  0.4688180000000  0.5686630000000  0.4131530000000 1.0
C      1  0.5562900000000  0.4409320000000  0.5120250000000 1.0
C      1  0.4529850000000  0.4161910000000  0.5315780000000 1.0
C      1  0.6049100000000  0.4905590000000  0.5084250000000 1.0
C      1  0.5925320000000  0.5114310000000  0.5818620000000 1.0
C      1  0.5931580000000  0.4923060000000  0.4612410000000 1.0
C      1  0.5469370000000  0.4970880000000  0.4716070000000 1.0
C      1  0.5238110000000  0.5400140000000  0.5451790000000 1.0
C      1  0.5576040000000  0.5973650000000  0.5061690000000 1.0
C      1  0.4486270000000  0.4331800000000  0.4384240000000 1.0
C      1  0.5408810000000  0.5916810000000  0.5299170000000 1.0
C      1  0.4688830000000  0.4885590000000  0.5917020000000 1.0
C      1  0.5224970000000  0.5499720000000  0.5719930000000 1.0
C      1  0.4428700000000  0.5234560000000  0.4012400000000 1.0
C      1  0.4688300000000  0.4348430000000  0.4772180000000 1.0
C      1  0.5072170000000  0.6147110000000  0.4787160000000 1.0
C      1  0.5797980000000  0.4701460000000  0.5475500000000 1.0
C      1  0.5086170000000  0.5402330000000  0.4044910000000 1.0
C      1  0.5817660000000  0.4301210000000  0.5025110000000 1.0
C      1  0.4776960000000  0.4877470000000  0.3777950000000 1.0
C      1  0.4771480000000  0.4729510000000  0.4417920000000 1.0
C      1  0.5559500000000  0.4918520000000  0.5485720000000 1.0
C      1  0.4746850000000  0.4240310000000  0.5484830000000 1.0
C      1  0.4940920000000  0.5169120000000  0.4156530000000 1.0
C      1  0.4493060000000  0.4733740000000  0.5060790000000 1.0
C      1  0.5079990000000  0.4157510000000  0.4274420000000 1.0
C      1  0.5147690000000  0.5579720000000  0.4649020000000 1.0
C      1  0.5378810000000  0.3891110000000  0.5063370000000 1.0
C      1  0.5658600000000  0.5541700000000  0.5191780000000 1.0
C      1  0.5336560000000  0.4177310000000  0.4400950000000 1.0
C      1  0.4899900000000  0.5286200000000  0.5120200000000 1.0
C      1  0.5396870000000  0.4932560000000  0.3879060000000 1.0
C      1  0.5049420000000  0.3705760000000  0.5345910000000 1.0
C      1  0.5198810000000  0.5662780000000  0.4920440000000 1.0
C      1  0.4463230000000  0.5160590000000  0.5498450000000 1.0
C      1  0.4633740000000  0.4054450000000  0.4825700000000 1.0
C      1  0.4215310000000  0.5700160000000  0.5192100000000 1.0
C      1  0.5807600000000  0.4306930000000  0.4610600000000 1.0
C      1  0.4553720000000  0.5836040000000  0.4357380000000 1.0
C      1  0.4396100000000  0.5126400000000  0.4576680000000 1.0
C      1  0.5753410000000  0.5600630000000  0.4496690000000 1.0
C      1  0.4292490000000  0.4930900000000  0.5033260000000 1.0
C      1  0.4056390000000  0.4797770000000  0.4903530000000 1.0
C      1  0.4581810000000  0.5152780000000  0.5959460000000 1.0
C      1  0.5102310000000  0.4637430000000  0.4660600000000 1.0
C      1  0.3817370000000  0.5077520000000  0.5102680000000 1.0
C      1  0.5144100000000  0.5140100000000  0.6041470000000 1.0
C      1  0.4674300000000  0.6015160000000  0.5240360000000 1.0
C      1  0.5033380000000  0.5373520000000  0.5922060000000 1.0
C      1  0.5071750000000  0.5765180000000  0.4425310000000 1.0
C      1  0.5817420000000  0.4868970000000  0.4341680000000 1.0
C      1  0.6028890000000  0.4752170000000  0.4838450000000 1.0
C      1  0.4967280000000  0.5642710000000  0.4159830000000 1.0
C      1  0.3984000000000  0.4986300000000  0.4681860000000 1.0
C      1  0.4300730000000  0.4365520000000  0.5332070000000 1.0
C      1  0.4305280000000  0.5649650000000  0.5472900000000 1.0
C      1  0.3888730000000  0.5214470000000  0.4829760000000 1.0
C      1  0.4709560000000  0.4440570000000  0.4442740000000 1.0
C      1  0.5497600000000  0.4197140000000  0.5721730000000 1.0
C      1  0.4106570000000  0.5383550000000  0.5962200000000 1.0
C      1  0.4682230000000  0.4985070000000  0.5429200000000 1.0
C      1  0.4015890000000  0.5484840000000  0.4838210000000 1.0
C      1  0.4946430000000  0.4983880000000  0.5545060000000 1.0
C      1  0.5320830000000  0.4978850000000  0.4443110000000 1.0
C      1  0.5191820000000  0.4731190000000  0.5891670000000 1.0
C      1  0.5752610000000  0.4113750000000  0.4820830000000 1.0
C      1  0.4695670000000  0.4171140000000  0.5940480000000 1.0
C      1  0.5527500000000  0.3957680000000  0.4829630000000 1.0
C      1  0.4812480000000  0.3955380000000  0.4617940000000 1.0
C      1  0.5704780000000  0.5110250000000  0.5953960000000 1.0
C      1  0.5247520000000  0.4241510000000  0.5885730000000 1.0
C      1  0.4888250000000  0.5809360000000  0.5339340000000 1.0
C      1  0.5937210000000  0.4477500000000  0.4820810000000 1.0
C      1  0.4975670000000  0.4907100000000  0.5996040000000 1.0
C      1  0.5324510000000  0.5923120000000  0.4421480000000 1.0
C      1  0.4437250000000  0.5823300000000  0.5681570000000 1.0
C      1  0.4128890000000  0.4788920000000  0.5450540000000 1.0
C      1  0.5336810000000  0.3985840000000  0.4611550000000 1.0
C      1  0.6005410000000  0.5075110000000  0.5553340000000 1.0
C      1  0.4346470000000  0.5205890000000  0.5091620000000 1.0
C      1  0.4166910000000  0.4992120000000  0.4441800000000 1.0
C      1  0.5767300000000  0.4468070000000  0.5585830000000 1.0
C      1  0.5129270000000  0.4013420000000  0.5754480000000 1.0
C      1  0.5540320000000  0.5153290000000  0.3984110000000 1.0
C      1  0.4165410000000  0.5226900000000  0.4198940000000 1.0
C      1  0.5435470000000  0.5059880000000  0.5984060000000 1.0
C      1  0.4309330000000  0.4709360000000  0.4338590000000 1.0
C      1  0.5117100000000  0.3994200000000  0.4994060000000 1.0
C      1  0.4516590000000  0.5444700000000  0.5458250000000 1.0
C      1  0.4619150000000  0.3975680000000  0.5105680000000 1.0
C      1  0.5741270000000  0.5144980000000  0.5463260000000 1.0
C      1  0.4788140000000  0.5927920000000  0.4494890000000 1.0
C      1  0.5687060000000  0.4609250000000  0.4344930000000 1.0
C      1  0.4175930000000  0.5713760000000  0.4728170000000 1.0
C      1  0.5341980000000  0.5746680000000  0.5825800000000 1.0
C      1  0.4189730000000  0.4495740000000  0.4814670000000 1.0
C      1  0.5541490000000  0.5943580000000  0.5717080000000 1.0
C      1  0.5533130000000  0.4433760000000  0.5590140000000 1.0
C      1  0.6036390000000  0.4845190000000  0.5366850000000 1.0
C      1  0.4284300000000  0.5744250000000  0.4454610000000 1.0
C      1  0.5618520000000  0.5956400000000  0.5456690000000 1.0
C      1  0.4313350000000  0.4593310000000  0.5530070000000 1.0
C      1  0.4524250000000  0.5990340000000  0.5471730000000 1.0
C      1  0.4625210000000  0.5202130000000  0.5022510000000 1.0
C      1  0.4592640000000  0.5949510000000  0.4951980000000 1.0
C      1  0.4567090000000  0.4639440000000  0.5763870000000 1.0
C      1  0.5231200000000  0.5982470000000  0.5699900000000 1.0
C      1  0.4068360000000  0.5153470000000  0.5805910000000 1.0
C      1  0.5304790000000  0.4748330000000  0.4250770000000 1.0
C      1  0.5362590000000  0.3964330000000  0.5585990000000 1.0
C      1  0.4968300000000  0.4688130000000  0.5121840000000 1.0
C      1  0.4497150000000  0.5371710000000  0.4508370000000 1.0
C      1  0.5789370000000  0.5290410000000  0.5231910000000 1.0
C      1  0.5738490000000  0.5122860000000  0.4205740000000 1.0
C      1  0.5412560000000  0.4475550000000  0.5344160000000 1.0
C      1  0.5372600000000  0.4979430000000  0.5207210000000 1.0
C      1  0.5553420000000  0.5757580000000  0.4350720000000 1.0
END
