TITL C-883736-9678-158 -3.03885455666458 125000 -15075.3866125671 0 0 101 (C1) n - 1
REM
REM in /home/nfs/bkarasulu/CARBON/AIRSS/Generating-Clusters/ReaxFF-fromJPCA2015/Units_Real/with-SteepDescent/Only-C1/SD-CG/Try1-3A/FIRE-CG
REM
REM
REM
REM
REM
REM ./C.cell (11c1c37f851c82e70ff6c80c92926a4b)
REM
REM compiler GCC version 9.2.1 20190827 (Red Hat 9.2.1-1)
REM options -cpp -mtune=generic -march=x86-64 -g -O0 -fpre-include=/usr/include/finclude/math-vector-fortran.h
REM seed 1970425627 1613296055 1606290936 1430174775 1581075084 -1999535393 477480129 -140006246 781982795 114856305 -1641573379 -41431450 998863915 -1201671815 -891100410 630261893 -1436301807 -1402857484 613142776 -405300539 -1965652993 -430513921 -731400507 1273154736 781934256 -1520353367 312164517 1031419609 -912117565 210373269 -633610000 2026899998 -2098210292
REM
CELL 1.54180   50.00000   50.00000   50.00000   90.00000   90.00000   90.00000
LATT -1
SFAC C  
C      1  0.4365900000000  0.4515390000000  0.5266830000000 1.0
C      1  0.5650310000000  0.5325160000000  0.5419160000000 1.0
C      1  0.5576660000000  0.4276710000000  0.5086050000000 1.0
C      1  0.4288560000000  0.5411600000000  0.5257260000000 1.0
C      1  0.4824760000000  0.4424920000000  0.4453070000000 1.0
C      1  0.4250430000000  0.5241090000000  0.4505970000000 1.0
C      1  0.4225440000000  0.4989800000000  0.5093120000000 1.0
C      1  0.5554260000000  0.5309010000000  0.4698200000000 1.0
C      1  0.5534060000000  0.5189180000000  0.5123650000000 1.0
C      1  0.5805880000000  0.4600050000000  0.4793280000000 1.0
C      1  0.4374660000000  0.4751790000000  0.5439950000000 1.0
C      1  0.5281620000000  0.5051040000000  0.4442410000000 1.0
C      1  0.5476190000000  0.5899980000000  0.4871820000000 1.0
C      1  0.5037740000000  0.5305810000000  0.4893270000000 1.0
C      1  0.5245010000000  0.5580260000000  0.4436000000000 1.0
C      1  0.5107440000000  0.5081210000000  0.5463740000000 1.0
C      1  0.5383770000000  0.4255360000000  0.5317130000000 1.0
C      1  0.4460110000000  0.4527370000000  0.4726000000000 1.0
C      1  0.4661680000000  0.5106990000000  0.4688320000000 1.0
C      1  0.4949190000000  0.5068590000000  0.5922810000000 1.0
C      1  0.4743300000000  0.4881020000000  0.4899980000000 1.0
C      1  0.4545590000000  0.4820750000000  0.5661590000000 1.0
C      1  0.4568250000000  0.5115020000000  0.5676790000000 1.0
C      1  0.5221360000000  0.4201340000000  0.4706210000000 1.0
C      1  0.5303670000000  0.5705630000000  0.4969980000000 1.0
C      1  0.5634180000000  0.4756480000000  0.4356520000000 1.0
C      1  0.5397830000000  0.5735720000000  0.5588240000000 1.0
C      1  0.5422010000000  0.4850360000000  0.5080840000000 1.0
C      1  0.5029240000000  0.5543040000000  0.4240820000000 1.0
C      1  0.4544270000000  0.5606400000000  0.4276840000000 1.0
C      1  0.5269910000000  0.4429180000000  0.5523460000000 1.0
C      1  0.4885680000000  0.5795450000000  0.4645810000000 1.0
C      1  0.4957090000000  0.4861570000000  0.5331120000000 1.0
C      1  0.4583570000000  0.5743520000000  0.5341180000000 1.0
C      1  0.4167880000000  0.5260900000000  0.5043540000000 1.0
C      1  0.5609670000000  0.4689560000000  0.5205430000000 1.0
C      1  0.5382880000000  0.5364740000000  0.4930090000000 1.0
C      1  0.5123150000000  0.5724630000000  0.5499880000000 1.0
C      1  0.5544010000000  0.4487760000000  0.4362650000000 1.0
C      1  0.4418740000000  0.5745410000000  0.4881980000000 1.0
C      1  0.4670550000000  0.4899640000000  0.4259190000000 1.0
C      1  0.5624830000000  0.5623720000000  0.5442610000000 1.0
C      1  0.4863210000000  0.4691340000000  0.4261010000000 1.0
C      1  0.4704150000000  0.4922050000000  0.5184850000000 1.0
C      1  0.4848790000000  0.4412920000000  0.4937330000000 1.0
C      1  0.5347540000000  0.4812030000000  0.5826790000000 1.0
C      1  0.5147650000000  0.4678570000000  0.4189320000000 1.0
C      1  0.5773920000000  0.5102760000000  0.4718780000000 1.0
C      1  0.5041090000000  0.4980300000000  0.4898380000000 1.0
C      1  0.5328730000000  0.5053340000000  0.5660830000000 1.0
C      1  0.4618950000000  0.5555210000000  0.5553570000000 1.0
C      1  0.4299120000000  0.5518170000000  0.4397630000000 1.0
C      1  0.5377650000000  0.4861430000000  0.4242010000000 1.0
C      1  0.4747220000000  0.4394340000000  0.5551440000000 1.0
C      1  0.4306510000000  0.4769280000000  0.4638740000000 1.0
C      1  0.4943450000000  0.5304990000000  0.4135790000000 1.0
C      1  0.4698650000000  0.5813640000000  0.4862450000000 1.0
C      1  0.4281990000000  0.4531650000000  0.4988330000000 1.0
C      1  0.5331200000000  0.4665380000000  0.4825950000000 1.0
C      1  0.5125480000000  0.4896370000000  0.5970230000000 1.0
C      1  0.5208470000000  0.4873530000000  0.4668700000000 1.0
C      1  0.4824450000000  0.5320030000000  0.4672890000000 1.0
C      1  0.5170480000000  0.5753420000000  0.4660900000000 1.0
C      1  0.4571530000000  0.4328530000000  0.5340140000000 1.0
C      1  0.5272450000000  0.4425780000000  0.4270250000000 1.0
C      1  0.4786190000000  0.5258280000000  0.5807090000000 1.0
C      1  0.5763160000000  0.4514120000000  0.5074090000000 1.0
C      1  0.4721200000000  0.4610560000000  0.4795690000000 1.0
C      1  0.4997270000000  0.5327660000000  0.5392060000000 1.0
C      1  0.5464440000000  0.4583490000000  0.5660040000000 1.0
C      1  0.4145200000000  0.5349770000000  0.4756390000000 1.0
C      1  0.5149800000000  0.4873110000000  0.5129590000000 1.0
C      1  0.5491370000000  0.4207980000000  0.4816400000000 1.0
C      1  0.4978440000000  0.4561120000000  0.5510970000000 1.0
C      1  0.5813190000000  0.5142920000000  0.5010030000000 1.0
C      1  0.5173340000000  0.4162090000000  0.5137910000000 1.0
C      1  0.5697860000000  0.4636160000000  0.5461520000000 1.0
C      1  0.5101810000000  0.4281880000000  0.4456100000000 1.0
C      1  0.4801990000000  0.5565060000000  0.4451570000000 1.0
C      1  0.4445240000000  0.4998840000000  0.4495730000000 1.0
C      1  0.5719240000000  0.4892430000000  0.5572960000000 1.0
C      1  0.4449020000000  0.5314860000000  0.5493990000000 1.0
C      1  0.4361850000000  0.5680230000000  0.5171440000000 1.0
C      1  0.4828970000000  0.5079700000000  0.4136230000000 1.0
C      1  0.4573580000000  0.4302330000000  0.4497250000000 1.0
C      1  0.4922830000000  0.5417260000000  0.5138250000000 1.0
C      1  0.4443180000000  0.4975170000000  0.5280130000000 1.0
C      1  0.5619620000000  0.5097890000000  0.5608440000000 1.0
C      1  0.4908300000000  0.5492920000000  0.5610450000000 1.0
C      1  0.5567080000000  0.4465900000000  0.4674570000000 1.0
C      1  0.5130080000000  0.4397700000000  0.4916700000000 1.0
C      1  0.4722960000000  0.4219210000000  0.5112220000000 1.0
C      1  0.4175520000000  0.4779970000000  0.4895970000000 1.0
C      1  0.5775550000000  0.4823640000000  0.4613140000000 1.0
C      1  0.5103490000000  0.5788690000000  0.5227620000000 1.0
C      1  0.5502800000000  0.5477850000000  0.5629800000000 1.0
C      1  0.4753750000000  0.4622040000000  0.5700810000000 1.0
C      1  0.4819750000000  0.5727160000000  0.5138090000000 1.0
C      1  0.4240000000000  0.5616780000000  0.4688430000000 1.0
C      1  0.4923800000000  0.4010160000000  0.5199800000000 1.0
C      1  0.5394090000000  0.5326910000000  0.4459420000000 1.0
END
