TITL C-883740-3686-267 36.5009706703296 125000 -14359.7558182539 0 0 95 (C1) n - 1
REM
REM in /home/nfs/bkarasulu/CARBON/AIRSS/Generating-Clusters/ReaxFF-fromJPCA2015/Units_Real/with-SteepDescent/Only-C1/SD-CG/Try1-3A/FIRE-CG
REM
REM
REM
REM
REM
REM ./C.cell (11c1c37f851c82e70ff6c80c92926a4b)
REM
REM compiler GCC version 9.2.1 20190827 (Red Hat 9.2.1-1)
REM options -cpp -mtune=generic -march=x86-64 -g -O0 -fpre-include=/usr/include/finclude/math-vector-fortran.h
REM seed 561411072 1006034736 557976148 160045367 -1859361488 1782962738 1766348033 2086702640 -133250963 1358714907 -1805199225 60758788 -1958160508 1264295826 -789067541 -1047861895 -997280388 -734981886 2112968782 647502413 -1592499253 2139427451 -827656687 1738388914 -114368313 -1397520950 -2118605660 -540132911 -1213727327 -1594237441 -551695425 1558481000 -1760619064
REM
CELL 1.54180   50.00000   50.00000   50.00000   90.00000   90.00000   90.00000
LATT -1
SFAC C  
C      1  0.5024140000000  0.4176610000000  0.5111860000000 1.0
C      1  0.5061420000000  0.5291370000000  0.4746110000000 1.0
C      1  0.4448700000000  0.4543370000000  0.5470520000000 1.0
C      1  0.5314360000000  0.4605150000000  0.5120670000000 1.0
C      1  0.4817550000000  0.5682630000000  0.4936360000000 1.0
C      1  0.5554880000000  0.5518560000000  0.5453360000000 1.0
C      1  0.5329670000000  0.4945290000000  0.4241660000000 1.0
C      1  0.4528740000000  0.5053240000000  0.5620590000000 1.0
C      1  0.4369840000000  0.5759950000000  0.5004940000000 1.0
C      1  0.4905810000000  0.4647270000000  0.4404530000000 1.0
C      1  0.5560990000000  0.5413780000000  0.4556590000000 1.0
C      1  0.5224230000000  0.4501620000000  0.5671040000000 1.0
C      1  0.5354900000000  0.5739710000000  0.5171950000000 1.0
C      1  0.5086180000000  0.5522040000000  0.5620720000000 1.0
C      1  0.5026250000000  0.5624790000000  0.4373380000000 1.0
C      1  0.5359830000000  0.4216070000000  0.4871700000000 1.0
C      1  0.5458730000000  0.4883600000000  0.5612160000000 1.0
C      1  0.5189180000000  0.5197100000000  0.5260020000000 1.0
C      1  0.4614750000000  0.4696400000000  0.4372300000000 1.0
C      1  0.5649450000000  0.4289250000000  0.4815490000000 1.0
C      1  0.5417880000000  0.5116890000000  0.5433100000000 1.0
C      1  0.5848910000000  0.5224530000000  0.4788490000000 1.0
C      1  0.4909270000000  0.5209890000000  0.5327000000000 1.0
C      1  0.4645840000000  0.5181440000000  0.4876850000000 1.0
C      1  0.5313530000000  0.4521750000000  0.4457540000000 1.0
C      1  0.4566940000000  0.4760580000000  0.5635320000000 1.0
C      1  0.4235640000000  0.5009900000000  0.4985630000000 1.0
C      1  0.5443770000000  0.5621180000000  0.4681720000000 1.0
C      1  0.5173330000000  0.5744240000000  0.4587420000000 1.0
C      1  0.4778440000000  0.5225550000000  0.5596870000000 1.0
C      1  0.4582390000000  0.4992920000000  0.4379050000000 1.0
C      1  0.5641100000000  0.5299810000000  0.5466480000000 1.0
C      1  0.4843940000000  0.4771370000000  0.5546640000000 1.0
C      1  0.4535460000000  0.5580630000000  0.4276810000000 1.0
C      1  0.4266630000000  0.4463730000000  0.5041300000000 1.0
C      1  0.4600570000000  0.4125270000000  0.4877670000000 1.0
C      1  0.5988340000000  0.4994270000000  0.4911210000000 1.0
C      1  0.4243020000000  0.5508490000000  0.5089910000000 1.0
C      1  0.5575780000000  0.4938290000000  0.4403000000000 1.0
C      1  0.4867330000000  0.4205280000000  0.5372650000000 1.0
C      1  0.5164970000000  0.5280010000000  0.5761020000000 1.0
C      1  0.5165250000000  0.4689620000000  0.4269720000000 1.0
C      1  0.4734700000000  0.5074110000000  0.5134340000000 1.0
C      1  0.4453690000000  0.4249920000000  0.5103850000000 1.0
C      1  0.5735530000000  0.5400430000000  0.4998450000000 1.0
C      1  0.4361960000000  0.5426880000000  0.5347000000000 1.0
C      1  0.4320950000000  0.5588840000000  0.4486190000000 1.0
C      1  0.5713250000000  0.5192050000000  0.4522690000000 1.0
C      1  0.5905860000000  0.4703300000000  0.4895440000000 1.0
C      1  0.5069370000000  0.4755240000000  0.5734760000000 1.0
C      1  0.5749960000000  0.4542410000000  0.4700350000000 1.0
C      1  0.5526990000000  0.5602690000000  0.4967920000000 1.0
C      1  0.4994940000000  0.5087840000000  0.4546850000000 1.0
C      1  0.4257320000000  0.5319890000000  0.4616820000000 1.0
C      1  0.4801540000000  0.5457450000000  0.4263150000000 1.0
C      1  0.4892130000000  0.6009130000000  0.5193830000000 1.0
C      1  0.4879730000000  0.4072040000000  0.4895690000000 1.0
C      1  0.4785740000000  0.5519000000000  0.5594490000000 1.0
C      1  0.5318470000000  0.5653920000000  0.5449270000000 1.0
C      1  0.4816270000000  0.5161780000000  0.4328410000000 1.0
C      1  0.4938340000000  0.4198740000000  0.4644500000000 1.0
C      1  0.4349940000000  0.5716110000000  0.4734670000000 1.0
C      1  0.4587300000000  0.5602360000000  0.5401970000000 1.0
C      1  0.4212310000000  0.4936160000000  0.5264540000000 1.0
C      1  0.5822340000000  0.4717280000000  0.5173310000000 1.0
C      1  0.5814730000000  0.5270960000000  0.5249520000000 1.0
C      1  0.5145850000000  0.5946720000000  0.5073410000000 1.0
C      1  0.4839380000000  0.4622700000000  0.5055390000000 1.0
C      1  0.4918720000000  0.4817740000000  0.4646790000000 1.0
C      1  0.5571810000000  0.4662290000000  0.4509020000000 1.0
C      1  0.5019920000000  0.5853830000000  0.4817090000000 1.0
C      1  0.4258150000000  0.4644000000000  0.5274560000000 1.0
C      1  0.4417170000000  0.4808660000000  0.4859050000000 1.0
C      1  0.4803910000000  0.4817530000000  0.5247560000000 1.0
C      1  0.4296540000000  0.4566090000000  0.4764420000000 1.0
C      1  0.5407520000000  0.5028830000000  0.4881240000000 1.0
C      1  0.4490950000000  0.5141000000000  0.4619910000000 1.0
C      1  0.4190680000000  0.5287340000000  0.4898160000000 1.0
C      1  0.4644410000000  0.5791590000000  0.5167890000000 1.0
C      1  0.5043320000000  0.4338220000000  0.5535430000000 1.0
C      1  0.5243750000000  0.5240690000000  0.4970590000000 1.0
C      1  0.4806410000000  0.5420400000000  0.4816560000000 1.0
C      1  0.5075220000000  0.4458800000000  0.5066650000000 1.0
C      1  0.5363750000000  0.4829780000000  0.4993730000000 1.0
C      1  0.4711010000000  0.4774790000000  0.4853590000000 1.0
C      1  0.4323380000000  0.5147800000000  0.5439680000000 1.0
C      1  0.5201910000000  0.4322300000000  0.4645840000000 1.0
C      1  0.5560070000000  0.4270580000000  0.5086410000000 1.0
C      1  0.5588500000000  0.4524990000000  0.5274670000000 1.0
C      1  0.4580440000000  0.4307260000000  0.5355980000000 1.0
C      1  0.5240670000000  0.4990990000000  0.5789500000000 1.0
C      1  0.5471390000000  0.4604050000000  0.5541680000000 1.0
C      1  0.5922780000000  0.4993680000000  0.5198060000000 1.0
C      1  0.4644850000000  0.4261570000000  0.4620170000000 1.0
C      1  0.4486220000000  0.4493790000000  0.4547610000000 1.0
END
