TITL C-883736-9678-100 -6.05086894923469 125000 -26566.3474801609 0 0 177 (C1) n - 1
REM
REM in /home/nfs/bkarasulu/CARBON/AIRSS/Generating-Clusters/ReaxFF-fromJPCA2015/Units_Real/with-SteepDescent/Only-C1/SD-CG/Try1-3A/FIRE-CG
REM
REM
REM
REM
REM
REM ./C.cell (11c1c37f851c82e70ff6c80c92926a4b)
REM
REM compiler GCC version 9.2.1 20190827 (Red Hat 9.2.1-1)
REM options -cpp -mtune=generic -march=x86-64 -g -O0 -fpre-include=/usr/include/finclude/math-vector-fortran.h
REM seed 628501442 -1727383460 -1527477072 -1589702228 864068110 1052259839 -1303126043 643726265 842100305 -1639491298 -1939062283 -843721982 -257581266 -984664367 916362388 -813415805 -871615800 1129840788 -444895186 -1569180686 -1918864838 -1122853954 -1505474762 1703794652 720728950 -2011365094 898009343 1354512247 533746248 -1606424583 1794174790 203066274 -739672932
REM
CELL 1.54180   50.00000   50.00000   50.00000   90.00000   90.00000   90.00000
LATT -1
SFAC C  
C      1  0.5353050000000  0.4460010000000  0.5895120000000 1.0
C      1  0.4267290000000  0.5387920000000  0.5597500000000 1.0
C      1  0.4983060000000  0.5039960000000  0.3869080000000 1.0
C      1  0.5604310000000  0.6162460000000  0.5094540000000 1.0
C      1  0.4783130000000  0.5451090000000  0.4117730000000 1.0
C      1  0.5050310000000  0.5483950000000  0.5155150000000 1.0
C      1  0.6066220000000  0.5175120000000  0.4853030000000 1.0
C      1  0.4417070000000  0.5731140000000  0.4457980000000 1.0
C      1  0.4866560000000  0.5650290000000  0.4989880000000 1.0
C      1  0.4496230000000  0.4275840000000  0.5751180000000 1.0
C      1  0.5457670000000  0.4456890000000  0.4147290000000 1.0
C      1  0.4276070000000  0.4261790000000  0.5610760000000 1.0
C      1  0.4388640000000  0.5124640000000  0.5253580000000 1.0
C      1  0.4439210000000  0.5368850000000  0.5836670000000 1.0
C      1  0.4902910000000  0.4973710000000  0.4291520000000 1.0
C      1  0.4178210000000  0.4816030000000  0.5599650000000 1.0
C      1  0.4001150000000  0.5104690000000  0.4481970000000 1.0
C      1  0.4868870000000  0.4284870000000  0.4783290000000 1.0
C      1  0.4875140000000  0.5252950000000  0.4326760000000 1.0
C      1  0.4658000000000  0.5558000000000  0.5797980000000 1.0
C      1  0.6064860000000  0.5548910000000  0.5072620000000 1.0
C      1  0.5597930000000  0.4219730000000  0.4287740000000 1.0
C      1  0.4259390000000  0.5424360000000  0.4200750000000 1.0
C      1  0.6062530000000  0.4805530000000  0.5259930000000 1.0
C      1  0.5043190000000  0.4205260000000  0.4230720000000 1.0
C      1  0.4756890000000  0.5204730000000  0.3914220000000 1.0
C      1  0.4043460000000  0.5455100000000  0.5146060000000 1.0
C      1  0.5328950000000  0.5594440000000  0.5846780000000 1.0
C      1  0.5053020000000  0.4108650000000  0.5623360000000 1.0
C      1  0.5229920000000  0.5407740000000  0.4657060000000 1.0
C      1  0.4428540000000  0.5218700000000  0.4277500000000 1.0
C      1  0.5397550000000  0.4098490000000  0.4434660000000 1.0
C      1  0.5047710000000  0.5562790000000  0.5921280000000 1.0
C      1  0.4660010000000  0.4075500000000  0.4449800000000 1.0
C      1  0.5900440000000  0.4293580000000  0.4729790000000 1.0
C      1  0.5051090000000  0.5603580000000  0.4149370000000 1.0
C      1  0.5142730000000  0.4826160000000  0.5488700000000 1.0
C      1  0.4054610000000  0.4430380000000  0.4833310000000 1.0
C      1  0.4870820000000  0.5372640000000  0.5790860000000 1.0
C      1  0.5422290000000  0.5716780000000  0.4978740000000 1.0
C      1  0.3855900000000  0.4900180000000  0.4987410000000 1.0
C      1  0.4764060000000  0.4617520000000  0.5077180000000 1.0
C      1  0.5335090000000  0.5855910000000  0.4530310000000 1.0
C      1  0.5712290000000  0.4303920000000  0.5099110000000 1.0
C      1  0.6103210000000  0.5257740000000  0.5133600000000 1.0
C      1  0.5445730000000  0.5277360000000  0.4527870000000 1.0
C      1  0.5295870000000  0.5441890000000  0.4941390000000 1.0
C      1  0.5779590000000  0.4224570000000  0.4508820000000 1.0
C      1  0.5773120000000  0.4881540000000  0.5734210000000 1.0
C      1  0.4868160000000  0.6081740000000  0.5235750000000 1.0
C      1  0.4537290000000  0.5964220000000  0.4900200000000 1.0
C      1  0.4494940000000  0.5600670000000  0.4217890000000 1.0
C      1  0.5136390000000  0.4044770000000  0.4464220000000 1.0
C      1  0.4826210000000  0.5875400000000  0.4478890000000 1.0
C      1  0.4936310000000  0.4639340000000  0.5882820000000 1.0
C      1  0.5747010000000  0.5755470000000  0.5397780000000 1.0
C      1  0.4488150000000  0.5372950000000  0.4757250000000 1.0
C      1  0.4805180000000  0.5933060000000  0.5005400000000 1.0
C      1  0.4261780000000  0.4681690000000  0.4468310000000 1.0
C      1  0.4979230000000  0.4014910000000  0.4743360000000 1.0
C      1  0.4474360000000  0.5205740000000  0.4987060000000 1.0
C      1  0.4208300000000  0.5545680000000  0.4636720000000 1.0
C      1  0.5674630000000  0.5841040000000  0.5105070000000 1.0
C      1  0.4437630000000  0.4550210000000  0.4301220000000 1.0
C      1  0.4220910000000  0.4202140000000  0.4839310000000 1.0
C      1  0.5936390000000  0.4886200000000  0.4514500000000 1.0
C      1  0.5438790000000  0.5332780000000  0.5411620000000 1.0
C      1  0.5159050000000  0.5992680000000  0.5548960000000 1.0
C      1  0.5299990000000  0.5738690000000  0.5589010000000 1.0
C      1  0.5325370000000  0.6134330000000  0.5049760000000 1.0
C      1  0.6064060000000  0.4890950000000  0.4782220000000 1.0
C      1  0.5210940000000  0.3901970000000  0.5222130000000 1.0
C      1  0.4650010000000  0.3956320000000  0.4689180000000 1.0
C      1  0.4481800000000  0.4896140000000  0.6004120000000 1.0
C      1  0.3963900000000  0.4715860000000  0.5427250000000 1.0
C      1  0.5302810000000  0.5914120000000  0.4813020000000 1.0
C      1  0.5551660000000  0.5051460000000  0.4626490000000 1.0
C      1  0.4719990000000  0.4853080000000  0.5787090000000 1.0
C      1  0.5425620000000  0.5207210000000  0.4062280000000 1.0
C      1  0.5394430000000  0.5116130000000  0.6027410000000 1.0
C      1  0.4768640000000  0.4780340000000  0.4100750000000 1.0
C      1  0.5117150000000  0.4322830000000  0.5164710000000 1.0
C      1  0.4844530000000  0.5106500000000  0.5682810000000 1.0
C      1  0.4767390000000  0.5501170000000  0.4762930000000 1.0
C      1  0.4968460000000  0.4357260000000  0.5486480000000 1.0
C      1  0.5591680000000  0.4501210000000  0.5729070000000 1.0
C      1  0.4659670000000  0.4419780000000  0.5568380000000 1.0
C      1  0.4584240000000  0.4976920000000  0.3972320000000 1.0
C      1  0.4578000000000  0.5165110000000  0.6029980000000 1.0
C      1  0.4458490000000  0.5854920000000  0.5385280000000 1.0
C      1  0.4116980000000  0.4545610000000  0.5102750000000 1.0
C      1  0.4958580000000  0.3955190000000  0.5392350000000 1.0
C      1  0.5388470000000  0.4916530000000  0.4053540000000 1.0
C      1  0.4728770000000  0.4071240000000  0.5247850000000 1.0
C      1  0.4926550000000  0.4994550000000  0.4694290000000 1.0
C      1  0.5046060000000  0.5003420000000  0.4956680000000 1.0
C      1  0.6054920000000  0.5079670000000  0.5366290000000 1.0
C      1  0.5581080000000  0.4710440000000  0.4164170000000 1.0
C      1  0.5351960000000  0.5139240000000  0.5008050000000 1.0
C      1  0.4369360000000  0.4645070000000  0.5149280000000 1.0
C      1  0.4623730000000  0.4707910000000  0.5560320000000 1.0
C      1  0.5664630000000  0.4767120000000  0.5020190000000 1.0
C      1  0.5789870000000  0.4708170000000  0.5277520000000 1.0
C      1  0.5302970000000  0.4199740000000  0.5754440000000 1.0
C      1  0.4853140000000  0.5079790000000  0.6095470000000 1.0
C      1  0.4151630000000  0.4908530000000  0.4317400000000 1.0
C      1  0.4361700000000  0.5876790000000  0.5108440000000 1.0
C      1  0.5580980000000  0.5718600000000  0.4467850000000 1.0
C      1  0.5911640000000  0.5118870000000  0.5625260000000 1.0
C      1  0.5946320000000  0.5351730000000  0.4637490000000 1.0
C      1  0.4214450000000  0.4825280000000  0.5897840000000 1.0
C      1  0.4118580000000  0.5236090000000  0.5325110000000 1.0
C      1  0.4030960000000  0.4427800000000  0.5331590000000 1.0
C      1  0.4749600000000  0.4215900000000  0.4222780000000 1.0
C      1  0.4416580000000  0.4812990000000  0.5395080000000 1.0
C      1  0.5735020000000  0.4680750000000  0.4426090000000 1.0
C      1  0.5509210000000  0.5368810000000  0.5898390000000 1.0
C      1  0.5023850000000  0.4696160000000  0.4956000000000 1.0
C      1  0.4529840000000  0.4643960000000  0.4937000000000 1.0
C      1  0.5153700000000  0.4068700000000  0.4989710000000 1.0
C      1  0.4466220000000  0.4741600000000  0.4686290000000 1.0
C      1  0.3814350000000  0.4621160000000  0.4857830000000 1.0
C      1  0.5626140000000  0.4171670000000  0.5323490000000 1.0
C      1  0.5618780000000  0.4718510000000  0.5510860000000 1.0
C      1  0.3958050000000  0.4961900000000  0.5268880000000 1.0
C      1  0.5423860000000  0.5078910000000  0.5268740000000 1.0
C      1  0.5523610000000  0.4524700000000  0.4928820000000 1.0
C      1  0.5263460000000  0.4579030000000  0.5105750000000 1.0
C      1  0.5605310000000  0.5293470000000  0.4279130000000 1.0
C      1  0.3925640000000  0.5009460000000  0.4740030000000 1.0
C      1  0.4078230000000  0.5386940000000  0.4428590000000 1.0
C      1  0.4643480000000  0.5239970000000  0.5197050000000 1.0
C      1  0.4496030000000  0.5183220000000  0.4545200000000 1.0
C      1  0.4416390000000  0.4016200000000  0.4887330000000 1.0
C      1  0.5070970000000  0.5811990000000  0.4360210000000 1.0
C      1  0.5063950000000  0.4587040000000  0.4433080000000 1.0
C      1  0.4708570000000  0.5999390000000  0.5452880000000 1.0
C      1  0.4998620000000  0.4514330000000  0.4689450000000 1.0
C      1  0.6086340000000  0.4684160000000  0.4991450000000 1.0
C      1  0.4633280000000  0.4489210000000  0.4149240000000 1.0
C      1  0.5302970000000  0.5477280000000  0.4087020000000 1.0
C      1  0.5461500000000  0.4009180000000  0.5239900000000 1.0
C      1  0.5806570000000  0.5614890000000  0.4646760000000 1.0
C      1  0.4892680000000  0.5965490000000  0.5669760000000 1.0
C      1  0.5095160000000  0.4868360000000  0.4489730000000 1.0
C      1  0.4844630000000  0.5766540000000  0.5879930000000 1.0
C      1  0.5703080000000  0.5483720000000  0.5477000000000 1.0
C      1  0.4445950000000  0.4064330000000  0.5179860000000 1.0
C      1  0.5163040000000  0.4474770000000  0.4176650000000 1.0
C      1  0.5123660000000  0.4960630000000  0.6082860000000 1.0
C      1  0.5892010000000  0.5715210000000  0.4901920000000 1.0
C      1  0.4646980000000  0.4954790000000  0.4627650000000 1.0
C      1  0.5172310000000  0.4664410000000  0.6034660000000 1.0
C      1  0.5760000000000  0.5345430000000  0.5735370000000 1.0
C      1  0.4917780000000  0.5178030000000  0.5195300000000 1.0
C      1  0.5065090000000  0.4591950000000  0.5625730000000 1.0
C      1  0.5964970000000  0.4402880000000  0.4977500000000 1.0
C      1  0.4047020000000  0.5566880000000  0.4884050000000 1.0
C      1  0.5546370000000  0.5572790000000  0.4218520000000 1.0
C      1  0.4956620000000  0.5392650000000  0.4581040000000 1.0
C      1  0.4576020000000  0.5929750000000  0.4600600000000 1.0
C      1  0.4323420000000  0.5028330000000  0.4114720000000 1.0
C      1  0.5140510000000  0.6112880000000  0.5286870000000 1.0
C      1  0.5589110000000  0.5023330000000  0.4901300000000 1.0
C      1  0.4118060000000  0.5724480000000  0.5091450000000 1.0
C      1  0.5237980000000  0.5531840000000  0.5390600000000 1.0
C      1  0.5367470000000  0.4803820000000  0.5343010000000 1.0
C      1  0.5127010000000  0.4825630000000  0.3974150000000 1.0
C      1  0.5574230000000  0.4961490000000  0.5911220000000 1.0
C      1  0.4219790000000  0.4208660000000  0.5345840000000 1.0
C      1  0.4366320000000  0.5619240000000  0.5512410000000 1.0
C      1  0.5878110000000  0.5159170000000  0.4434890000000 1.0
C      1  0.4985860000000  0.5053600000000  0.5448390000000 1.0
C      1  0.5550940000000  0.4245960000000  0.5593140000000 1.0
C      1  0.5386000000000  0.4841930000000  0.4554680000000 1.0
C      1  0.4834020000000  0.4328230000000  0.5073470000000 1.0
C      1  0.5530970000000  0.4607040000000  0.4625740000000 1.0
END
