TITL C-883738-3659-427 60.9839453493816 125000 -28649.1423185691 0 0 191 (C1) n - 1
REM
REM in /home/nfs/bkarasulu/CARBON/AIRSS/Generating-Clusters/ReaxFF-fromJPCA2015/Units_Real/with-SteepDescent/Only-C1/SD-CG/Try1-3A/FIRE-CG
REM
REM
REM
REM
REM
REM ./C.cell (11c1c37f851c82e70ff6c80c92926a4b)
REM
REM compiler GCC version 9.2.1 20190827 (Red Hat 9.2.1-1)
REM options -cpp -mtune=generic -march=x86-64 -g -O0 -fpre-include=/usr/include/finclude/math-vector-fortran.h
REM seed 1490942244 -1489804833 -1051590925 -1389312140 -1015524987 -1988176441 15791513 751789616 6418325 -1853931550 734474785 739859522 1811198168 1127496856 301098165 1798942497 1189522789 -78689935 -1229126514 -108627533 319503523 -1679809383 1351724691 22059120 -842364032 -822859941 -238348015 -517254970 1731355115 648263418 1747215432 504392862 1313806329
REM
CELL 1.54180   50.00000   50.00000   50.00000   90.00000   90.00000   90.00000
LATT -1
SFAC C  
C      1  0.4471690000000  0.3941980000000  0.4197570000000 1.0
C      1  0.4224550000000  0.4279620000000  0.4844890000000 1.0
C      1  0.4027480000000  0.4659830000000  0.4570770000000 1.0
C      1  0.5554270000000  0.3989050000000  0.5257760000000 1.0
C      1  0.4685900000000  0.4468900000000  0.5593540000000 1.0
C      1  0.5364010000000  0.4657250000000  0.5975140000000 1.0
C      1  0.5521090000000  0.5232840000000  0.5315930000000 1.0
C      1  0.4441980000000  0.5459370000000  0.5811520000000 1.0
C      1  0.5407830000000  0.4864550000000  0.5622370000000 1.0
C      1  0.5619150000000  0.6005510000000  0.5326030000000 1.0
C      1  0.4451510000000  0.5108110000000  0.5320070000000 1.0
C      1  0.3925030000000  0.5265720000000  0.4741900000000 1.0
C      1  0.4654290000000  0.3896390000000  0.4632000000000 1.0
C      1  0.5655700000000  0.4446780000000  0.4215720000000 1.0
C      1  0.6046040000000  0.5118530000000  0.4323590000000 1.0
C      1  0.4187110000000  0.4610570000000  0.5859060000000 1.0
C      1  0.5769540000000  0.4617910000000  0.5338120000000 1.0
C      1  0.5185090000000  0.4895950000000  0.5201590000000 1.0
C      1  0.4133420000000  0.5097780000000  0.5751060000000 1.0
C      1  0.4959330000000  0.5042600000000  0.3941050000000 1.0
C      1  0.5520080000000  0.4212660000000  0.5702830000000 1.0
C      1  0.4347540000000  0.5472340000000  0.4497620000000 1.0
C      1  0.5543750000000  0.5987590000000  0.4454020000000 1.0
C      1  0.5002610000000  0.4745700000000  0.3929910000000 1.0
C      1  0.4096860000000  0.5531440000000  0.5013250000000 1.0
C      1  0.5492020000000  0.4902270000000  0.6070790000000 1.0
C      1  0.4335350000000  0.4816250000000  0.4200020000000 1.0
C      1  0.4756570000000  0.4610000000000  0.3972170000000 1.0
C      1  0.4342130000000  0.4151270000000  0.5088960000000 1.0
C      1  0.5618690000000  0.4070070000000  0.5488500000000 1.0
C      1  0.5142720000000  0.6046240000000  0.5389160000000 1.0
C      1  0.4605080000000  0.4171230000000  0.5493990000000 1.0
C      1  0.3935960000000  0.4979070000000  0.5640500000000 1.0
C      1  0.5276960000000  0.4173020000000  0.4310100000000 1.0
C      1  0.4096880000000  0.4543210000000  0.4842540000000 1.0
C      1  0.6016880000000  0.4722680000000  0.4592580000000 1.0
C      1  0.5205070000000  0.4720380000000  0.4768290000000 1.0
C      1  0.4923940000000  0.5701230000000  0.5189890000000 1.0
C      1  0.4687130000000  0.4531450000000  0.4640320000000 1.0
C      1  0.5323630000000  0.4281230000000  0.4957780000000 1.0
C      1  0.5050480000000  0.4641090000000  0.5275870000000 1.0
C      1  0.4384240000000  0.5910050000000  0.5151110000000 1.0
C      1  0.4761500000000  0.5767090000000  0.4949020000000 1.0
C      1  0.5260980000000  0.5254130000000  0.4781600000000 1.0
C      1  0.5198800000000  0.5163310000000  0.3759640000000 1.0
C      1  0.5020190000000  0.5146310000000  0.4266250000000 1.0
C      1  0.4788580000000  0.5494270000000  0.5344310000000 1.0
C      1  0.5170910000000  0.4781960000000  0.5782800000000 1.0
C      1  0.5389310000000  0.3942380000000  0.4718840000000 1.0
C      1  0.5446440000000  0.5054160000000  0.3843110000000 1.0
C      1  0.4847760000000  0.4756870000000  0.4457300000000 1.0
C      1  0.5792760000000  0.4882660000000  0.5203510000000 1.0
C      1  0.4386910000000  0.4953480000000  0.4437040000000 1.0
C      1  0.5955900000000  0.4830100000000  0.4332440000000 1.0
C      1  0.4664260000000  0.4641850000000  0.4923100000000 1.0
C      1  0.4788240000000  0.5446270000000  0.4700210000000 1.0
C      1  0.4809470000000  0.3991920000000  0.5641330000000 1.0
C      1  0.6003800000000  0.4533370000000  0.5135400000000 1.0
C      1  0.4508390000000  0.4906730000000  0.5985410000000 1.0
C      1  0.5571740000000  0.4414930000000  0.5011340000000 1.0
C      1  0.5481570000000  0.4878670000000  0.4101510000000 1.0
C      1  0.5124620000000  0.6008300000000  0.4520630000000 1.0
C      1  0.4760350000000  0.4662850000000  0.5198450000000 1.0
C      1  0.5492200000000  0.4113510000000  0.4503240000000 1.0
C      1  0.5635220000000  0.5256030000000  0.5060340000000 1.0
C      1  0.4553810000000  0.4834190000000  0.3984500000000 1.0
C      1  0.5308780000000  0.5514010000000  0.4918590000000 1.0
C      1  0.5123030000000  0.4429440000000  0.4826610000000 1.0
C      1  0.4888570000000  0.3882370000000  0.4758820000000 1.0
C      1  0.4348130000000  0.5714660000000  0.5706510000000 1.0
C      1  0.5577990000000  0.5270550000000  0.5804220000000 1.0
C      1  0.4416740000000  0.3911780000000  0.4504930000000 1.0
C      1  0.4778540000000  0.4358460000000  0.4118600000000 1.0
C      1  0.4890220000000  0.5447030000000  0.6094640000000 1.0
C      1  0.4972690000000  0.5273590000000  0.4816310000000 1.0
C      1  0.4303100000000  0.4183860000000  0.5574120000000 1.0
C      1  0.5075450000000  0.5209800000000  0.6117200000000 1.0
C      1  0.5679520000000  0.4993250000000  0.4952820000000 1.0
C      1  0.5592100000000  0.5491340000000  0.4893360000000 1.0
C      1  0.4308800000000  0.5303230000000  0.5586870000000 1.0
C      1  0.4938130000000  0.5710930000000  0.5967490000000 1.0
C      1  0.5586460000000  0.4967500000000  0.4672630000000 1.0
C      1  0.5800710000000  0.5834720000000  0.4509940000000 1.0
C      1  0.4258780000000  0.5349180000000  0.4102190000000 1.0
C      1  0.4506680000000  0.5355280000000  0.3959630000000 1.0
C      1  0.5389260000000  0.4785730000000  0.4551570000000 1.0
C      1  0.4197040000000  0.5569920000000  0.5498110000000 1.0
C      1  0.4537570000000  0.5940460000000  0.5644250000000 1.0
C      1  0.5208690000000  0.4960300000000  0.4920900000000 1.0
C      1  0.4908720000000  0.4148200000000  0.5852500000000 1.0
C      1  0.6182200000000  0.5216410000000  0.5306730000000 1.0
C      1  0.5630600000000  0.5405020000000  0.4305500000000 1.0
C      1  0.4588200000000  0.6002420000000  0.5348690000000 1.0
C      1  0.4301710000000  0.5600830000000  0.4798830000000 1.0
C      1  0.5897200000000  0.4453490000000  0.4644250000000 1.0
C      1  0.6075990000000  0.4929020000000  0.5275240000000 1.0
C      1  0.4913370000000  0.5446940000000  0.5583470000000 1.0
C      1  0.5224410000000  0.5640040000000  0.4169600000000 1.0
C      1  0.5063730000000  0.4002420000000  0.5494350000000 1.0
C      1  0.4570490000000  0.5618970000000  0.4083440000000 1.0
C      1  0.4596670000000  0.4842660000000  0.5369990000000 1.0
C      1  0.4186260000000  0.4257170000000  0.5316330000000 1.0
C      1  0.5615280000000  0.4970430000000  0.5811650000000 1.0
C      1  0.5780780000000  0.4633750000000  0.5678890000000 1.0
C      1  0.5855670000000  0.4397790000000  0.4927110000000 1.0
C      1  0.5331860000000  0.5419430000000  0.5388200000000 1.0
C      1  0.5730870000000  0.4728390000000  0.4175880000000 1.0
C      1  0.5324120000000  0.5305140000000  0.5660550000000 1.0
C      1  0.4206710000000  0.4879280000000  0.5937070000000 1.0
C      1  0.4207460000000  0.4386270000000  0.5750240000000 1.0
C      1  0.5238530000000  0.4641930000000  0.4086790000000 1.0
C      1  0.4514910000000  0.5176210000000  0.4561170000000 1.0
C      1  0.4660200000000  0.5087550000000  0.3918970000000 1.0
C      1  0.5799460000000  0.5774380000000  0.5370300000000 1.0
C      1  0.4917770000000  0.4968890000000  0.6283670000000 1.0
C      1  0.4561390000000  0.5929140000000  0.4636550000000 1.0
C      1  0.4215810000000  0.4587670000000  0.4349480000000 1.0
C      1  0.5848880000000  0.5256150000000  0.4189530000000 1.0
C      1  0.4796460000000  0.6008310000000  0.4786130000000 1.0
C      1  0.4198210000000  0.5689250000000  0.5229220000000 1.0
C      1  0.5263690000000  0.5850610000000  0.5575900000000 1.0
C      1  0.5078860000000  0.4618180000000  0.4350760000000 1.0
C      1  0.5783020000000  0.5708540000000  0.4931470000000 1.0
C      1  0.4530450000000  0.4227530000000  0.4182470000000 1.0
C      1  0.4871580000000  0.5994850000000  0.5301220000000 1.0
C      1  0.4799580000000  0.5030340000000  0.4425340000000 1.0
C      1  0.5718740000000  0.4311050000000  0.4465480000000 1.0
C      1  0.5944310000000  0.5629070000000  0.5158830000000 1.0
C      1  0.4863200000000  0.5179880000000  0.5686720000000 1.0
C      1  0.4451400000000  0.4636540000000  0.5515450000000 1.0
C      1  0.4554680000000  0.5691120000000  0.4384520000000 1.0
C      1  0.5402220000000  0.4981100000000  0.5369510000000 1.0
C      1  0.5349350000000  0.3991530000000  0.5044980000000 1.0
C      1  0.5807470000000  0.5959130000000  0.4778050000000 1.0
C      1  0.4832920000000  0.5135390000000  0.5023460000000 1.0
C      1  0.5363550000000  0.6092850000000  0.5196450000000 1.0
C      1  0.5204720000000  0.5563550000000  0.5178770000000 1.0
C      1  0.4697870000000  0.4925180000000  0.4879310000000 1.0
C      1  0.3790680000000  0.4964470000000  0.5424180000000 1.0
C      1  0.5385780000000  0.4368390000000  0.4133790000000 1.0
C      1  0.4907810000000  0.4552310000000  0.5750960000000 1.0
C      1  0.4835340000000  0.3968130000000  0.5066070000000 1.0
C      1  0.4005210000000  0.5239360000000  0.5021390000000 1.0
C      1  0.4682350000000  0.4880380000000  0.6187020000000 1.0
C      1  0.5247120000000  0.4462460000000  0.5384550000000 1.0
C      1  0.5466290000000  0.5542160000000  0.4060250000000 1.0
C      1  0.5322090000000  0.5007990000000  0.4351810000000 1.0
C      1  0.4370990000000  0.5905640000000  0.4853670000000 1.0
C      1  0.5084790000000  0.5659140000000  0.5712210000000 1.0
C      1  0.4425220000000  0.4393720000000  0.4441690000000 1.0
C      1  0.5583760000000  0.4485130000000  0.5824390000000 1.0
C      1  0.4728350000000  0.5850520000000  0.5829400000000 1.0
C      1  0.6035260000000  0.5325430000000  0.4554110000000 1.0
C      1  0.5074730000000  0.3949350000000  0.5214380000000 1.0
C      1  0.6117260000000  0.4909470000000  0.4800420000000 1.0
C      1  0.5075560000000  0.6134180000000  0.4751720000000 1.0
C      1  0.4587410000000  0.5551550000000  0.4880120000000 1.0
C      1  0.5859520000000  0.5552890000000  0.4468980000000 1.0
C      1  0.5330880000000  0.6139560000000  0.4913450000000 1.0
C      1  0.5557070000000  0.5826770000000  0.5542240000000 1.0
C      1  0.4631160000000  0.5364210000000  0.6002830000000 1.0
C      1  0.4670060000000  0.5272750000000  0.5209330000000 1.0
C      1  0.4604860000000  0.4086730000000  0.5188150000000 1.0
C      1  0.3877500000000  0.4793510000000  0.5076000000000 1.0
C      1  0.4291240000000  0.4171980000000  0.4585930000000 1.0
C      1  0.4158560000000  0.4717550000000  0.5088380000000 1.0
C      1  0.6088120000000  0.5205630000000  0.4813450000000 1.0
C      1  0.5285230000000  0.5907300000000  0.4332230000000 1.0
C      1  0.3930830000000  0.4920690000000  0.4519170000000 1.0
C      1  0.3897090000000  0.5200430000000  0.4471570000000 1.0
C      1  0.5555100000000  0.6106070000000  0.4727030000000 1.0
C      1  0.4907380000000  0.4341820000000  0.4650660000000 1.0
C      1  0.5138680000000  0.3936160000000  0.4620330000000 1.0
C      1  0.4652580000000  0.5118360000000  0.5866920000000 1.0
C      1  0.6165290000000  0.4762090000000  0.5049330000000 1.0
C      1  0.5512090000000  0.4490890000000  0.5265980000000 1.0
C      1  0.4278310000000  0.5045790000000  0.5063320000000 1.0
C      1  0.5463080000000  0.5199200000000  0.4532180000000 1.0
C      1  0.4827480000000  0.5570900000000  0.4445700000000 1.0
C      1  0.5120300000000  0.5116950000000  0.5797410000000 1.0
C      1  0.5234630000000  0.4251380000000  0.5609710000000 1.0
C      1  0.4120170000000  0.5388940000000  0.4331590000000 1.0
C      1  0.4450930000000  0.5066500000000  0.4834200000000 1.0
C      1  0.4992750000000  0.4323640000000  0.4355910000000 1.0
C      1  0.4220240000000  0.4540630000000  0.5355530000000 1.0
C      1  0.3769990000000  0.5036500000000  0.5156200000000 1.0
C      1  0.6085150000000  0.5369070000000  0.5076600000000 1.0
C      1  0.5020220000000  0.5446670000000  0.4270650000000 1.0
C      1  0.5086300000000  0.4362750000000  0.5879420000000 1.0
C      1  0.5374640000000  0.5159580000000  0.6175750000000 1.0
C      1  0.5564740000000  0.5373920000000  0.6091240000000 1.0
END
