TITL C-884141-4321-297 -0.121066983128074 125000 -6033.92928144603 0 0 42 (C1) n - 1
REM
REM in /home/nfs/bkarasulu/CARBON/AIRSS/Generating-Clusters/ReaxFF-fromJPCA2015/Units_Real/with-SteepDescent/Only-C1/SD-CG/Try1-3A/FIRE-CG
REM
REM
REM
REM
REM
REM ./C.cell (11c1c37f851c82e70ff6c80c92926a4b)
REM
REM compiler GCC version 9.2.1 20190827 (Red Hat 9.2.1-1)
REM options -cpp -mtune=generic -march=x86-64 -g -O0 -fpre-include=/usr/include/finclude/math-vector-fortran.h
REM seed -1175405529 1413359724 -2139957237 -766320744 514202159 1259524964 -1215096157 1659323504 928436118 -420658532 -1173631285 -1919864256 -1279126027 1498765502 -1855086050 -1573420715 -195967445 -715446814 -137210703 -358958860 -1613964358 -1785660889 1870832252 -1577654390 -392964697 1049526172 -1035343523 -1176722035 1092197015 -1102122109 -862746069 1569409990 397003016
REM
CELL 1.54180   50.00000   50.00000   50.00000   90.00000   90.00000   90.00000
LATT -1
SFAC C  
C      1  0.4846930000000  0.4866320000000  0.4564520000000 1.0
C      1  0.4951720000000  0.5297350000000  0.5666400000000 1.0
C      1  0.5312550000000  0.5005780000000  0.4474720000000 1.0
C      1  0.4559580000000  0.4371600000000  0.5015470000000 1.0
C      1  0.4760450000000  0.4491120000000  0.5157350000000 1.0
C      1  0.4428930000000  0.4978450000000  0.5049520000000 1.0
C      1  0.5146600000000  0.4859370000000  0.5487780000000 1.0
C      1  0.4743170000000  0.5592910000000  0.5205530000000 1.0
C      1  0.5277690000000  0.5475890000000  0.4737250000000 1.0
C      1  0.5450530000000  0.5141570000000  0.5105900000000 1.0
C      1  0.4425690000000  0.5125110000000  0.4827210000000 1.0
C      1  0.5491010000000  0.4609240000000  0.4814540000000 1.0
C      1  0.5047900000000  0.5582220000000  0.5235730000000 1.0
C      1  0.5659110000000  0.4849050000000  0.4773750000000 1.0
C      1  0.5185780000000  0.5148960000000  0.5573760000000 1.0
C      1  0.4844480000000  0.5162740000000  0.4602670000000 1.0
C      1  0.4659430000000  0.5221710000000  0.5597780000000 1.0
C      1  0.5220340000000  0.4735440000000  0.5227800000000 1.0
C      1  0.5076930000000  0.5569670000000  0.4943880000000 1.0
C      1  0.5152710000000  0.4770450000000  0.4483880000000 1.0
C      1  0.4863000000000  0.4722910000000  0.4839480000000 1.0
C      1  0.4365930000000  0.4941070000000  0.4579430000000 1.0
C      1  0.4786390000000  0.5528490000000  0.4912090000000 1.0
C      1  0.5255940000000  0.4552390000000  0.4641590000000 1.0
C      1  0.4831220000000  0.4318210000000  0.4932160000000 1.0
C      1  0.4655040000000  0.5415910000000  0.5402280000000 1.0
C      1  0.4432240000000  0.4827960000000  0.5277640000000 1.0
C      1  0.5567130000000  0.5070520000000  0.4593670000000 1.0
C      1  0.5133180000000  0.5421080000000  0.5467820000000 1.0
C      1  0.5652570000000  0.4904970000000  0.5063670000000 1.0
C      1  0.5180570000000  0.5115980000000  0.4948190000000 1.0
C      1  0.4984320000000  0.4476010000000  0.4737350000000 1.0
C      1  0.5541740000000  0.5360000000000  0.4687660000000 1.0
C      1  0.4663440000000  0.5305460000000  0.4764610000000 1.0
C      1  0.5139310000000  0.5207810000000  0.4648620000000 1.0
C      1  0.5649320000000  0.5301540000000  0.5168730000000 1.0
C      1  0.4557380000000  0.4793870000000  0.4432330000000 1.0
C      1  0.4609240000000  0.4931520000000  0.5509290000000 1.0
C      1  0.4485900000000  0.4541170000000  0.5225310000000 1.0
C      1  0.5056150000000  0.4876380000000  0.5020020000000 1.0
C      1  0.4869170000000  0.4864230000000  0.5493920000000 1.0
C      1  0.5479330000000  0.4667590000000  0.5108730000000 1.0
END
