TITL C-884132-5695-262 6.37990499786884 125000 -15116.8555230949 0 0 103 (C1) n - 1
REM
REM in /home/nfs/bkarasulu/CARBON/AIRSS/Generating-Clusters/ReaxFF-fromJPCA2015/Units_Real/with-SteepDescent/Only-C1/SD-CG/Try1-3A/FIRE-CG
REM
REM
REM
REM
REM
REM ./C.cell (11c1c37f851c82e70ff6c80c92926a4b)
REM
REM compiler GCC version 9.2.1 20190827 (Red Hat 9.2.1-1)
REM options -cpp -mtune=generic -march=x86-64 -g -O0 -fpre-include=/usr/include/finclude/math-vector-fortran.h
REM seed 1430492175 -1223292263 371160340 -1626381287 980051806 1835240433 1053294179 464524996 1444123976 -430559369 293396558 -783110875 -1520849068 -1248159466 1959841496 1335518419 411222939 -354858577 1925616047 1437078431 -1760152106 -43546225 -546830985 1965730728 -19486049 1507634227 -149295997 -1176436648 1462357829 352712674 -932384529 -349780196 -201490502
REM
CELL 1.54180   50.00000   50.00000   50.00000   90.00000   90.00000   90.00000
LATT -1
SFAC C  
C      1  0.5820600000000  0.4881090000000  0.5015210000000 1.0
C      1  0.4586850000000  0.4749920000000  0.5474510000000 1.0
C      1  0.4856380000000  0.5171320000000  0.5124000000000 1.0
C      1  0.4406280000000  0.5293540000000  0.4476060000000 1.0
C      1  0.5236120000000  0.5103100000000  0.4961370000000 1.0
C      1  0.4890430000000  0.4939710000000  0.4131930000000 1.0
C      1  0.5825210000000  0.4883190000000  0.5439450000000 1.0
C      1  0.4823790000000  0.5142840000000  0.4510240000000 1.0
C      1  0.4448110000000  0.4518460000000  0.5592170000000 1.0
C      1  0.5219320000000  0.5500880000000  0.5222440000000 1.0
C      1  0.5210880000000  0.5785040000000  0.5257180000000 1.0
C      1  0.4934600000000  0.5800960000000  0.5355530000000 1.0
C      1  0.4708600000000  0.4638860000000  0.4365590000000 1.0
C      1  0.4704390000000  0.4453550000000  0.5735090000000 1.0
C      1  0.4948260000000  0.5590520000000  0.4530540000000 1.0
C      1  0.5905250000000  0.4632890000000  0.4930840000000 1.0
C      1  0.5060090000000  0.4639240000000  0.5851040000000 1.0
C      1  0.5062540000000  0.5001580000000  0.5427870000000 1.0
C      1  0.4592510000000  0.5034820000000  0.5564670000000 1.0
C      1  0.5847920000000  0.5382240000000  0.5167850000000 1.0
C      1  0.4304480000000  0.5031610000000  0.5430630000000 1.0
C      1  0.4755650000000  0.4432330000000  0.5123670000000 1.0
C      1  0.4993060000000  0.4969520000000  0.4986570000000 1.0
C      1  0.5356670000000  0.5523350000000  0.4429270000000 1.0
C      1  0.4691170000000  0.4881710000000  0.4560350000000 1.0
C      1  0.5127820000000  0.5835110000000  0.4792250000000 1.0
C      1  0.5598980000000  0.4378760000000  0.4807170000000 1.0
C      1  0.5939270000000  0.4737570000000  0.5214230000000 1.0
C      1  0.4198680000000  0.5422780000000  0.4883960000000 1.0
C      1  0.4076470000000  0.5178840000000  0.4914850000000 1.0
C      1  0.5357790000000  0.4781530000000  0.4347430000000 1.0
C      1  0.5566840000000  0.4933900000000  0.5100760000000 1.0
C      1  0.5820650000000  0.5187700000000  0.5375490000000 1.0
C      1  0.5653860000000  0.4765910000000  0.4459950000000 1.0
C      1  0.5108390000000  0.4298440000000  0.5408590000000 1.0
C      1  0.5545150000000  0.5141300000000  0.5282640000000 1.0
C      1  0.4762450000000  0.4695390000000  0.5243470000000 1.0
C      1  0.4972450000000  0.5146640000000  0.5847290000000 1.0
C      1  0.5019910000000  0.4144300000000  0.4857310000000 1.0
C      1  0.5489070000000  0.4236850000000  0.5061860000000 1.0
C      1  0.4687840000000  0.4399350000000  0.4526250000000 1.0
C      1  0.5413830000000  0.5415350000000  0.4694380000000 1.0
C      1  0.5052870000000  0.4757620000000  0.5362290000000 1.0
C      1  0.4515510000000  0.4877260000000  0.5095740000000 1.0
C      1  0.5349170000000  0.4637090000000  0.5397530000000 1.0
C      1  0.4812710000000  0.5149370000000  0.5390470000000 1.0
C      1  0.4753760000000  0.5821830000000  0.5126590000000 1.0
C      1  0.5432170000000  0.4959540000000  0.5738140000000 1.0
C      1  0.4480820000000  0.5719740000000  0.5144020000000 1.0
C      1  0.5584090000000  0.4786620000000  0.5568470000000 1.0
C      1  0.4901360000000  0.5346700000000  0.4715280000000 1.0
C      1  0.5016870000000  0.5408260000000  0.5695690000000 1.0
C      1  0.5203050000000  0.5388980000000  0.4914090000000 1.0
C      1  0.4933000000000  0.4253520000000  0.4593570000000 1.0
C      1  0.4553630000000  0.5589230000000  0.5608100000000 1.0
C      1  0.5748840000000  0.4595080000000  0.4682360000000 1.0
C      1  0.4849010000000  0.5627830000000  0.5590050000000 1.0
C      1  0.4913250000000  0.4664640000000  0.4156270000000 1.0
C      1  0.5218940000000  0.4550440000000  0.4954570000000 1.0
C      1  0.4837300000000  0.5814440000000  0.4845630000000 1.0
C      1  0.4742270000000  0.4981020000000  0.5842820000000 1.0
C      1  0.4475840000000  0.5154090000000  0.5021950000000 1.0
C      1  0.4600470000000  0.5707530000000  0.4695130000000 1.0
C      1  0.5387420000000  0.4716530000000  0.5116690000000 1.0
C      1  0.4812740000000  0.5544320000000  0.4284040000000 1.0
C      1  0.4981450000000  0.5340480000000  0.4144140000000 1.0
C      1  0.5172820000000  0.4561940000000  0.4253080000000 1.0
C      1  0.4167170000000  0.4853510000000  0.4670690000000 1.0
C      1  0.5439680000000  0.5080200000000  0.4245750000000 1.0
C      1  0.4314430000000  0.5266870000000  0.5263530000000 1.0
C      1  0.5191810000000  0.5751300000000  0.4522040000000 1.0
C      1  0.4779900000000  0.4692300000000  0.5902090000000 1.0
C      1  0.5623090000000  0.5202020000000  0.4686090000000 1.0
C      1  0.4393660000000  0.5542430000000  0.5360540000000 1.0
C      1  0.5353870000000  0.5829420000000  0.4996710000000 1.0
C      1  0.5376320000000  0.4337220000000  0.5323160000000 1.0
C      1  0.4534980000000  0.4284010000000  0.5000060000000 1.0
C      1  0.5210660000000  0.4857080000000  0.4612800000000 1.0
C      1  0.4082480000000  0.4900130000000  0.4950870000000 1.0
C      1  0.5760400000000  0.5450160000000  0.4907810000000 1.0
C      1  0.5388630000000  0.5015690000000  0.4755910000000 1.0
C      1  0.4951870000000  0.4828390000000  0.4739180000000 1.0
C      1  0.5669030000000  0.5051090000000  0.4420850000000 1.0
C      1  0.4984150000000  0.4417320000000  0.5648030000000 1.0
C      1  0.4252360000000  0.4520790000000  0.5373930000000 1.0
C      1  0.4827010000000  0.5146090000000  0.4231120000000 1.0
C      1  0.4371830000000  0.4328800000000  0.5219770000000 1.0
C      1  0.5168060000000  0.4371560000000  0.4466290000000 1.0
C      1  0.5276550000000  0.5317990000000  0.4234230000000 1.0
C      1  0.5015970000000  0.4340940000000  0.5094870000000 1.0
C      1  0.5588340000000  0.5651570000000  0.4987760000000 1.0
C      1  0.5170260000000  0.4916100000000  0.5859270000000 1.0
C      1  0.5215700000000  0.5395280000000  0.5494620000000 1.0
C      1  0.5349170000000  0.5141820000000  0.5502650000000 1.0
C      1  0.5290920000000  0.4052330000000  0.4928610000000 1.0
C      1  0.4401570000000  0.5023770000000  0.4554270000000 1.0
C      1  0.4380990000000  0.5652810000000  0.4879210000000 1.0
C      1  0.4456200000000  0.4393300000000  0.4720630000000 1.0
C      1  0.4712690000000  0.5313740000000  0.4944220000000 1.0
C      1  0.4252230000000  0.4808460000000  0.5219780000000 1.0
C      1  0.4295370000000  0.4615430000000  0.4718440000000 1.0
C      1  0.5332610000000  0.4457730000000  0.4705360000000 1.0
C      1  0.4562030000000  0.5556270000000  0.4440220000000 1.0
END
