TITL C-884140-4336-435 93.4562442430251 125000 -24282.3403599502 0 0 163 (C1) n - 1
REM
REM in /home/nfs/bkarasulu/CARBON/AIRSS/Generating-Clusters/ReaxFF-fromJPCA2015/Units_Real/with-SteepDescent/Only-C1/SD-CG/Try1-3A/FIRE-CG
REM
REM
REM
REM
REM
REM ./C.cell (11c1c37f851c82e70ff6c80c92926a4b)
REM
REM compiler GCC version 9.2.1 20190827 (Red Hat 9.2.1-1)
REM options -cpp -mtune=generic -march=x86-64 -g -O0 -fpre-include=/usr/include/finclude/math-vector-fortran.h
REM seed -1416484988 -614840237 312276 -1065354642 -2081478081 404468157 634906856 556474371 724457569 933738395 -661777443 -1469611664 285242055 -1780096735 -394528729 2075823736 -1207046503 -1319237086 216275485 1093748275 -358979234 -1407681857 1699272143 -1333643358 -1542010486 61906448 2028122843 -737962166 -975808216 147757400 1146439585 -1233156111 -1433562005
REM
CELL 1.54180   50.00000   50.00000   50.00000   90.00000   90.00000   90.00000
LATT -1
SFAC C  
C      1  0.4346090000000  0.5389780000000  0.5140150000000 1.0
C      1  0.4328940000000  0.4936910000000  0.4723880000000 1.0
C      1  0.4458150000000  0.4896560000000  0.4948970000000 1.0
C      1  0.5594970000000  0.4682880000000  0.5686480000000 1.0
C      1  0.4769200000000  0.5511310000000  0.4028870000000 1.0
C      1  0.5343710000000  0.4045060000000  0.4527070000000 1.0
C      1  0.4077380000000  0.5462920000000  0.5051130000000 1.0
C      1  0.5964390000000  0.5272340000000  0.5159850000000 1.0
C      1  0.4471060000000  0.4463980000000  0.5651320000000 1.0
C      1  0.5644120000000  0.5396960000000  0.4454530000000 1.0
C      1  0.4681390000000  0.5698080000000  0.4238340000000 1.0
C      1  0.4528000000000  0.5607590000000  0.5072850000000 1.0
C      1  0.4119930000000  0.5183720000000  0.4363090000000 1.0
C      1  0.5204660000000  0.4646110000000  0.5282940000000 1.0
C      1  0.4722860000000  0.4387880000000  0.4224260000000 1.0
C      1  0.5517850000000  0.5931000000000  0.5217650000000 1.0
C      1  0.5581090000000  0.4321020000000  0.4715670000000 1.0
C      1  0.4290080000000  0.4188830000000  0.5138790000000 1.0
C      1  0.4338170000000  0.4376770000000  0.4567930000000 1.0
C      1  0.6048860000000  0.4750290000000  0.5222340000000 1.0
C      1  0.5444400000000  0.5227940000000  0.5426290000000 1.0
C      1  0.5476970000000  0.5672570000000  0.5653380000000 1.0
C      1  0.4981360000000  0.3715790000000  0.5141240000000 1.0
C      1  0.5041390000000  0.4619540000000  0.4565030000000 1.0
C      1  0.5516630000000  0.5154730000000  0.4321350000000 1.0
C      1  0.5171180000000  0.5396920000000  0.4732250000000 1.0
C      1  0.4926480000000  0.4115230000000  0.4702640000000 1.0
C      1  0.4040870000000  0.4982750000000  0.4796820000000 1.0
C      1  0.5271210000000  0.4235880000000  0.5566720000000 1.0
C      1  0.5487760000000  0.5934220000000  0.5509430000000 1.0
C      1  0.5224440000000  0.5103270000000  0.4870160000000 1.0
C      1  0.4429820000000  0.5592580000000  0.4356000000000 1.0
C      1  0.4611200000000  0.5135530000000  0.4931170000000 1.0
C      1  0.5868620000000  0.4874560000000  0.4394830000000 1.0
C      1  0.5402980000000  0.4470030000000  0.4221600000000 1.0
C      1  0.3996580000000  0.4749780000000  0.4605580000000 1.0
C      1  0.4687030000000  0.4412080000000  0.5446410000000 1.0
C      1  0.5484990000000  0.4283070000000  0.4428090000000 1.0
C      1  0.4116410000000  0.4384290000000  0.4993130000000 1.0
C      1  0.5900190000000  0.5313460000000  0.5441350000000 1.0
C      1  0.4493290000000  0.5234350000000  0.5760960000000 1.0
C      1  0.6006800000000  0.4627370000000  0.4796250000000 1.0
C      1  0.4154420000000  0.4398460000000  0.5288950000000 1.0
C      1  0.4756310000000  0.4839850000000  0.5974450000000 1.0
C      1  0.4875750000000  0.5434810000000  0.5515800000000 1.0
C      1  0.5699820000000  0.5459510000000  0.5649690000000 1.0
C      1  0.4444640000000  0.5859360000000  0.5501990000000 1.0
C      1  0.4567680000000  0.4829720000000  0.4031000000000 1.0
C      1  0.6017720000000  0.4782600000000  0.5507570000000 1.0
C      1  0.5790810000000  0.4689040000000  0.4610460000000 1.0
C      1  0.5491820000000  0.4998320000000  0.4923150000000 1.0
C      1  0.5033310000000  0.4638920000000  0.3964890000000 1.0
C      1  0.4563790000000  0.4068010000000  0.5112670000000 1.0
C      1  0.5302740000000  0.4877360000000  0.5251590000000 1.0
C      1  0.5035880000000  0.3935390000000  0.5247910000000 1.0
C      1  0.5036410000000  0.6012240000000  0.5453380000000 1.0
C      1  0.4936770000000  0.5766070000000  0.4357260000000 1.0
C      1  0.5150700000000  0.5369000000000  0.5871580000000 1.0
C      1  0.5673770000000  0.5687100000000  0.5161840000000 1.0
C      1  0.5554340000000  0.4739960000000  0.4794540000000 1.0
C      1  0.5344970000000  0.5876350000000  0.4771870000000 1.0
C      1  0.5017400000000  0.4243730000000  0.5712720000000 1.0
C      1  0.5057110000000  0.4052010000000  0.4450550000000 1.0
C      1  0.4488420000000  0.4951290000000  0.4487920000000 1.0
C      1  0.5581600000000  0.4900620000000  0.5176110000000 1.0
C      1  0.4971230000000  0.5206720000000  0.5687030000000 1.0
C      1  0.5779350000000  0.4280660000000  0.5163950000000 1.0
C      1  0.4377860000000  0.5567960000000  0.4660660000000 1.0
C      1  0.5143250000000  0.4907480000000  0.4589760000000 1.0
C      1  0.4325120000000  0.5362140000000  0.4226440000000 1.0
C      1  0.5168160000000  0.4886340000000  0.4005030000000 1.0
C      1  0.5417320000000  0.4781410000000  0.4182390000000 1.0
C      1  0.5361950000000  0.4506570000000  0.5620550000000 1.0
C      1  0.4661830000000  0.4025650000000  0.4829680000000 1.0
C      1  0.4103220000000  0.4887480000000  0.4359360000000 1.0
C      1  0.4750910000000  0.4006700000000  0.5331830000000 1.0
C      1  0.5900770000000  0.5433120000000  0.4904700000000 1.0
C      1  0.5299010000000  0.6008180000000  0.5034730000000 1.0
C      1  0.4541940000000  0.4702450000000  0.5806640000000 1.0
C      1  0.5895860000000  0.5048070000000  0.5554820000000 1.0
C      1  0.5162830000000  0.4397440000000  0.4088230000000 1.0
C      1  0.6070760000000  0.5009470000000  0.5079420000000 1.0
C      1  0.4981370000000  0.5120350000000  0.4448670000000 1.0
C      1  0.5182560000000  0.5102510000000  0.5395030000000 1.0
C      1  0.3949670000000  0.4856630000000  0.5307580000000 1.0
C      1  0.4084820000000  0.4988680000000  0.5135040000000 1.0
C      1  0.5287780000000  0.4883070000000  0.6036970000000 1.0
C      1  0.5006620000000  0.5127460000000  0.3998100000000 1.0
C      1  0.5145230000000  0.4676980000000  0.5540530000000 1.0
C      1  0.5682490000000  0.4951510000000  0.4185410000000 1.0
C      1  0.5052130000000  0.5145090000000  0.5125410000000 1.0
C      1  0.5527440000000  0.4127350000000  0.5081990000000 1.0
C      1  0.4672370000000  0.4826720000000  0.5580980000000 1.0
C      1  0.5036760000000  0.6039360000000  0.5158690000000 1.0
C      1  0.4550320000000  0.6000090000000  0.5272950000000 1.0
C      1  0.4545570000000  0.5315960000000  0.4026230000000 1.0
C      1  0.5488160000000  0.5460100000000  0.5251560000000 1.0
C      1  0.4881540000000  0.4628650000000  0.5615160000000 1.0
C      1  0.4959480000000  0.5769070000000  0.5629030000000 1.0
C      1  0.4522150000000  0.4689740000000  0.5139080000000 1.0
C      1  0.4020470000000  0.5244730000000  0.4627810000000 1.0
C      1  0.4773320000000  0.4673360000000  0.4611490000000 1.0
C      1  0.4597300000000  0.4492980000000  0.4470380000000 1.0
C      1  0.5303380000000  0.4135720000000  0.5277940000000 1.0
C      1  0.5026920000000  0.4723920000000  0.6020010000000 1.0
C      1  0.4752430000000  0.6048290000000  0.5059520000000 1.0
C      1  0.4705810000000  0.4471940000000  0.5153830000000 1.0
C      1  0.4890010000000  0.5819200000000  0.4636340000000 1.0
C      1  0.4967480000000  0.4227610000000  0.4229640000000 1.0
C      1  0.4809990000000  0.5555820000000  0.5027390000000 1.0
C      1  0.5041720000000  0.5414530000000  0.4057640000000 1.0
C      1  0.4817320000000  0.4983190000000  0.5078650000000 1.0
C      1  0.5355010000000  0.4935550000000  0.4417850000000 1.0
C      1  0.5491410000000  0.4057400000000  0.4797090000000 1.0
C      1  0.4746480000000  0.4600870000000  0.4024500000000 1.0
C      1  0.4582450000000  0.4911100000000  0.5323370000000 1.0
C      1  0.5352350000000  0.5185760000000  0.5978140000000 1.0
C      1  0.5964920000000  0.4516390000000  0.5061380000000 1.0
C      1  0.4983580000000  0.5429030000000  0.5207920000000 1.0
C      1  0.5205110000000  0.5626180000000  0.5745470000000 1.0
C      1  0.5873700000000  0.5322060000000  0.4633150000000 1.0
C      1  0.5274540000000  0.6138100000000  0.5582100000000 1.0
C      1  0.4329870000000  0.5124770000000  0.5287100000000 1.0
C      1  0.4952010000000  0.4440570000000  0.5019520000000 1.0
C      1  0.4603120000000  0.5470330000000  0.5627250000000 1.0
C      1  0.5312820000000  0.5598590000000  0.4867700000000 1.0
C      1  0.4177200000000  0.5697080000000  0.5512660000000 1.0
C      1  0.5773720000000  0.5689120000000  0.4889490000000 1.0
C      1  0.5245750000000  0.5548060000000  0.5139680000000 1.0
C      1  0.4698110000000  0.5166940000000  0.4492640000000 1.0
C      1  0.3999330000000  0.5565810000000  0.5321830000000 1.0
C      1  0.5862700000000  0.4556240000000  0.5617080000000 1.0
C      1  0.4658600000000  0.5752070000000  0.5678080000000 1.0
C      1  0.4923240000000  0.5563430000000  0.4772970000000 1.0
C      1  0.6094360000000  0.4912990000000  0.4805170000000 1.0
C      1  0.5173510000000  0.5335380000000  0.4444430000000 1.0
C      1  0.4954670000000  0.4480890000000  0.5877860000000 1.0
C      1  0.4096960000000  0.5423120000000  0.5560070000000 1.0
C      1  0.4825620000000  0.4803970000000  0.4852280000000 1.0
C      1  0.4737780000000  0.5114490000000  0.5858690000000 1.0
C      1  0.4589390000000  0.5322390000000  0.4713090000000 1.0
C      1  0.5451530000000  0.4502390000000  0.4895020000000 1.0
C      1  0.5810370000000  0.4372000000000  0.5414470000000 1.0
C      1  0.4759460000000  0.4176690000000  0.5573010000000 1.0
C      1  0.5174220000000  0.5584730000000  0.4280440000000 1.0
C      1  0.4248550000000  0.5155670000000  0.5590220000000 1.0
C      1  0.5486310000000  0.5630970000000  0.4457000000000 1.0
C      1  0.6000600000000  0.5069740000000  0.4576100000000 1.0
C      1  0.5023450000000  0.4385670000000  0.4750110000000 1.0
C      1  0.5241630000000  0.4429160000000  0.5104440000000 1.0
C      1  0.4465860000000  0.5794170000000  0.4853670000000 1.0
C      1  0.5616570000000  0.4985310000000  0.5459820000000 1.0
C      1  0.4121470000000  0.4843460000000  0.5527690000000 1.0
C      1  0.5563950000000  0.5301440000000  0.5839360000000 1.0
C      1  0.4465860000000  0.4175360000000  0.4708500000000 1.0
C      1  0.4680960000000  0.5971220000000  0.4783530000000 1.0
C      1  0.5602280000000  0.5795090000000  0.4658180000000 1.0
C      1  0.4092880000000  0.5485120000000  0.4760580000000 1.0
C      1  0.4236730000000  0.4571260000000  0.5514220000000 1.0
C      1  0.5539360000000  0.4752380000000  0.5985540000000 1.0
C      1  0.4704840000000  0.5080310000000  0.3977990000000 1.0
C      1  0.4373810000000  0.4823410000000  0.4257200000000 1.0
C      1  0.4119320000000  0.4511620000000  0.4725400000000 1.0
END
