TITL C-883730-8503-16 5040521.44549402 125000 -20828.921271271 0 0 142 (C1) n - 1
REM
REM in /home/nfs/bkarasulu/CARBON/AIRSS/Generating-Clusters/ReaxFF-fromJPCA2015/Units_Real/with-SteepDescent/Only-C1/SD-CG/Try1-3A/FIRE-CG
REM
REM
REM
REM
REM
REM ./C.cell (11c1c37f851c82e70ff6c80c92926a4b)
REM
REM compiler GCC version 9.2.1 20190827 (Red Hat 9.2.1-1)
REM options -cpp -mtune=generic -march=x86-64 -g -O0 -fpre-include=/usr/include/finclude/math-vector-fortran.h
REM seed 1006997408 -2065393604 1186821165 -942569336 1186969250 1340897828 825556161 43745364 -950708303 2078848156 835473811 -697686951 -1216468132 -1664605842 -1185812269 1793047585 -2034176894 -728735291 1530928665 -725761850 -1576738767 -947041316 -1226764260 441478141 -703554323 -1092338151 964013163 -334907250 -279159113 -1713979343 -1105507009 752304355 -353718098
REM
CELL 1.54180   50.00000   50.00000   50.00000   90.00000   90.00000   90.00000
LATT -1
SFAC C  
C      1  0.4865420000000  0.5950220000000  0.4993970000000 1.0
C      1  0.5456270000000  0.5219820000000  0.5767690000000 1.0
C      1  0.4710590000000  0.4114600000000  0.5556990000000 1.0
C      1  0.4940090000000  0.4514230000000  0.5829850000000 1.0
C      1  0.5029170000000  0.5502040000000  0.5802870000000 1.0
C      1  0.5168510000000  0.4072570000000  0.4800560000000 1.0
C      1  0.4896460000000  0.4468910000000  0.4700800000000 1.0
C      1  0.4158080000000  0.4575860000000  0.4731350000000 1.0
C      1  0.4134430000000  0.4940880000000  0.5097230000000 1.0
C      1  0.4675190000000  0.4637970000000  0.4659880000000 1.0
C      1  0.5528910000000  0.5695120000000  0.4459420000000 1.0
C      1  0.5591990000000  0.5288210000000  0.4652470000000 1.0
C      1  0.4844520000000  0.5507440000000  0.5275970000000 1.0
C      1  0.4903530000000  0.4992620000000  0.3884720000000 1.0
C      1  0.5940150000000  0.4683920000000  0.4725090000000 1.0
C      1  0.4973240000000  0.5495350000000  0.4825590000000 1.0
C      1  0.4254170000000  0.4364490000000  0.4897930000000 1.0
C      1  0.4291260000000  0.4448050000000  0.4489000000000 1.0
C      1  0.5399260000000  0.5536920000000  0.4252520000000 1.0
C      1  0.5186270000000  0.5092160000000  0.5058850000000 1.0
C      1  0.5456980000000  0.4108110000000  0.4828300000000 1.0
C      1  0.4681590000000  0.4081950000000  0.4995100000000 1.0
C      1  0.5153380000000  0.4344320000000  0.5419180000000 1.0
C      1  0.5859750000000  0.4953110000000  0.5048290000000 1.0
C      1  0.4524740000000  0.4268480000000  0.4505190000000 1.0
C      1  0.4308210000000  0.5671060000000  0.5035100000000 1.0
C      1  0.5054250000000  0.4278340000000  0.4316800000000 1.0
C      1  0.5099290000000  0.4669150000000  0.4784130000000 1.0
C      1  0.5182020000000  0.5300230000000  0.5265600000000 1.0
C      1  0.5496000000000  0.4531870000000  0.4877970000000 1.0
C      1  0.5156080000000  0.4950050000000  0.4035670000000 1.0
C      1  0.4701730000000  0.5907230000000  0.4759070000000 1.0
C      1  0.4762610000000  0.4314290000000  0.4274540000000 1.0
C      1  0.4475080000000  0.4676300000000  0.4423420000000 1.0
C      1  0.4317310000000  0.5477790000000  0.5257280000000 1.0
C      1  0.4784070000000  0.4510930000000  0.4086600000000 1.0
C      1  0.4973060000000  0.4770690000000  0.5973370000000 1.0
C      1  0.5329730000000  0.4107350000000  0.5392920000000 1.0
C      1  0.4956530000000  0.5098140000000  0.4673830000000 1.0
C      1  0.4104730000000  0.4859630000000  0.4823960000000 1.0
C      1  0.4625270000000  0.5164600000000  0.5042510000000 1.0
C      1  0.5140510000000  0.5995540000000  0.4478270000000 1.0
C      1  0.5735960000000  0.5507690000000  0.4556710000000 1.0
C      1  0.5683430000000  0.4446630000000  0.5464390000000 1.0
C      1  0.4236600000000  0.4712710000000  0.5292790000000 1.0
C      1  0.4861640000000  0.5797380000000  0.5289280000000 1.0
C      1  0.5621700000000  0.5015300000000  0.5226650000000 1.0
C      1  0.4223310000000  0.4676490000000  0.5592770000000 1.0
C      1  0.4808830000000  0.5516520000000  0.4560130000000 1.0
C      1  0.4508450000000  0.4205930000000  0.4788420000000 1.0
C      1  0.5459790000000  0.5639200000000  0.5525550000000 1.0
C      1  0.5394950000000  0.6011790000000  0.4883720000000 1.0
C      1  0.4622830000000  0.5366890000000  0.4157380000000 1.0
C      1  0.5767370000000  0.5238360000000  0.4432330000000 1.0
C      1  0.5969730000000  0.5231700000000  0.5051310000000 1.0
C      1  0.5945640000000  0.4680610000000  0.5054040000000 1.0
C      1  0.4675360000000  0.5018810000000  0.5280990000000 1.0
C      1  0.5364620000000  0.4949810000000  0.4479050000000 1.0
C      1  0.4329820000000  0.4913060000000  0.4395370000000 1.0
C      1  0.4589060000000  0.4084660000000  0.5275820000000 1.0
C      1  0.5602980000000  0.4278790000000  0.5017140000000 1.0
C      1  0.4970720000000  0.4904030000000  0.4883290000000 1.0
C      1  0.4812940000000  0.5304510000000  0.5849600000000 1.0
C      1  0.5468120000000  0.4658330000000  0.5913240000000 1.0
C      1  0.4462700000000  0.5733920000000  0.4785340000000 1.0
C      1  0.4817290000000  0.4721360000000  0.3915780000000 1.0
C      1  0.4664930000000  0.5755990000000  0.5526630000000 1.0
C      1  0.5695010000000  0.5339330000000  0.5125800000000 1.0
C      1  0.5557340000000  0.4823310000000  0.4683710000000 1.0
C      1  0.5143200000000  0.5630770000000  0.5046310000000 1.0
C      1  0.4362150000000  0.5130410000000  0.5814900000000 1.0
C      1  0.4042480000000  0.5094820000000  0.4635430000000 1.0
C      1  0.5844140000000  0.4652000000000  0.5329670000000 1.0
C      1  0.4544420000000  0.5343280000000  0.5726540000000 1.0
C      1  0.4571930000000  0.4936150000000  0.5865810000000 1.0
C      1  0.4877890000000  0.5457960000000  0.4287620000000 1.0
C      1  0.5249980000000  0.4607140000000  0.5031690000000 1.0
C      1  0.5008540000000  0.5858920000000  0.4283350000000 1.0
C      1  0.5049380000000  0.5913170000000  0.5503570000000 1.0
C      1  0.4639970000000  0.4757700000000  0.5636150000000 1.0
C      1  0.5120980000000  0.3949360000000  0.5262390000000 1.0
C      1  0.5314300000000  0.5470330000000  0.5737040000000 1.0
C      1  0.4152510000000  0.4945290000000  0.5691340000000 1.0
C      1  0.5719740000000  0.5536980000000  0.5379200000000 1.0
C      1  0.5110540000000  0.6026150000000  0.4894840000000 1.0
C      1  0.5499220000000  0.4478240000000  0.5704500000000 1.0
C      1  0.4065760000000  0.5329750000000  0.4771690000000 1.0
C      1  0.5546150000000  0.5280970000000  0.4216560000000 1.0
C      1  0.4861890000000  0.5961750000000  0.4515520000000 1.0
C      1  0.4455530000000  0.4542100000000  0.5716970000000 1.0
C      1  0.4905440000000  0.5751150000000  0.5695570000000 1.0
C      1  0.5002830000000  0.4209100000000  0.4601900000000 1.0
C      1  0.4823190000000  0.5029860000000  0.5967190000000 1.0
C      1  0.5725550000000  0.5098310000000  0.5693140000000 1.0
C      1  0.6083340000000  0.5391250000000  0.5250250000000 1.0
C      1  0.4704420000000  0.4773090000000  0.4904650000000 1.0
C      1  0.5316230000000  0.5543700000000  0.5249510000000 1.0
C      1  0.5164020000000  0.4898000000000  0.5471170000000 1.0
C      1  0.4732000000000  0.4569550000000  0.5176700000000 1.0
C      1  0.5566190000000  0.4398980000000  0.4398620000000 1.0
C      1  0.4749810000000  0.4966340000000  0.4303260000000 1.0
C      1  0.4773550000000  0.5408680000000  0.5025960000000 1.0
C      1  0.5337960000000  0.5909960000000  0.5434900000000 1.0
C      1  0.4521240000000  0.4368570000000  0.5245430000000 1.0
C      1  0.4695530000000  0.4364720000000  0.5734360000000 1.0
C      1  0.4963510000000  0.5310360000000  0.5433450000000 1.0
C      1  0.4989830000000  0.4117640000000  0.5035230000000 1.0
C      1  0.4556890000000  0.4996620000000  0.4814480000000 1.0
C      1  0.5190210000000  0.4451880000000  0.5685750000000 1.0
C      1  0.5258390000000  0.4831410000000  0.5992540000000 1.0
C      1  0.4477730000000  0.5532650000000  0.5504720000000 1.0
C      1  0.5796990000000  0.4517040000000  0.4536610000000 1.0
C      1  0.5405950000000  0.5935870000000  0.5161390000000 1.0
C      1  0.4937160000000  0.3979110000000  0.5469820000000 1.0
C      1  0.4246410000000  0.4435720000000  0.5177840000000 1.0
C      1  0.5260350000000  0.5308150000000  0.4858540000000 1.0
C      1  0.4681790000000  0.5098220000000  0.4048920000000 1.0
C      1  0.5805270000000  0.4924960000000  0.4604150000000 1.0
C      1  0.4112240000000  0.5119230000000  0.5478060000000 1.0
C      1  0.5588810000000  0.4227500000000  0.5302060000000 1.0
C      1  0.4143120000000  0.5222150000000  0.5225540000000 1.0
C      1  0.5117770000000  0.5602560000000  0.4195020000000 1.0
C      1  0.5216920000000  0.5187130000000  0.4600580000000 1.0
C      1  0.5378540000000  0.5898370000000  0.4600020000000 1.0
C      1  0.5397330000000  0.5044900000000  0.4173420000000 1.0
C      1  0.5783560000000  0.4932520000000  0.5460970000000 1.0
C      1  0.5524450000000  0.5409350000000  0.4887840000000 1.0
C      1  0.5023860000000  0.4434530000000  0.5172670000000 1.0
C      1  0.5184540000000  0.4703870000000  0.4450110000000 1.0
C      1  0.4896020000000  0.5029030000000  0.5466510000000 1.0
C      1  0.4520390000000  0.5534500000000  0.4571900000000 1.0
C      1  0.5980810000000  0.5546520000000  0.5426310000000 1.0
C      1  0.4401730000000  0.5387560000000  0.4342200000000 1.0
C      1  0.5325020000000  0.4868630000000  0.5221460000000 1.0
C      1  0.4110450000000  0.5525260000000  0.4894550000000 1.0
C      1  0.4691640000000  0.5083670000000  0.4565480000000 1.0
C      1  0.5000600000000  0.4836140000000  0.4261840000000 1.0
C      1  0.5288480000000  0.4462480000000  0.4300690000000 1.0
C      1  0.5435110000000  0.4345710000000  0.4656920000000 1.0
C      1  0.5287800000000  0.4976450000000  0.5726190000000 1.0
C      1  0.4213010000000  0.5154060000000  0.4383630000000 1.0
C      1  0.4583790000000  0.4770140000000  0.5341810000000 1.0
END
