TITL C-884134-5972-134 -4.64102600265874 125000 -10923.1546513478 0 0 74 (C1) n - 1
REM
REM in /home/nfs/bkarasulu/CARBON/AIRSS/Generating-Clusters/ReaxFF-fromJPCA2015/Units_Real/with-SteepDescent/Only-C1/SD-CG/Try1-3A/FIRE-CG
REM
REM
REM
REM
REM
REM ./C.cell (11c1c37f851c82e70ff6c80c92926a4b)
REM
REM compiler GCC version 9.2.1 20190827 (Red Hat 9.2.1-1)
REM options -cpp -mtune=generic -march=x86-64 -g -O0 -fpre-include=/usr/include/finclude/math-vector-fortran.h
REM seed 504524963 1023158044 406975376 -759422824 -232323779 -1704005729 -35332298 1687348430 1203914277 1741997510 30347898 -1322658122 1282044386 1784180923 -54404470 -495793163 1968858680 -146890483 -1791592955 80483242 -1830411353 1573363842 1224734196 -91532696 705129499 804642399 1977120613 -1076426067 -1034711905 -1039683385 817018978 1880916605 -1785714248
REM
CELL 1.54180   50.00000   50.00000   50.00000   90.00000   90.00000   90.00000
LATT -1
SFAC C  
C      1  0.5057890000000  0.4695330000000  0.5879600000000 1.0
C      1  0.5189860000000  0.4655240000000  0.5088990000000 1.0
C      1  0.4612580000000  0.4403970000000  0.5009870000000 1.0
C      1  0.4265420000000  0.4811940000000  0.4523210000000 1.0
C      1  0.4609050000000  0.5085740000000  0.4266770000000 1.0
C      1  0.5061320000000  0.5219700000000  0.5634000000000 1.0
C      1  0.4383910000000  0.4566860000000  0.4956950000000 1.0
C      1  0.5319490000000  0.5288090000000  0.4348220000000 1.0
C      1  0.5361390000000  0.5631740000000  0.5118810000000 1.0
C      1  0.4689750000000  0.4390220000000  0.5290630000000 1.0
C      1  0.4869460000000  0.4458040000000  0.5498060000000 1.0
C      1  0.5544430000000  0.4535180000000  0.4742150000000 1.0
C      1  0.5594270000000  0.4494690000000  0.5400050000000 1.0
C      1  0.4640990000000  0.5407510000000  0.5424820000000 1.0
C      1  0.5250860000000  0.5781680000000  0.4895920000000 1.0
C      1  0.4285450000000  0.4559150000000  0.4673070000000 1.0
C      1  0.4405540000000  0.5000580000000  0.5633820000000 1.0
C      1  0.5307580000000  0.4470090000000  0.5309440000000 1.0
C      1  0.4137120000000  0.5038990000000  0.4687770000000 1.0
C      1  0.5430160000000  0.5126850000000  0.5371020000000 1.0
C      1  0.4852910000000  0.5130890000000  0.4404350000000 1.0
C      1  0.4815240000000  0.4345030000000  0.4786990000000 1.0
C      1  0.4763720000000  0.4661480000000  0.5350600000000 1.0
C      1  0.5653100000000  0.5368490000000  0.4740750000000 1.0
C      1  0.4433550000000  0.5258890000000  0.5256930000000 1.0
C      1  0.5679450000000  0.4988620000000  0.5436770000000 1.0
C      1  0.4816200000000  0.5208480000000  0.5767980000000 1.0
C      1  0.4407670000000  0.4376950000000  0.4464370000000 1.0
C      1  0.5250870000000  0.4487010000000  0.4780410000000 1.0
C      1  0.5856580000000  0.5065820000000  0.5205370000000 1.0
C      1  0.4950230000000  0.5614990000000  0.4644190000000 1.0
C      1  0.4853380000000  0.4520190000000  0.4536300000000 1.0
C      1  0.5581060000000  0.4659860000000  0.4481710000000 1.0
C      1  0.5391320000000  0.4837580000000  0.5026480000000 1.0
C      1  0.4875960000000  0.5726610000000  0.5141250000000 1.0
C      1  0.5466420000000  0.5450650000000  0.4536280000000 1.0
C      1  0.5589800000000  0.4740880000000  0.5568580000000 1.0
C      1  0.4549840000000  0.5253000000000  0.5697480000000 1.0
C      1  0.4482150000000  0.4831640000000  0.4336210000000 1.0
C      1  0.5614320000000  0.5487610000000  0.5016980000000 1.0
C      1  0.4347130000000  0.4994470000000  0.5341020000000 1.0
C      1  0.5236810000000  0.5518100000000  0.4719970000000 1.0
C      1  0.5321300000000  0.4737670000000  0.4358490000000 1.0
C      1  0.5120510000000  0.4615550000000  0.4534070000000 1.0
C      1  0.5186870000000  0.5248740000000  0.4895910000000 1.0
C      1  0.4835360000000  0.5223470000000  0.4156950000000 1.0
C      1  0.5282220000000  0.5033060000000  0.5602460000000 1.0
C      1  0.4961520000000  0.5808190000000  0.4871250000000 1.0
C      1  0.5030310000000  0.5348630000000  0.4333680000000 1.0
C      1  0.5101500000000  0.5570430000000  0.5242920000000 1.0
C      1  0.4762530000000  0.5408740000000  0.4726310000000 1.0
C      1  0.4808580000000  0.4754240000000  0.5881750000000 1.0
C      1  0.5633630000000  0.4719730000000  0.4947310000000 1.0
C      1  0.5355990000000  0.5106770000000  0.5084330000000 1.0
C      1  0.5074200000000  0.4227980000000  0.4838010000000 1.0
C      1  0.5827590000000  0.4940450000000  0.4942690000000 1.0
C      1  0.5148440000000  0.4489540000000  0.5544890000000 1.0
C      1  0.5669940000000  0.4945110000000  0.4471940000000 1.0
C      1  0.4909140000000  0.5196860000000  0.4874670000000 1.0
C      1  0.5764510000000  0.5100190000000  0.4705540000000 1.0
C      1  0.5283750000000  0.4729440000000  0.5704190000000 1.0
C      1  0.4416910000000  0.5490040000000  0.5072370000000 1.0
C      1  0.4957400000000  0.5320660000000  0.5353630000000 1.0
C      1  0.4618570000000  0.4566530000000  0.4362280000000 1.0
C      1  0.4577510000000  0.4854630000000  0.5805710000000 1.0
C      1  0.4941360000000  0.4810260000000  0.5180610000000 1.0
C      1  0.5821860000000  0.5363980000000  0.5187260000000 1.0
C      1  0.4270960000000  0.5286040000000  0.4732920000000 1.0
C      1  0.4473720000000  0.5473960000000  0.4775420000000 1.0
C      1  0.4262600000000  0.4775550000000  0.5147650000000 1.0
C      1  0.4607360000000  0.5640980000000  0.5237040000000 1.0
C      1  0.4171190000000  0.4954130000000  0.4959450000000 1.0
C      1  0.5425920000000  0.5017330000000  0.4322760000000 1.0
C      1  0.4892520000000  0.5092270000000  0.5151430000000 1.0
END
