TITL C-884134-5972-169 6.62717255816446 125000 -23622.6885978784 0 0 156 (C1) n - 1
REM
REM in /home/nfs/bkarasulu/CARBON/AIRSS/Generating-Clusters/ReaxFF-fromJPCA2015/Units_Real/with-SteepDescent/Only-C1/SD-CG/Try1-3A/FIRE-CG
REM
REM
REM
REM
REM
REM ./C.cell (11c1c37f851c82e70ff6c80c92926a4b)
REM
REM compiler GCC version 9.2.1 20190827 (Red Hat 9.2.1-1)
REM options -cpp -mtune=generic -march=x86-64 -g -O0 -fpre-include=/usr/include/finclude/math-vector-fortran.h
REM seed 402546542 -204976174 -1870942544 196869840 1662112827 140650443 801526680 1634184463 -1431437458 1194391942 -1120093926 1674574291 -1757225123 -147455470 -1219918563 -1730591443 1982534652 -477563380 -961546016 1131760091 -93256405 534921050 545403546 2086500720 -1678631721 623440983 -1651801726 30153125 -889418742 854685390 1259351897 -170327910 -2020426390
REM
CELL 1.54180   50.00000   50.00000   50.00000   90.00000   90.00000   90.00000
LATT -1
SFAC C  
C      1  0.5408850000000  0.4691620000000  0.4170880000000 1.0
C      1  0.4177580000000  0.5742040000000  0.5431610000000 1.0
C      1  0.5966550000000  0.5370720000000  0.5646870000000 1.0
C      1  0.4849570000000  0.4914570000000  0.4125750000000 1.0
C      1  0.4830490000000  0.5871980000000  0.4895330000000 1.0
C      1  0.6040150000000  0.4549050000000  0.4938810000000 1.0
C      1  0.5055790000000  0.4552790000000  0.3958820000000 1.0
C      1  0.4619250000000  0.5704280000000  0.4817390000000 1.0
C      1  0.5520840000000  0.5016350000000  0.5794900000000 1.0
C      1  0.3975460000000  0.5020340000000  0.4588980000000 1.0
C      1  0.4975750000000  0.4044160000000  0.4561650000000 1.0
C      1  0.3921970000000  0.4777010000000  0.4454310000000 1.0
C      1  0.4360770000000  0.5875040000000  0.5241750000000 1.0
C      1  0.5268500000000  0.4017510000000  0.4528450000000 1.0
C      1  0.4588520000000  0.5363230000000  0.5892060000000 1.0
C      1  0.4635070000000  0.5947610000000  0.5348870000000 1.0
C      1  0.4784400000000  0.4564760000000  0.5195770000000 1.0
C      1  0.4561130000000  0.4874100000000  0.5890550000000 1.0
C      1  0.5426690000000  0.5190670000000  0.6035160000000 1.0
C      1  0.4001070000000  0.4593190000000  0.5054770000000 1.0
C      1  0.4239820000000  0.4659170000000  0.5515370000000 1.0
C      1  0.4488520000000  0.4541900000000  0.5651690000000 1.0
C      1  0.5026910000000  0.3894220000000  0.5086310000000 1.0
C      1  0.4763650000000  0.5038840000000  0.4387580000000 1.0
C      1  0.4517060000000  0.4616480000000  0.4816430000000 1.0
C      1  0.4622310000000  0.3976070000000  0.5004030000000 1.0
C      1  0.5243970000000  0.5446020000000  0.5222180000000 1.0
C      1  0.5123360000000  0.5348300000000  0.4050840000000 1.0
C      1  0.5239620000000  0.5866260000000  0.5702370000000 1.0
C      1  0.4839110000000  0.5255310000000  0.5987170000000 1.0
C      1  0.5032250000000  0.4114940000000  0.5598660000000 1.0
C      1  0.4347400000000  0.5555350000000  0.4517480000000 1.0
C      1  0.5217270000000  0.4501040000000  0.5368610000000 1.0
C      1  0.4509440000000  0.5065910000000  0.5396370000000 1.0
C      1  0.4681160000000  0.5157290000000  0.4832310000000 1.0
C      1  0.5098300000000  0.5474490000000  0.5475190000000 1.0
C      1  0.5307510000000  0.4068270000000  0.5484910000000 1.0
C      1  0.4505930000000  0.5583900000000  0.5720480000000 1.0
C      1  0.5426830000000  0.5659090000000  0.5301770000000 1.0
C      1  0.5560400000000  0.5845690000000  0.4869390000000 1.0
C      1  0.5277910000000  0.5213990000000  0.4885020000000 1.0
C      1  0.5374930000000  0.4759520000000  0.4673920000000 1.0
C      1  0.4681910000000  0.5758190000000  0.5566620000000 1.0
C      1  0.5645110000000  0.5149920000000  0.4206990000000 1.0
C      1  0.5259680000000  0.5066680000000  0.5676190000000 1.0
C      1  0.4484030000000  0.5341520000000  0.4377680000000 1.0
C      1  0.5897200000000  0.4657740000000  0.4702570000000 1.0
C      1  0.4925570000000  0.4226380000000  0.4317440000000 1.0
C      1  0.4832680000000  0.5736280000000  0.4329910000000 1.0
C      1  0.4207050000000  0.4532970000000  0.4308280000000 1.0
C      1  0.5758940000000  0.5536620000000  0.4472770000000 1.0
C      1  0.4937800000000  0.4564690000000  0.5431120000000 1.0
C      1  0.5396840000000  0.5148270000000  0.4386870000000 1.0
C      1  0.5544150000000  0.4253780000000  0.5491590000000 1.0
C      1  0.4157960000000  0.5510170000000  0.4749940000000 1.0
C      1  0.4369230000000  0.4119280000000  0.5051190000000 1.0
C      1  0.4420550000000  0.5052190000000  0.4385740000000 1.0
C      1  0.4798100000000  0.4956960000000  0.6013030000000 1.0
C      1  0.4761710000000  0.4100870000000  0.5490370000000 1.0
C      1  0.3876710000000  0.5079200000000  0.4858090000000 1.0
C      1  0.4450490000000  0.4393720000000  0.4378750000000 1.0
C      1  0.5077190000000  0.5878590000000  0.4449140000000 1.0
C      1  0.5962440000000  0.5765270000000  0.5261710000000 1.0
C      1  0.4946490000000  0.4594520000000  0.4950590000000 1.0
C      1  0.6010060000000  0.4850160000000  0.4489940000000 1.0
C      1  0.5441240000000  0.4704300000000  0.5792610000000 1.0
C      1  0.5197300000000  0.4960470000000  0.5251480000000 1.0
C      1  0.4038160000000  0.5517140000000  0.5406480000000 1.0
C      1  0.5155450000000  0.5986000000000  0.5176960000000 1.0
C      1  0.5658300000000  0.4751330000000  0.4827640000000 1.0
C      1  0.4876310000000  0.3983840000000  0.4842260000000 1.0
C      1  0.5381970000000  0.5456930000000  0.4106880000000 1.0
C      1  0.5480820000000  0.4553810000000  0.5514410000000 1.0
C      1  0.6093520000000  0.4983740000000  0.5237770000000 1.0
C      1  0.4250060000000  0.4238640000000  0.4814810000000 1.0
C      1  0.4860390000000  0.5971890000000  0.5155790000000 1.0
C      1  0.3960440000000  0.5036940000000  0.5295420000000 1.0
C      1  0.6202720000000  0.4994580000000  0.4836630000000 1.0
C      1  0.4034400000000  0.4434210000000  0.4815230000000 1.0
C      1  0.5059050000000  0.5787690000000  0.4751540000000 1.0
C      1  0.4709280000000  0.4401990000000  0.4241300000000 1.0
C      1  0.5349710000000  0.5828050000000  0.4461190000000 1.0
C      1  0.5302910000000  0.5338190000000  0.6157070000000 1.0
C      1  0.5316010000000  0.5909640000000  0.5411840000000 1.0
C      1  0.5285290000000  0.5894720000000  0.4932720000000 1.0
C      1  0.5192220000000  0.4674840000000  0.5882830000000 1.0
C      1  0.4719820000000  0.5417760000000  0.4943410000000 1.0
C      1  0.4795920000000  0.5332290000000  0.4406540000000 1.0
C      1  0.5694250000000  0.4863420000000  0.5092220000000 1.0
C      1  0.4782570000000  0.5161160000000  0.5398960000000 1.0
C      1  0.4406820000000  0.5073370000000  0.4890680000000 1.0
C      1  0.4290110000000  0.5154340000000  0.5596450000000 1.0
C      1  0.4340540000000  0.5803420000000  0.4961210000000 1.0
C      1  0.5287050000000  0.3942550000000  0.5216010000000 1.0
C      1  0.5797710000000  0.5123020000000  0.5601700000000 1.0
C      1  0.4418820000000  0.5119530000000  0.5862690000000 1.0
C      1  0.5077990000000  0.5425640000000  0.5997190000000 1.0
C      1  0.5900810000000  0.5628060000000  0.5518940000000 1.0
C      1  0.5227370000000  0.4796350000000  0.3962110000000 1.0
C      1  0.3902580000000  0.4873400000000  0.5063340000000 1.0
C      1  0.4115710000000  0.4925760000000  0.5520400000000 1.0
C      1  0.4237110000000  0.4826340000000  0.4195350000000 1.0
C      1  0.5893610000000  0.4377090000000  0.5103970000000 1.0
C      1  0.5911640000000  0.5387240000000  0.4925660000000 1.0
C      1  0.6201760000000  0.4801840000000  0.5037820000000 1.0
C      1  0.4319040000000  0.4259390000000  0.5305280000000 1.0
C      1  0.4273810000000  0.5019800000000  0.4638530000000 1.0
C      1  0.4893900000000  0.5492170000000  0.4175700000000 1.0
C      1  0.5922500000000  0.4879010000000  0.5451000000000 1.0
C      1  0.5596560000000  0.5765390000000  0.4577220000000 1.0
C      1  0.5399240000000  0.4864520000000  0.4400960000000 1.0
C      1  0.4214310000000  0.4874660000000  0.3947700000000 1.0
C      1  0.4420910000000  0.4926510000000  0.5152660000000 1.0
C      1  0.5407830000000  0.4285570000000  0.4489860000000 1.0
C      1  0.3997210000000  0.4516440000000  0.4522090000000 1.0
C      1  0.4773310000000  0.4671510000000  0.4705520000000 1.0
C      1  0.5298350000000  0.4476310000000  0.4674460000000 1.0
C      1  0.5166660000000  0.4962990000000  0.4800180000000 1.0
C      1  0.5287420000000  0.5332040000000  0.4614050000000 1.0
C      1  0.5471900000000  0.4132060000000  0.5095670000000 1.0
C      1  0.5075700000000  0.5044870000000  0.4005190000000 1.0
C      1  0.5365750000000  0.5191130000000  0.5161670000000 1.0
C      1  0.4856520000000  0.4953230000000  0.4666220000000 1.0
C      1  0.5286870000000  0.4367640000000  0.5121050000000 1.0
C      1  0.5868350000000  0.5155810000000  0.5116370000000 1.0
C      1  0.4779520000000  0.3924770000000  0.5246730000000 1.0
C      1  0.5718450000000  0.4208670000000  0.5252370000000 1.0
C      1  0.5044700000000  0.5487160000000  0.4594120000000 1.0
C      1  0.4920890000000  0.4683540000000  0.5937440000000 1.0
C      1  0.5162590000000  0.5582480000000  0.5742200000000 1.0
C      1  0.4595930000000  0.5720610000000  0.4511910000000 1.0
C      1  0.5153550000000  0.4415350000000  0.4894760000000 1.0
C      1  0.5918960000000  0.5361620000000  0.4641280000000 1.0
C      1  0.5642080000000  0.5523540000000  0.5422560000000 1.0
C      1  0.3981070000000  0.5350400000000  0.4924670000000 1.0
C      1  0.5800380000000  0.5861640000000  0.5039100000000 1.0
C      1  0.4141960000000  0.4494460000000  0.5298730000000 1.0
C      1  0.5392810000000  0.4402730000000  0.4220740000000 1.0
C      1  0.5044840000000  0.5022450000000  0.5495170000000 1.0
C      1  0.4481560000000  0.4365060000000  0.4673420000000 1.0
C      1  0.5981720000000  0.5647020000000  0.5015220000000 1.0
C      1  0.5092620000000  0.4840870000000  0.5027620000000 1.0
C      1  0.4526760000000  0.4661210000000  0.5110330000000 1.0
C      1  0.5698280000000  0.4732270000000  0.5344170000000 1.0
C      1  0.4872950000000  0.5615950000000  0.5390850000000 1.0
C      1  0.3985580000000  0.5315740000000  0.5218570000000 1.0
C      1  0.4228770000000  0.5528170000000  0.5626240000000 1.0
C      1  0.5838860000000  0.4985070000000  0.4323750000000 1.0
C      1  0.4784180000000  0.5393090000000  0.5217270000000 1.0
C      1  0.5129910000000  0.4320420000000  0.4125750000000 1.0
C      1  0.4802150000000  0.4627410000000  0.4068620000000 1.0
C      1  0.5666140000000  0.5244360000000  0.5335140000000 1.0
C      1  0.5651260000000  0.5454660000000  0.4207250000000 1.0
C      1  0.4516500000000  0.4282020000000  0.5517130000000 1.0
C      1  0.4776630000000  0.4614540000000  0.5677110000000 1.0
C      1  0.6110540000000  0.5123160000000  0.4603550000000 1.0
END
