TITL C-883740-3686-462 16.8350441971287 125000 -12856.5846188465 0 0 87 (C1) n - 1
REM
REM in /home/nfs/bkarasulu/CARBON/AIRSS/Generating-Clusters/ReaxFF-fromJPCA2015/Units_Real/with-SteepDescent/Only-C1/SD-CG/Try1-3A/FIRE-CG
REM
REM
REM
REM
REM
REM ./C.cell (11c1c37f851c82e70ff6c80c92926a4b)
REM
REM compiler GCC version 9.2.1 20190827 (Red Hat 9.2.1-1)
REM options -cpp -mtune=generic -march=x86-64 -g -O0 -fpre-include=/usr/include/finclude/math-vector-fortran.h
REM seed 1319221910 -1004195986 548369301 1923299186 1869121454 -1623056945 369990053 1391834717 1767679299 -725372350 1284775312 -1712726289 39165532 936505193 -1428053561 634016684 1348241957 -1914675205 -686919029 -1269372224 1607362021 326590754 -92958025 1638141703 252373108 835419862 1759479984 315071902 459006209 -949284933 1633487851 1318716827 250972877
REM
CELL 1.54180   50.00000   50.00000   50.00000   90.00000   90.00000   90.00000
LATT -1
SFAC C  
C      1  0.5673820000000  0.4483080000000  0.4754680000000 1.0
C      1  0.4759890000000  0.5256720000000  0.5772020000000 1.0
C      1  0.5535890000000  0.5049060000000  0.4306940000000 1.0
C      1  0.4847920000000  0.4362330000000  0.5492850000000 1.0
C      1  0.5488660000000  0.4743960000000  0.5657920000000 1.0
C      1  0.4631060000000  0.4570000000000  0.5531820000000 1.0
C      1  0.4533750000000  0.5771240000000  0.4743210000000 1.0
C      1  0.5705280000000  0.5470510000000  0.5120100000000 1.0
C      1  0.4261600000000  0.5103880000000  0.4563210000000 1.0
C      1  0.5660100000000  0.4898580000000  0.4758730000000 1.0
C      1  0.4652850000000  0.5901490000000  0.4969740000000 1.0
C      1  0.4676990000000  0.4625140000000  0.5042210000000 1.0
C      1  0.4729910000000  0.5043500000000  0.4840070000000 1.0
C      1  0.4389070000000  0.5362000000000  0.4508840000000 1.0
C      1  0.4830260000000  0.5882800000000  0.5150880000000 1.0
C      1  0.5155520000000  0.4739040000000  0.5371190000000 1.0
C      1  0.5353260000000  0.4967860000000  0.5498600000000 1.0
C      1  0.4842400000000  0.4976340000000  0.5807610000000 1.0
C      1  0.5244880000000  0.5390270000000  0.5698250000000 1.0
C      1  0.5296460000000  0.5211290000000  0.4899840000000 1.0
C      1  0.4594480000000  0.5526010000000  0.5414350000000 1.0
C      1  0.4493800000000  0.4403530000000  0.4647750000000 1.0
C      1  0.4535420000000  0.5388080000000  0.5153430000000 1.0
C      1  0.5398950000000  0.4230960000000  0.5034550000000 1.0
C      1  0.5635210000000  0.5535740000000  0.4560120000000 1.0
C      1  0.5026730000000  0.5794740000000  0.5336910000000 1.0
C      1  0.4533240000000  0.4626750000000  0.4447930000000 1.0
C      1  0.4849020000000  0.4603190000000  0.4406410000000 1.0
C      1  0.5294460000000  0.5008100000000  0.5103170000000 1.0
C      1  0.4313810000000  0.4474690000000  0.4871560000000 1.0
C      1  0.4262410000000  0.4762720000000  0.4851630000000 1.0
C      1  0.5237470000000  0.4978160000000  0.4287780000000 1.0
C      1  0.5548350000000  0.4967850000000  0.5267330000000 1.0
C      1  0.4286020000000  0.5371520000000  0.4972680000000 1.0
C      1  0.4872820000000  0.4305240000000  0.4473550000000 1.0
C      1  0.4907460000000  0.5605500000000  0.4857580000000 1.0
C      1  0.4554540000000  0.5288770000000  0.5568330000000 1.0
C      1  0.4725150000000  0.4236440000000  0.4714010000000 1.0
C      1  0.4939870000000  0.4664720000000  0.4928780000000 1.0
C      1  0.4461000000000  0.4441770000000  0.5121860000000 1.0
C      1  0.5033380000000  0.4486530000000  0.5671820000000 1.0
C      1  0.5353260000000  0.5632540000000  0.4548690000000 1.0
C      1  0.5124110000000  0.4920330000000  0.5871090000000 1.0
C      1  0.5334700000000  0.4509530000000  0.4374710000000 1.0
C      1  0.5565990000000  0.5615150000000  0.5326200000000 1.0
C      1  0.5150550000000  0.5473070000000  0.4933760000000 1.0
C      1  0.5529840000000  0.4682330000000  0.4900340000000 1.0
C      1  0.5598890000000  0.4451660000000  0.5038280000000 1.0
C      1  0.5592110000000  0.5164370000000  0.4867400000000 1.0
C      1  0.5601590000000  0.4562690000000  0.4478140000000 1.0
C      1  0.5080880000000  0.5184550000000  0.4431380000000 1.0
C      1  0.4699440000000  0.5159860000000  0.5101430000000 1.0
C      1  0.5007590000000  0.4659690000000  0.4652270000000 1.0
C      1  0.4819200000000  0.5140750000000  0.4564840000000 1.0
C      1  0.4322400000000  0.4884030000000  0.5297780000000 1.0
C      1  0.4394540000000  0.4607790000000  0.5352350000000 1.0
C      1  0.4806470000000  0.5725700000000  0.4619220000000 1.0
C      1  0.4173840000000  0.5158150000000  0.4844240000000 1.0
C      1  0.4387450000000  0.4864010000000  0.4472860000000 1.0
C      1  0.4666460000000  0.5332060000000  0.4412910000000 1.0
C      1  0.4185360000000  0.4975030000000  0.5052690000000 1.0
C      1  0.5152020000000  0.4365770000000  0.4576780000000 1.0
C      1  0.5179730000000  0.4212680000000  0.4849540000000 1.0
C      1  0.4865870000000  0.5551300000000  0.4381070000000 1.0
C      1  0.4557930000000  0.4799780000000  0.4857120000000 1.0
C      1  0.5377590000000  0.5570600000000  0.5513550000000 1.0
C      1  0.5634900000000  0.5599250000000  0.4863340000000 1.0
C      1  0.5151560000000  0.4705270000000  0.4269070000000 1.0
C      1  0.5710330000000  0.5180110000000  0.5132930000000 1.0
C      1  0.5233660000000  0.4225720000000  0.5273320000000 1.0
C      1  0.4910190000000  0.4195830000000  0.4952830000000 1.0
C      1  0.5232220000000  0.4656250000000  0.5798270000000 1.0
C      1  0.4854530000000  0.5629390000000  0.5506460000000 1.0
C      1  0.5304140000000  0.5714890000000  0.5264490000000 1.0
C      1  0.5356580000000  0.5679650000000  0.4850920000000 1.0
C      1  0.5145240000000  0.5475950000000  0.4404660000000 1.0
C      1  0.4697600000000  0.4843680000000  0.5593670000000 1.0
C      1  0.4942690000000  0.4216030000000  0.5244430000000 1.0
C      1  0.5591530000000  0.5293980000000  0.4425140000000 1.0
C      1  0.4355700000000  0.5534150000000  0.4739550000000 1.0
C      1  0.5174530000000  0.4745730000000  0.5081110000000 1.0
C      1  0.4567290000000  0.5033290000000  0.5386740000000 1.0
C      1  0.5671950000000  0.4843080000000  0.4474180000000 1.0
C      1  0.5568810000000  0.4646070000000  0.5394990000000 1.0
C      1  0.5311460000000  0.5111560000000  0.5756820000000 1.0
C      1  0.5320580000000  0.4497500000000  0.5374860000000 1.0
C      1  0.4963510000000  0.5459090000000  0.5713340000000 1.0
END
