TITL C-884134-5972-296 23.1124972854996 125000 -19756.7669987293 0 0 133 (C1) n - 1
REM
REM in /home/nfs/bkarasulu/CARBON/AIRSS/Generating-Clusters/ReaxFF-fromJPCA2015/Units_Real/with-SteepDescent/Only-C1/SD-CG/Try1-3A/FIRE-CG
REM
REM
REM
REM
REM
REM ./C.cell (11c1c37f851c82e70ff6c80c92926a4b)
REM
REM compiler GCC version 9.2.1 20190827 (Red Hat 9.2.1-1)
REM options -cpp -mtune=generic -march=x86-64 -g -O0 -fpre-include=/usr/include/finclude/math-vector-fortran.h
REM seed 1041484149 614054705 1643351386 -995692423 -1680407952 -333162589 901669666 435139996 -687146714 1146285249 -1858409012 131468623 1615236612 646667948 -2072872459 -1287942216 1364295501 -609985711 -149980485 -253233924 71465362 -1797757490 480862817 268457462 -1968167668 -547423340 -1820932589 514002699 378217806 -1612968358 1435582251 729853178 168619388
REM
CELL 1.54180   50.00000   50.00000   50.00000   90.00000   90.00000   90.00000
LATT -1
SFAC C  
C      1  0.4973160000000  0.4495270000000  0.4140640000000 1.0
C      1  0.4316900000000  0.5060020000000  0.4759690000000 1.0
C      1  0.5317010000000  0.5124980000000  0.5375330000000 1.0
C      1  0.5015450000000  0.5251270000000  0.4753840000000 1.0
C      1  0.4169420000000  0.5224300000000  0.4334630000000 1.0
C      1  0.5965720000000  0.4787140000000  0.4913540000000 1.0
C      1  0.4737220000000  0.5842910000000  0.4559540000000 1.0
C      1  0.4953440000000  0.4242600000000  0.5590710000000 1.0
C      1  0.5110280000000  0.4405060000000  0.4608560000000 1.0
C      1  0.4431210000000  0.5435430000000  0.5619880000000 1.0
C      1  0.4540340000000  0.4975020000000  0.5146400000000 1.0
C      1  0.4255360000000  0.5192930000000  0.5653850000000 1.0
C      1  0.4762150000000  0.5146160000000  0.5134230000000 1.0
C      1  0.5414580000000  0.4650950000000  0.5843710000000 1.0
C      1  0.4879250000000  0.4711950000000  0.5313930000000 1.0
C      1  0.5318830000000  0.5373920000000  0.4711250000000 1.0
C      1  0.5576070000000  0.5272020000000  0.5360820000000 1.0
C      1  0.5096190000000  0.5179130000000  0.6024510000000 1.0
C      1  0.5110350000000  0.5882170000000  0.5452950000000 1.0
C      1  0.5538400000000  0.5828660000000  0.4939450000000 1.0
C      1  0.5375070000000  0.4399600000000  0.4478170000000 1.0
C      1  0.4429220000000  0.4776590000000  0.4152540000000 1.0
C      1  0.5285740000000  0.5084080000000  0.5077270000000 1.0
C      1  0.5497410000000  0.4498030000000  0.5610270000000 1.0
C      1  0.5456910000000  0.5804500000000  0.4360220000000 1.0
C      1  0.5361990000000  0.5736110000000  0.5547390000000 1.0
C      1  0.5316570000000  0.4866950000000  0.5458200000000 1.0
C      1  0.5658120000000  0.5387570000000  0.5105470000000 1.0
C      1  0.5675350000000  0.5318340000000  0.5620660000000 1.0
C      1  0.4771620000000  0.4372270000000  0.4264310000000 1.0
C      1  0.5453370000000  0.5502630000000  0.5708570000000 1.0
C      1  0.5428470000000  0.4482030000000  0.4193350000000 1.0
C      1  0.4736430000000  0.4083890000000  0.5481270000000 1.0
C      1  0.5606970000000  0.4864210000000  0.5825770000000 1.0
C      1  0.4121610000000  0.5179040000000  0.5394150000000 1.0
C      1  0.4592200000000  0.5008520000000  0.4266600000000 1.0
C      1  0.4627370000000  0.4873280000000  0.5924110000000 1.0
C      1  0.4772690000000  0.4233600000000  0.5060730000000 1.0
C      1  0.5684440000000  0.5679040000000  0.5136030000000 1.0
C      1  0.4588100000000  0.5793080000000  0.5308230000000 1.0
C      1  0.5881810000000  0.4896840000000  0.4644650000000 1.0
C      1  0.5141890000000  0.5979360000000  0.5184350000000 1.0
C      1  0.4513680000000  0.4688450000000  0.5127050000000 1.0
C      1  0.4329000000000  0.5053820000000  0.4153810000000 1.0
C      1  0.4928790000000  0.4214180000000  0.4491190000000 1.0
C      1  0.5766150000000  0.5027300000000  0.5627200000000 1.0
C      1  0.4687960000000  0.4075310000000  0.4814220000000 1.0
C      1  0.4973490000000  0.4878500000000  0.4397590000000 1.0
C      1  0.4399880000000  0.5582150000000  0.5372300000000 1.0
C      1  0.5869450000000  0.4874090000000  0.5384220000000 1.0
C      1  0.3999710000000  0.4930760000000  0.5320650000000 1.0
C      1  0.4711500000000  0.5396010000000  0.4989260000000 1.0
C      1  0.5955030000000  0.4991340000000  0.5122990000000 1.0
C      1  0.4700440000000  0.5370340000000  0.5699220000000 1.0
C      1  0.4876060000000  0.4044550000000  0.5252420000000 1.0
C      1  0.4472790000000  0.4118090000000  0.5335800000000 1.0
C      1  0.4890410000000  0.4470330000000  0.5752270000000 1.0
C      1  0.4121220000000  0.5524800000000  0.4925340000000 1.0
C      1  0.5099600000000  0.4711810000000  0.5501710000000 1.0
C      1  0.4381650000000  0.4623400000000  0.5436330000000 1.0
C      1  0.5609010000000  0.4489320000000  0.4620890000000 1.0
C      1  0.4785620000000  0.4572540000000  0.5069560000000 1.0
C      1  0.5552020000000  0.5832040000000  0.5351160000000 1.0
C      1  0.5750430000000  0.5352600000000  0.4411690000000 1.0
C      1  0.4868870000000  0.5012970000000  0.4168580000000 1.0
C      1  0.5477250000000  0.4617340000000  0.5094600000000 1.0
C      1  0.5202410000000  0.4778270000000  0.4753250000000 1.0
C      1  0.4781680000000  0.4806840000000  0.4600110000000 1.0
C      1  0.5651000000000  0.5608660000000  0.4360110000000 1.0
C      1  0.4515500000000  0.4113440000000  0.5039310000000 1.0
C      1  0.5371670000000  0.4827890000000  0.4967500000000 1.0
C      1  0.5413840000000  0.5981690000000  0.5142300000000 1.0
C      1  0.4532670000000  0.5409300000000  0.4255150000000 1.0
C      1  0.5882410000000  0.4540570000000  0.5043910000000 1.0
C      1  0.5009300000000  0.5486230000000  0.5357020000000 1.0
C      1  0.5231600000000  0.4931450000000  0.4521450000000 1.0
C      1  0.5020640000000  0.5237770000000  0.4091620000000 1.0
C      1  0.5888040000000  0.5207910000000  0.4938960000000 1.0
C      1  0.4940920000000  0.4638650000000  0.4780780000000 1.0
C      1  0.5714880000000  0.4715410000000  0.4480100000000 1.0
C      1  0.4724980000000  0.4855460000000  0.5507470000000 1.0
C      1  0.5865880000000  0.5187670000000  0.4652750000000 1.0
C      1  0.4990590000000  0.5906050000000  0.4670850000000 1.0
C      1  0.5300140000000  0.5160950000000  0.4085470000000 1.0
C      1  0.4426980000000  0.5017400000000  0.5803580000000 1.0
C      1  0.4637250000000  0.5869470000000  0.5029220000000 1.0
C      1  0.4254260000000  0.4632600000000  0.4969110000000 1.0
C      1  0.5069110000000  0.5236680000000  0.5466380000000 1.0
C      1  0.5201550000000  0.4045200000000  0.4933760000000 1.0
C      1  0.5093620000000  0.4678830000000  0.5813600000000 1.0
C      1  0.5427980000000  0.5298640000000  0.4962470000000 1.0
C      1  0.4515600000000  0.5791100000000  0.4777590000000 1.0
C      1  0.5470100000000  0.4666520000000  0.5369840000000 1.0
C      1  0.4595040000000  0.5042590000000  0.4618510000000 1.0
C      1  0.5854600000000  0.4581300000000  0.5328240000000 1.0
C      1  0.5006330000000  0.5103280000000  0.4989770000000 1.0
C      1  0.4227880000000  0.5392300000000  0.5199010000000 1.0
C      1  0.5280700000000  0.5371190000000  0.5904330000000 1.0
C      1  0.5366630000000  0.4877380000000  0.4067000000000 1.0
C      1  0.4001630000000  0.5330570000000  0.4765570000000 1.0
C      1  0.4638830000000  0.4653110000000  0.5713800000000 1.0
C      1  0.5259210000000  0.5882430000000  0.4549410000000 1.0
C      1  0.4821870000000  0.5833250000000  0.5495680000000 1.0
C      1  0.5388160000000  0.5692280000000  0.4731630000000 1.0
C      1  0.4881230000000  0.5577530000000  0.5614450000000 1.0
C      1  0.4276670000000  0.4573860000000  0.4704830000000 1.0
C      1  0.4925900000000  0.5565510000000  0.5090250000000 1.0
C      1  0.4835910000000  0.5669820000000  0.4363860000000 1.0
C      1  0.4087090000000  0.4668810000000  0.5395100000000 1.0
C      1  0.4338480000000  0.4536600000000  0.4479910000000 1.0
C      1  0.4496950000000  0.4513520000000  0.4255160000000 1.0
C      1  0.5695470000000  0.4356820000000  0.5456250000000 1.0
C      1  0.4029260000000  0.4720770000000  0.5125990000000 1.0
C      1  0.4930490000000  0.4951830000000  0.5917730000000 1.0
C      1  0.4965850000000  0.4040200000000  0.4728410000000 1.0
C      1  0.4073680000000  0.5116260000000  0.4597420000000 1.0
C      1  0.5470690000000  0.4198650000000  0.5323550000000 1.0
C      1  0.4737010000000  0.5297930000000  0.4711550000000 1.0
C      1  0.4811930000000  0.5460560000000  0.4184920000000 1.0
C      1  0.4854140000000  0.5112090000000  0.5627330000000 1.0
C      1  0.4337570000000  0.4352010000000  0.5405890000000 1.0
C      1  0.4302500000000  0.5613310000000  0.4711700000000 1.0
C      1  0.5210540000000  0.4609210000000  0.4037920000000 1.0
C      1  0.4321890000000  0.5456900000000  0.4426550000000 1.0
C      1  0.5130140000000  0.3970440000000  0.5211420000000 1.0
C      1  0.4948320000000  0.5866410000000  0.4983340000000 1.0
C      1  0.5629960000000  0.4417830000000  0.4920710000000 1.0
C      1  0.5500520000000  0.5237260000000  0.4303410000000 1.0
C      1  0.5205700000000  0.4139140000000  0.5440990000000 1.0
C      1  0.5370140000000  0.5174960000000  0.4521220000000 1.0
C      1  0.5582330000000  0.4730250000000  0.4208610000000 1.0
C      1  0.5440870000000  0.4165690000000  0.5033020000000 1.0
C      1  0.4368650000000  0.5161980000000  0.5022100000000 1.0
END
