TITL C-883727-9645-29 1500658.91914342 125000 -28274.8714376935 0 0 187 (C1) n - 1
REM
REM in /home/nfs/bkarasulu/CARBON/AIRSS/Generating-Clusters/ReaxFF-fromJPCA2015/Units_Real/with-SteepDescent/Only-C1/SD-CG/Try1-3A/FIRE-CG
REM
REM
REM
REM
REM
REM ./C.cell (11c1c37f851c82e70ff6c80c92926a4b)
REM
REM compiler GCC version 9.2.1 20190827 (Red Hat 9.2.1-1)
REM options -cpp -mtune=generic -march=x86-64 -g -O0 -fpre-include=/usr/include/finclude/math-vector-fortran.h
REM seed -1221471798 931572834 -2057109562 1988107568 -127943361 433549878 -1343609421 -1577350380 -92618217 1601285465 -839944504 -692448217 1346747755 -934902259 -1140677242 249667957 383152843 -1060603622 851124398 502231036 597317818 929609893 -470759763 1340400066 184361962 1901525479 -1311399571 731044730 -357934452 544307028 1401399798 1751207810 -1159470765
REM
CELL 1.54180   50.00000   50.00000   50.00000   90.00000   90.00000   90.00000
LATT -1
SFAC C  
C      1  0.5074850000000  0.4428100000000  0.4429690000000 1.0
C      1  0.5008240000000  0.5301540000000  0.6021020000000 1.0
C      1  0.4582220000000  0.4298550000000  0.5719640000000 1.0
C      1  0.5688080000000  0.5029340000000  0.4529530000000 1.0
C      1  0.3947750000000  0.4460330000000  0.5217540000000 1.0
C      1  0.4795480000000  0.5037150000000  0.5182010000000 1.0
C      1  0.5598360000000  0.4658720000000  0.5404190000000 1.0
C      1  0.4422570000000  0.4936170000000  0.4091880000000 1.0
C      1  0.3915210000000  0.4957410000000  0.4710330000000 1.0
C      1  0.4124950000000  0.5621290000000  0.5045990000000 1.0
C      1  0.5810350000000  0.5426110000000  0.4308150000000 1.0
C      1  0.5881290000000  0.4590790000000  0.4696750000000 1.0
C      1  0.5507970000000  0.5582000000000  0.5502640000000 1.0
C      1  0.5963210000000  0.4488360000000  0.4956790000000 1.0
C      1  0.5704280000000  0.4652290000000  0.4221690000000 1.0
C      1  0.4541310000000  0.4605680000000  0.5833320000000 1.0
C      1  0.5917870000000  0.4404200000000  0.5367630000000 1.0
C      1  0.5009090000000  0.4326060000000  0.4170450000000 1.0
C      1  0.4537830000000  0.4524630000000  0.4131760000000 1.0
C      1  0.5705870000000  0.5780690000000  0.5034550000000 1.0
C      1  0.4569250000000  0.5037040000000  0.4667880000000 1.0
C      1  0.5098440000000  0.5403050000000  0.5103580000000 1.0
C      1  0.6057950000000  0.5415510000000  0.5053450000000 1.0
C      1  0.5206170000000  0.4254810000000  0.4904730000000 1.0
C      1  0.5209540000000  0.4690890000000  0.5689310000000 1.0
C      1  0.4181090000000  0.4589350000000  0.4458450000000 1.0
C      1  0.4334840000000  0.4096990000000  0.4663170000000 1.0
C      1  0.4942410000000  0.5127940000000  0.5789090000000 1.0
C      1  0.4487340000000  0.5810520000000  0.5704840000000 1.0
C      1  0.5172540000000  0.5926490000000  0.5647880000000 1.0
C      1  0.5303540000000  0.6065360000000  0.4668340000000 1.0
C      1  0.5661330000000  0.4208600000000  0.4433270000000 1.0
C      1  0.4024190000000  0.4690010000000  0.4695390000000 1.0
C      1  0.5460250000000  0.5443950000000  0.4740560000000 1.0
C      1  0.5295920000000  0.5641360000000  0.4591270000000 1.0
C      1  0.5033990000000  0.4289930000000  0.5161730000000 1.0
C      1  0.4603780000000  0.4494730000000  0.4416810000000 1.0
C      1  0.4403350000000  0.4724460000000  0.5364020000000 1.0
C      1  0.5026520000000  0.5846700000000  0.5033060000000 1.0
C      1  0.4512960000000  0.5714490000000  0.4180790000000 1.0
C      1  0.5234550000000  0.4984550000000  0.3936350000000 1.0
C      1  0.5066970000000  0.5620650000000  0.4040100000000 1.0
C      1  0.4310360000000  0.5117540000000  0.5058810000000 1.0
C      1  0.4317200000000  0.4280970000000  0.5654030000000 1.0
C      1  0.4868760000000  0.5526990000000  0.4972750000000 1.0
C      1  0.5461770000000  0.5481510000000  0.5967590000000 1.0
C      1  0.5279580000000  0.4838090000000  0.5217620000000 1.0
C      1  0.4528430000000  0.3900300000000  0.4630260000000 1.0
C      1  0.4067860000000  0.5115890000000  0.5688670000000 1.0
C      1  0.4807630000000  0.4558250000000  0.4922470000000 1.0
C      1  0.5173820000000  0.5545670000000  0.5972280000000 1.0
C      1  0.5013360000000  0.5743660000000  0.5838010000000 1.0
C      1  0.4172000000000  0.4860810000000  0.5214390000000 1.0
C      1  0.4997490000000  0.5829360000000  0.4277400000000 1.0
C      1  0.5476890000000  0.5906120000000  0.5162720000000 1.0
C      1  0.4740680000000  0.4762710000000  0.4522860000000 1.0
C      1  0.5147460000000  0.4356310000000  0.6022970000000 1.0
C      1  0.6106180000000  0.4917430000000  0.5306760000000 1.0
C      1  0.5632520000000  0.5144500000000  0.5427970000000 1.0
C      1  0.5948480000000  0.5110580000000  0.4624700000000 1.0
C      1  0.4236820000000  0.5766190000000  0.5254480000000 1.0
C      1  0.4360000000000  0.4371160000000  0.4516300000000 1.0
C      1  0.5400890000000  0.4570160000000  0.5210380000000 1.0
C      1  0.5263290000000  0.4692420000000  0.3967520000000 1.0
C      1  0.4846060000000  0.6076440000000  0.4950610000000 1.0
C      1  0.6037670000000  0.4618910000000  0.5221390000000 1.0
C      1  0.4266580000000  0.5130280000000  0.4267850000000 1.0
C      1  0.4070800000000  0.4987790000000  0.5447160000000 1.0
C      1  0.5500400000000  0.4245540000000  0.4191070000000 1.0
C      1  0.5001570000000  0.5099680000000  0.4281040000000 1.0
C      1  0.4622970000000  0.4987250000000  0.6138500000000 1.0
C      1  0.6005820000000  0.5518330000000  0.4783280000000 1.0
C      1  0.4707160000000  0.4092740000000  0.4989340000000 1.0
C      1  0.4821220000000  0.5533750000000  0.5372550000000 1.0
C      1  0.4211170000000  0.5705270000000  0.4633980000000 1.0
C      1  0.5432970000000  0.5198000000000  0.3984180000000 1.0
C      1  0.4355330000000  0.5362670000000  0.5973260000000 1.0
C      1  0.5214560000000  0.5239540000000  0.4441510000000 1.0
C      1  0.5159320000000  0.4943650000000  0.5854700000000 1.0
C      1  0.5011140000000  0.5719680000000  0.4563410000000 1.0
C      1  0.5288840000000  0.5986450000000  0.4954870000000 1.0
C      1  0.4483360000000  0.5274190000000  0.5534180000000 1.0
C      1  0.5640010000000  0.4801490000000  0.4745980000000 1.0
C      1  0.5264730000000  0.5998480000000  0.4387940000000 1.0
C      1  0.5514380000000  0.5249440000000  0.6157450000000 1.0
C      1  0.4628260000000  0.5521180000000  0.5154230000000 1.0
C      1  0.4382740000000  0.5901850000000  0.4757180000000 1.0
C      1  0.5269820000000  0.5032740000000  0.5010090000000 1.0
C      1  0.5718220000000  0.5666370000000  0.4438580000000 1.0
C      1  0.4248610000000  0.5387280000000  0.5693750000000 1.0
C      1  0.6026370000000  0.5063050000000  0.5553290000000 1.0
C      1  0.4609760000000  0.5486940000000  0.6038050000000 1.0
C      1  0.4882260000000  0.4775180000000  0.4779570000000 1.0
C      1  0.4680650000000  0.5088370000000  0.5647380000000 1.0
C      1  0.5717970000000  0.4322920000000  0.4981130000000 1.0
C      1  0.5679100000000  0.4895850000000  0.5276260000000 1.0
C      1  0.4330600000000  0.4395360000000  0.5034120000000 1.0
C      1  0.5393860000000  0.4654610000000  0.4711610000000 1.0
C      1  0.5784490000000  0.5201600000000  0.5667400000000 1.0
C      1  0.5446730000000  0.4022900000000  0.4551470000000 1.0
C      1  0.4756650000000  0.5252620000000  0.6157870000000 1.0
C      1  0.5548600000000  0.4216750000000  0.5680780000000 1.0
C      1  0.5794920000000  0.4471340000000  0.4451840000000 1.0
C      1  0.4699050000000  0.5901970000000  0.4300370000000 1.0
C      1  0.5312880000000  0.5475990000000  0.3982530000000 1.0
C      1  0.5251770000000  0.4334700000000  0.5347050000000 1.0
C      1  0.5000250000000  0.4447170000000  0.5813730000000 1.0
C      1  0.4691000000000  0.4926980000000  0.3965450000000 1.0
C      1  0.5214380000000  0.4661610000000  0.4489490000000 1.0
C      1  0.5322180000000  0.4022300000000  0.4278260000000 1.0
C      1  0.4727170000000  0.5695370000000  0.5873220000000 1.0
C      1  0.5463760000000  0.4124290000000  0.5406860000000 1.0
C      1  0.4857320000000  0.4784790000000  0.5347050000000 1.0
C      1  0.4505320000000  0.4495240000000  0.5236910000000 1.0
C      1  0.4748200000000  0.4649330000000  0.3954740000000 1.0
C      1  0.4243650000000  0.5408260000000  0.4228640000000 1.0
C      1  0.6138910000000  0.5131710000000  0.5106750000000 1.0
C      1  0.4244780000000  0.4646740000000  0.5852870000000 1.0
C      1  0.5053920000000  0.5003130000000  0.4833380000000 1.0
C      1  0.5362080000000  0.5016200000000  0.6054740000000 1.0
C      1  0.5384040000000  0.5837240000000  0.5449670000000 1.0
C      1  0.4709970000000  0.4714730000000  0.6058770000000 1.0
C      1  0.4999570000000  0.4824740000000  0.4389790000000 1.0
C      1  0.4609880000000  0.4810180000000  0.5567190000000 1.0
C      1  0.4989680000000  0.4030280000000  0.5479200000000 1.0
C      1  0.3977360000000  0.4397960000000  0.5468390000000 1.0
C      1  0.5483270000000  0.4527940000000  0.4087090000000 1.0
C      1  0.5707780000000  0.4476740000000  0.5621530000000 1.0
C      1  0.5437790000000  0.4444200000000  0.4902900000000 1.0
C      1  0.4581870000000  0.5030750000000  0.4982550000000 1.0
C      1  0.5741480000000  0.5652030000000  0.4754040000000 1.0
C      1  0.4860330000000  0.5454780000000  0.4694250000000 1.0
C      1  0.4259380000000  0.5665070000000  0.4332100000000 1.0
C      1  0.4789340000000  0.3792480000000  0.4647600000000 1.0
C      1  0.4870810000000  0.3853890000000  0.4931510000000 1.0
C      1  0.6010210000000  0.5371390000000  0.4521150000000 1.0
C      1  0.4647890000000  0.5304450000000  0.4570410000000 1.0
C      1  0.5365740000000  0.5316610000000  0.5021270000000 1.0
C      1  0.5200360000000  0.3925450000000  0.5311600000000 1.0
C      1  0.4952770000000  0.5101920000000  0.3951370000000 1.0
C      1  0.4086190000000  0.4417310000000  0.5731060000000 1.0
C      1  0.4123550000000  0.5191230000000  0.4782120000000 1.0
C      1  0.4725280000000  0.5265640000000  0.4300420000000 1.0
C      1  0.5332160000000  0.3997150000000  0.4825350000000 1.0
C      1  0.4784970000000  0.4308420000000  0.4809400000000 1.0
C      1  0.5968480000000  0.5029730000000  0.4894600000000 1.0
C      1  0.4356950000000  0.5082310000000  0.6055930000000 1.0
C      1  0.5833760000000  0.5559590000000  0.5169890000000 1.0
C      1  0.4300380000000  0.4685870000000  0.4191590000000 1.0
C      1  0.4075870000000  0.5507010000000  0.4800190000000 1.0
C      1  0.5416360000000  0.4352660000000  0.5902490000000 1.0
C      1  0.4407340000000  0.4124660000000  0.4950380000000 1.0
C      1  0.5494690000000  0.4610730000000  0.5791910000000 1.0
C      1  0.4852940000000  0.4205590000000  0.5660600000000 1.0
C      1  0.5019820000000  0.4530620000000  0.3961400000000 1.0
C      1  0.4948890000000  0.4559540000000  0.6085640000000 1.0
C      1  0.5475650000000  0.5237350000000  0.4535920000000 1.0
C      1  0.4934630000000  0.5269730000000  0.5296280000000 1.0
C      1  0.4432000000000  0.5328710000000  0.5248260000000 1.0
C      1  0.4888460000000  0.5413740000000  0.3938190000000 1.0
C      1  0.5121960000000  0.4815740000000  0.5440930000000 1.0
C      1  0.4289220000000  0.5080760000000  0.4562900000000 1.0
C      1  0.4596820000000  0.5994910000000  0.4561300000000 1.0
C      1  0.4996330000000  0.4240710000000  0.4627430000000 1.0
C      1  0.5628900000000  0.5455940000000  0.5733470000000 1.0
C      1  0.4991230000000  0.5767360000000  0.5314400000000 1.0
C      1  0.4642080000000  0.5452260000000  0.4092290000000 1.0
C      1  0.5447900000000  0.5763720000000  0.4380470000000 1.0
C      1  0.5686290000000  0.5199410000000  0.4139750000000 1.0
C      1  0.4819570000000  0.4518930000000  0.5201110000000 1.0
C      1  0.5727190000000  0.4222290000000  0.5245330000000 1.0
C      1  0.4609420000000  0.6126040000000  0.5123320000000 1.0
C      1  0.4940600000000  0.3985060000000  0.4484610000000 1.0
C      1  0.5056100000000  0.5244360000000  0.4674860000000 1.0
C      1  0.5033780000000  0.4036740000000  0.4218860000000 1.0
C      1  0.4392760000000  0.5945770000000  0.5046560000000 1.0
C      1  0.5732350000000  0.4917300000000  0.4994250000000 1.0
C      1  0.4282820000000  0.5685430000000  0.5538890000000 1.0
C      1  0.5151450000000  0.3861210000000  0.5021630000000 1.0
C      1  0.4997860000000  0.6033220000000  0.5443960000000 1.0
C      1  0.5744630000000  0.4938480000000  0.4239730000000 1.0
C      1  0.4167790000000  0.4924510000000  0.5894490000000 1.0
C      1  0.4724390000000  0.6164580000000  0.5398920000000 1.0
C      1  0.5581670000000  0.5397570000000  0.5268870000000 1.0
C      1  0.4532820000000  0.6010390000000  0.5520410000000 1.0
C      1  0.4083270000000  0.4579190000000  0.4996110000000 1.0
C      1  0.4855400000000  0.5992070000000  0.4679630000000 1.0
END
