TITL C-883735-9890-319 5.05549778251003 125000 -18813.9698298212 0 0 126 (C1) n - 1
REM
REM in /home/nfs/bkarasulu/CARBON/AIRSS/Generating-Clusters/ReaxFF-fromJPCA2015/Units_Real/with-SteepDescent/Only-C1/SD-CG/Try1-3A/FIRE-CG
REM
REM
REM
REM
REM
REM ./C.cell (11c1c37f851c82e70ff6c80c92926a4b)
REM
REM compiler GCC version 9.2.1 20190827 (Red Hat 9.2.1-1)
REM options -cpp -mtune=generic -march=x86-64 -g -O0 -fpre-include=/usr/include/finclude/math-vector-fortran.h
REM seed 784220353 -1720754233 -719275933 398358434 -1161742271 -1918900309 -1857432900 -885378126 1581377672 -228525185 -1934146407 1026828117 -1946403939 -1272756285 454934549 695883388 -191655015 -30535407 1120782657 525095932 1944487615 -1818218642 -1641985076 -1802453402 -1021907577 1853366924 388392631 556111284 -1848801729 736840254 213224912 2002821954 -266806115
REM
CELL 1.54180   50.00000   50.00000   50.00000   90.00000   90.00000   90.00000
LATT -1
SFAC C  
C      1  0.5624680000000  0.5096680000000  0.5812520000000 1.0
C      1  0.4701230000000  0.5644300000000  0.4240390000000 1.0
C      1  0.4160310000000  0.5209070000000  0.4675490000000 1.0
C      1  0.4996280000000  0.6017610000000  0.5001510000000 1.0
C      1  0.5854640000000  0.5392950000000  0.4748710000000 1.0
C      1  0.4789890000000  0.5295020000000  0.5003000000000 1.0
C      1  0.5023330000000  0.5412270000000  0.4544410000000 1.0
C      1  0.5673930000000  0.4374870000000  0.4784410000000 1.0
C      1  0.4522650000000  0.5657740000000  0.4481730000000 1.0
C      1  0.4210560000000  0.5013190000000  0.4464580000000 1.0
C      1  0.4596530000000  0.5651760000000  0.5302840000000 1.0
C      1  0.5534590000000  0.5537820000000  0.5585360000000 1.0
C      1  0.4713620000000  0.4856420000000  0.4855350000000 1.0
C      1  0.4581190000000  0.5617360000000  0.5596170000000 1.0
C      1  0.4945240000000  0.4848670000000  0.6025870000000 1.0
C      1  0.5369140000000  0.5059000000000  0.5679780000000 1.0
C      1  0.5849230000000  0.4945230000000  0.4568500000000 1.0
C      1  0.5320800000000  0.5823390000000  0.4677470000000 1.0
C      1  0.4759640000000  0.5407450000000  0.5264860000000 1.0
C      1  0.5508650000000  0.4947440000000  0.4218960000000 1.0
C      1  0.5531970000000  0.4576610000000  0.5757930000000 1.0
C      1  0.5539360000000  0.5306430000000  0.4793080000000 1.0
C      1  0.4118280000000  0.5081860000000  0.4929420000000 1.0
C      1  0.5523670000000  0.4356660000000  0.5549370000000 1.0
C      1  0.4208800000000  0.4737070000000  0.4562390000000 1.0
C      1  0.4889390000000  0.6015690000000  0.4519040000000 1.0
C      1  0.5365210000000  0.4376630000000  0.4385100000000 1.0
C      1  0.4806480000000  0.4119590000000  0.4719080000000 1.0
C      1  0.4268870000000  0.4257610000000  0.4850230000000 1.0
C      1  0.4793520000000  0.5034840000000  0.4013390000000 1.0
C      1  0.5080830000000  0.4397860000000  0.5771780000000 1.0
C      1  0.5090390000000  0.5782340000000  0.5111750000000 1.0
C      1  0.4179560000000  0.5280630000000  0.5127580000000 1.0
C      1  0.4892230000000  0.5271650000000  0.5499130000000 1.0
C      1  0.4632640000000  0.4579320000000  0.4912910000000 1.0
C      1  0.5441400000000  0.5502400000000  0.4298170000000 1.0
C      1  0.5535600000000  0.4554430000000  0.4583790000000 1.0
C      1  0.4494040000000  0.4880290000000  0.5840810000000 1.0
C      1  0.4898120000000  0.5891740000000  0.4237800000000 1.0
C      1  0.5204850000000  0.4080530000000  0.5367230000000 1.0
C      1  0.5195850000000  0.4964760000000  0.4564360000000 1.0
C      1  0.5430540000000  0.4080220000000  0.5185050000000 1.0
C      1  0.5090570000000  0.5724970000000  0.4128290000000 1.0
C      1  0.4605440000000  0.4342930000000  0.5053630000000 1.0
C      1  0.4785030000000  0.4802080000000  0.5363970000000 1.0
C      1  0.5511090000000  0.4960940000000  0.5171830000000 1.0
C      1  0.4999540000000  0.5972060000000  0.5290000000000 1.0
C      1  0.4639190000000  0.5041800000000  0.4633810000000 1.0
C      1  0.5007760000000  0.4599510000000  0.5236230000000 1.0
C      1  0.5697180000000  0.4484880000000  0.5048350000000 1.0
C      1  0.5126000000000  0.4903300000000  0.5769540000000 1.0
C      1  0.4421310000000  0.5365710000000  0.5626390000000 1.0
C      1  0.5268930000000  0.4230250000000  0.5607180000000 1.0
C      1  0.5709170000000  0.4785120000000  0.5039600000000 1.0
C      1  0.3976360000000  0.5134220000000  0.5537430000000 1.0
C      1  0.5277510000000  0.5137560000000  0.5104230000000 1.0
C      1  0.4610030000000  0.5284990000000  0.4774730000000 1.0
C      1  0.5399210000000  0.5389430000000  0.5035170000000 1.0
C      1  0.5094240000000  0.4456740000000  0.4453870000000 1.0
C      1  0.5240090000000  0.4977450000000  0.4094020000000 1.0
C      1  0.5354580000000  0.4143910000000  0.4531950000000 1.0
C      1  0.4528700000000  0.4140250000000  0.4852170000000 1.0
C      1  0.5046390000000  0.5166800000000  0.4675330000000 1.0
C      1  0.5536980000000  0.5802660000000  0.4884060000000 1.0
C      1  0.5125030000000  0.4518500000000  0.4986010000000 1.0
C      1  0.5926120000000  0.5271900000000  0.5225870000000 1.0
C      1  0.4648130000000  0.5881980000000  0.4571340000000 1.0
C      1  0.4218100000000  0.4402250000000  0.5231090000000 1.0
C      1  0.4818920000000  0.5414660000000  0.4344320000000 1.0
C      1  0.4854580000000  0.4283950000000  0.4487760000000 1.0
C      1  0.5094540000000  0.5998200000000  0.4729300000000 1.0
C      1  0.5107380000000  0.4696990000000  0.4625100000000 1.0
C      1  0.4762650000000  0.4655720000000  0.4168750000000 1.0
C      1  0.4124440000000  0.4469100000000  0.4977710000000 1.0
C      1  0.4876630000000  0.5098330000000  0.6171160000000 1.0
C      1  0.4371360000000  0.5740210000000  0.5122320000000 1.0
C      1  0.5787510000000  0.5696910000000  0.4811420000000 1.0
C      1  0.5018480000000  0.5117250000000  0.4950750000000 1.0
C      1  0.5082890000000  0.5807210000000  0.5516040000000 1.0
C      1  0.5321090000000  0.4016360000000  0.4915870000000 1.0
C      1  0.4588520000000  0.4890610000000  0.4158460000000 1.0
C      1  0.4865450000000  0.5684060000000  0.5675210000000 1.0
C      1  0.4984900000000  0.4820470000000  0.4057160000000 1.0
C      1  0.5355100000000  0.5693960000000  0.5455720000000 1.0
C      1  0.5453650000000  0.5125660000000  0.4595220000000 1.0
C      1  0.5026430000000  0.4068320000000  0.4906080000000 1.0
C      1  0.4462730000000  0.4776520000000  0.4970700000000 1.0
C      1  0.5680300000000  0.4820710000000  0.5786490000000 1.0
C      1  0.4372380000000  0.4364170000000  0.5450360000000 1.0
C      1  0.4994190000000  0.4177020000000  0.5179150000000 1.0
C      1  0.4479730000000  0.4995210000000  0.4402220000000 1.0
C      1  0.5267460000000  0.5581560000000  0.4516700000000 1.0
C      1  0.5728430000000  0.5365990000000  0.5686610000000 1.0
C      1  0.4651160000000  0.4446720000000  0.4345570000000 1.0
C      1  0.5654360000000  0.4789050000000  0.4414590000000 1.0
C      1  0.4527010000000  0.4743560000000  0.5446700000000 1.0
C      1  0.5278980000000  0.5519860000000  0.4056940000000 1.0
C      1  0.4241030000000  0.5522080000000  0.4969430000000 1.0
C      1  0.5542830000000  0.4110330000000  0.4737070000000 1.0
C      1  0.4793560000000  0.4453990000000  0.5765120000000 1.0
C      1  0.5890680000000  0.4934060000000  0.4865020000000 1.0
C      1  0.5295780000000  0.4643250000000  0.4797430000000 1.0
C      1  0.4195290000000  0.5294320000000  0.5436780000000 1.0
C      1  0.4194270000000  0.4770480000000  0.4883230000000 1.0
C      1  0.4365720000000  0.5445030000000  0.4696510000000 1.0
C      1  0.4513680000000  0.5180350000000  0.5830180000000 1.0
C      1  0.4919320000000  0.5414650000000  0.5763260000000 1.0
C      1  0.4077210000000  0.4936730000000  0.5596190000000 1.0
C      1  0.4312850000000  0.4765060000000  0.5637110000000 1.0
C      1  0.5600050000000  0.5235870000000  0.4323320000000 1.0
C      1  0.4747590000000  0.5286430000000  0.5971400000000 1.0
C      1  0.5244880000000  0.4692870000000  0.5347660000000 1.0
C      1  0.4635850000000  0.4319600000000  0.5552800000000 1.0
C      1  0.4930220000000  0.4995410000000  0.5525760000000 1.0
C      1  0.5594800000000  0.4310290000000  0.5268680000000 1.0
C      1  0.5971150000000  0.5196320000000  0.4965320000000 1.0
C      1  0.5867590000000  0.5335570000000  0.5442610000000 1.0
C      1  0.5154020000000  0.5247030000000  0.4024940000000 1.0
C      1  0.5441290000000  0.4870480000000  0.5450630000000 1.0
C      1  0.4731930000000  0.4249950000000  0.5286360000000 1.0
C      1  0.5247250000000  0.4622920000000  0.5830020000000 1.0
C      1  0.4874060000000  0.5303900000000  0.4085320000000 1.0
C      1  0.5849230000000  0.5226740000000  0.4493750000000 1.0
C      1  0.4719250000000  0.4700520000000  0.5904570000000 1.0
C      1  0.5364740000000  0.5677920000000  0.5133190000000 1.0
C      1  0.4392280000000  0.4539920000000  0.4454620000000 1.0
END
