TITL C-884140-4336-49 15197075.6937137 125000 -27721.7863230783 0 0 188 (C1) n - 1
REM
REM in /home/nfs/bkarasulu/CARBON/AIRSS/Generating-Clusters/ReaxFF-fromJPCA2015/Units_Real/with-SteepDescent/Only-C1/SD-CG/Try1-3A/FIRE-CG
REM
REM
REM
REM
REM
REM ./C.cell (11c1c37f851c82e70ff6c80c92926a4b)
REM
REM compiler GCC version 9.2.1 20190827 (Red Hat 9.2.1-1)
REM options -cpp -mtune=generic -march=x86-64 -g -O0 -fpre-include=/usr/include/finclude/math-vector-fortran.h
REM seed 634935814 1646509094 1406277797 159957633 1386864610 -1100998522 -970878325 -580520095 -1725807600 2011049803 -698993310 1901469861 -128086646 -1291715990 225386492 -1500484798 -513856310 254287062 2066969170 1356157823 1592584263 -1797245739 -1868539510 -1505081423 1007758873 2117638658 1021458077 828103328 324072629 -1338972959 -905537469 1549267758 -1857504228
REM
CELL 1.54180   50.00000   50.00000   50.00000   90.00000   90.00000   90.00000
LATT -1
SFAC C  
C      1  0.4820300000000  0.5307080000000  0.5247500000000 1.0
C      1  0.4511210000000  0.4669290000000  0.5596360000000 1.0
C      1  0.5475480000000  0.5973500000000  0.4782760000000 1.0
C      1  0.5973160000000  0.4588970000000  0.5433530000000 1.0
C      1  0.5331660000000  0.5651400000000  0.5798000000000 1.0
C      1  0.4461360000000  0.4422450000000  0.4257260000000 1.0
C      1  0.4763340000000  0.5237500000000  0.3987690000000 1.0
C      1  0.5509140000000  0.4653030000000  0.4876920000000 1.0
C      1  0.4563800000000  0.5133820000000  0.5554480000000 1.0
C      1  0.4993820000000  0.5497640000000  0.4887290000000 1.0
C      1  0.5210470000000  0.5328830000000  0.4335150000000 1.0
C      1  0.3871710000000  0.5374010000000  0.4651660000000 1.0
C      1  0.5232810000000  0.5361140000000  0.5867690000000 1.0
C      1  0.5481640000000  0.4845030000000  0.4138580000000 1.0
C      1  0.5646360000000  0.4502440000000  0.5853200000000 1.0
C      1  0.5311530000000  0.5365270000000  0.4609410000000 1.0
C      1  0.5274550000000  0.5081000000000  0.6168180000000 1.0
C      1  0.4701880000000  0.5540320000000  0.5948240000000 1.0
C      1  0.4284860000000  0.5119920000000  0.4981910000000 1.0
C      1  0.4614630000000  0.4880080000000  0.6064290000000 1.0
C      1  0.4918990000000  0.3919200000000  0.4935030000000 1.0
C      1  0.5614290000000  0.4790020000000  0.5360770000000 1.0
C      1  0.4755470000000  0.5873760000000  0.5489080000000 1.0
C      1  0.5114390000000  0.4844850000000  0.6107800000000 1.0
C      1  0.4111100000000  0.4994330000000  0.5664390000000 1.0
C      1  0.4600680000000  0.4831920000000  0.4597500000000 1.0
C      1  0.5543010000000  0.4627960000000  0.5153140000000 1.0
C      1  0.4634940000000  0.5761210000000  0.4456000000000 1.0
C      1  0.5299900000000  0.4590300000000  0.4468950000000 1.0
C      1  0.5775560000000  0.5774730000000  0.4750170000000 1.0
C      1  0.5277050000000  0.5787730000000  0.5186940000000 1.0
C      1  0.4882520000000  0.3861760000000  0.5217040000000 1.0
C      1  0.5138320000000  0.4137000000000  0.4922520000000 1.0
C      1  0.5438950000000  0.4851340000000  0.4442290000000 1.0
C      1  0.5119760000000  0.4294200000000  0.4673160000000 1.0
C      1  0.6167340000000  0.5203640000000  0.4922670000000 1.0
C      1  0.5120400000000  0.4871340000000  0.4745260000000 1.0
C      1  0.4461890000000  0.4373380000000  0.4553220000000 1.0
C      1  0.6132460000000  0.4701030000000  0.5063050000000 1.0
C      1  0.4644470000000  0.4550090000000  0.4687770000000 1.0
C      1  0.4876330000000  0.4909240000000  0.5935320000000 1.0
C      1  0.5158940000000  0.4959990000000  0.4476700000000 1.0
C      1  0.5233050000000  0.4200280000000  0.5776290000000 1.0
C      1  0.4366180000000  0.4853950000000  0.5059820000000 1.0
C      1  0.5824180000000  0.5239480000000  0.4289560000000 1.0
C      1  0.3850310000000  0.4998300000000  0.5297300000000 1.0
C      1  0.6040230000000  0.4462600000000  0.5170120000000 1.0
C      1  0.5196050000000  0.5141000000000  0.4829440000000 1.0
C      1  0.4468200000000  0.5392510000000  0.5935930000000 1.0
C      1  0.4617370000000  0.3931170000000  0.5231410000000 1.0
C      1  0.4680690000000  0.5081940000000  0.4747440000000 1.0
C      1  0.5848300000000  0.5647640000000  0.5023050000000 1.0
C      1  0.5054760000000  0.5806270000000  0.4238520000000 1.0
C      1  0.4847950000000  0.4126330000000  0.4242520000000 1.0
C      1  0.5633940000000  0.4152320000000  0.5072080000000 1.0
C      1  0.4816550000000  0.5349530000000  0.6138740000000 1.0
C      1  0.4771560000000  0.5650660000000  0.4930640000000 1.0
C      1  0.5357090000000  0.4419930000000  0.5908980000000 1.0
C      1  0.5613060000000  0.5713030000000  0.5759540000000 1.0
C      1  0.6036620000000  0.4822200000000  0.4392140000000 1.0
C      1  0.5168950000000  0.4438150000000  0.4038030000000 1.0
C      1  0.5364260000000  0.5138600000000  0.5080230000000 1.0
C      1  0.3905490000000  0.4770130000000  0.5699600000000 1.0
C      1  0.4254080000000  0.4800390000000  0.4496740000000 1.0
C      1  0.4430550000000  0.4276380000000  0.5372650000000 1.0
C      1  0.4634860000000  0.4757790000000  0.5042960000000 1.0
C      1  0.4525500000000  0.5529550000000  0.4868390000000 1.0
C      1  0.4322880000000  0.5702300000000  0.4992090000000 1.0
C      1  0.4825530000000  0.4827710000000  0.5234150000000 1.0
C      1  0.4991060000000  0.4400560000000  0.5057570000000 1.0
C      1  0.5979340000000  0.5376610000000  0.5073090000000 1.0
C      1  0.5721780000000  0.4327740000000  0.4493530000000 1.0
C      1  0.4572790000000  0.4591890000000  0.5992850000000 1.0
C      1  0.6156810000000  0.4898590000000  0.4875930000000 1.0
C      1  0.5290830000000  0.4070420000000  0.5513350000000 1.0
C      1  0.5273940000000  0.5899680000000  0.4599190000000 1.0
C      1  0.4213370000000  0.4626810000000  0.5106780000000 1.0
C      1  0.4767580000000  0.5968580000000  0.4930240000000 1.0
C      1  0.5393190000000  0.5632090000000  0.4557440000000 1.0
C      1  0.5879990000000  0.4437520000000  0.4709070000000 1.0
C      1  0.5375750000000  0.5405430000000  0.5197910000000 1.0
C      1  0.5787780000000  0.5714050000000  0.4450400000000 1.0
C      1  0.5655290000000  0.4864810000000  0.4735220000000 1.0
C      1  0.4890980000000  0.4544680000000  0.3988770000000 1.0
C      1  0.4850090000000  0.5655960000000  0.5676150000000 1.0
C      1  0.4109920000000  0.5765780000000  0.4783240000000 1.0
C      1  0.5104270000000  0.5309130000000  0.6145050000000 1.0
C      1  0.4386730000000  0.4923280000000  0.5590820000000 1.0
C      1  0.4088930000000  0.5434460000000  0.5345670000000 1.0
C      1  0.5129470000000  0.4559350000000  0.6044960000000 1.0
C      1  0.4918780000000  0.5342260000000  0.4416930000000 1.0
C      1  0.4895550000000  0.4666170000000  0.5456290000000 1.0
C      1  0.5869420000000  0.4644920000000  0.4264060000000 1.0
C      1  0.3869000000000  0.4714340000000  0.5409440000000 1.0
C      1  0.5689930000000  0.4796690000000  0.5867550000000 1.0
C      1  0.4935960000000  0.4233020000000  0.5850430000000 1.0
C      1  0.5010190000000  0.5981560000000  0.4478730000000 1.0
C      1  0.4851920000000  0.5625810000000  0.4330210000000 1.0
C      1  0.4948970000000  0.5977710000000  0.5308320000000 1.0
C      1  0.5186170000000  0.5449490000000  0.4058840000000 1.0
C      1  0.6056110000000  0.5106980000000  0.4325770000000 1.0
C      1  0.5435570000000  0.4912450000000  0.5781940000000 1.0
C      1  0.5462790000000  0.5168030000000  0.5930370000000 1.0
C      1  0.4153140000000  0.5038090000000  0.4359370000000 1.0
C      1  0.4356250000000  0.4517960000000  0.5785060000000 1.0
C      1  0.4498220000000  0.5908130000000  0.5104450000000 1.0
C      1  0.5855490000000  0.4989680000000  0.5708110000000 1.0
C      1  0.5255170000000  0.4584020000000  0.4745250000000 1.0
C      1  0.5391480000000  0.4886900000000  0.5500630000000 1.0
C      1  0.4236160000000  0.5712750000000  0.4549860000000 1.0
C      1  0.4481980000000  0.5806950000000  0.5375100000000 1.0
C      1  0.4096480000000  0.4497440000000  0.4898370000000 1.0
C      1  0.3910070000000  0.5132400000000  0.4519730000000 1.0
C      1  0.4436210000000  0.5394870000000  0.5665660000000 1.0
C      1  0.3982750000000  0.5180640000000  0.5476580000000 1.0
C      1  0.3840920000000  0.5111480000000  0.5024610000000 1.0
C      1  0.3874660000000  0.5575760000000  0.4845160000000 1.0
C      1  0.4424410000000  0.4076770000000  0.5177980000000 1.0
C      1  0.5481630000000  0.4197490000000  0.5330010000000 1.0
C      1  0.5586690000000  0.5320720000000  0.4173830000000 1.0
C      1  0.4944040000000  0.5048050000000  0.3855090000000 1.0
C      1  0.4388710000000  0.5655730000000  0.4340260000000 1.0
C      1  0.5260880000000  0.5594890000000  0.5378420000000 1.0
C      1  0.4346510000000  0.5116230000000  0.4158010000000 1.0
C      1  0.5840270000000  0.5122510000000  0.5163970000000 1.0
C      1  0.5554890000000  0.5618980000000  0.4266800000000 1.0
C      1  0.5088880000000  0.4508500000000  0.5294320000000 1.0
C      1  0.3890510000000  0.5389950000000  0.5069420000000 1.0
C      1  0.4272270000000  0.4293200000000  0.4762350000000 1.0
C      1  0.4762590000000  0.4041350000000  0.4500130000000 1.0
C      1  0.4548720000000  0.5222690000000  0.5277180000000 1.0
C      1  0.4502080000000  0.4879480000000  0.4057100000000 1.0
C      1  0.4822420000000  0.4192690000000  0.5590990000000 1.0
C      1  0.4865750000000  0.4983700000000  0.5649720000000 1.0
C      1  0.4765050000000  0.5959870000000  0.4626920000000 1.0
C      1  0.5253890000000  0.4148100000000  0.4458050000000 1.0
C      1  0.4971760000000  0.5062780000000  0.5235060000000 1.0
C      1  0.5649830000000  0.5057330000000  0.4959190000000 1.0
C      1  0.5134790000000  0.4194550000000  0.4194800000000 1.0
C      1  0.4844910000000  0.4467030000000  0.5999620000000 1.0
C      1  0.4314920000000  0.5589850000000  0.5486070000000 1.0
C      1  0.5871550000000  0.4905090000000  0.5418150000000 1.0
C      1  0.5824250000000  0.4485620000000  0.5638720000000 1.0
C      1  0.4048500000000  0.4721750000000  0.4707950000000 1.0
C      1  0.4689450000000  0.3973460000000  0.4758490000000 1.0
C      1  0.5198560000000  0.5195420000000  0.3896480000000 1.0
C      1  0.5007980000000  0.4016710000000  0.5450160000000 1.0
C      1  0.5340200000000  0.6125080000000  0.4990700000000 1.0
C      1  0.4707510000000  0.4355930000000  0.4114900000000 1.0
C      1  0.4224150000000  0.4388720000000  0.5539340000000 1.0
C      1  0.5238790000000  0.5012990000000  0.5300380000000 1.0
C      1  0.5379290000000  0.4468870000000  0.5329830000000 1.0
C      1  0.5457760000000  0.4089760000000  0.4862480000000 1.0
C      1  0.4354830000000  0.4687720000000  0.4212830000000 1.0
C      1  0.5495150000000  0.5986080000000  0.5198420000000 1.0
C      1  0.5038770000000  0.6084430000000  0.5072340000000 1.0
C      1  0.4787300000000  0.4866990000000  0.4367050000000 1.0
C      1  0.4742880000000  0.4508050000000  0.4954070000000 1.0
C      1  0.5040990000000  0.5214460000000  0.5652050000000 1.0
C      1  0.5732690000000  0.5796490000000  0.5236290000000 1.0
C      1  0.5678370000000  0.4457610000000  0.4211220000000 1.0
C      1  0.5779610000000  0.5723250000000  0.5519770000000 1.0
C      1  0.6020540000000  0.5379680000000  0.4447370000000 1.0
C      1  0.5141150000000  0.5753920000000  0.5610520000000 1.0
C      1  0.4913270000000  0.5411860000000  0.5497000000000 1.0
C      1  0.5449000000000  0.5114010000000  0.4018810000000 1.0
C      1  0.4685000000000  0.4446770000000  0.5476370000000 1.0
C      1  0.4431000000000  0.4100700000000  0.4899940000000 1.0
C      1  0.5041440000000  0.4717600000000  0.4366010000000 1.0
C      1  0.5755240000000  0.5238570000000  0.5798330000000 1.0
C      1  0.5859530000000  0.5531510000000  0.4607210000000 1.0
C      1  0.4066250000000  0.4515640000000  0.5311900000000 1.0
C      1  0.5825950000000  0.5504800000000  0.5718800000000 1.0
C      1  0.5433810000000  0.4567880000000  0.4061960000000 1.0
C      1  0.4467030000000  0.5256290000000  0.4800010000000 1.0
C      1  0.4929320000000  0.5249180000000  0.4748890000000 1.0
C      1  0.3892530000000  0.4956980000000  0.4761080000000 1.0
C      1  0.4383880000000  0.5416630000000  0.4123550000000 1.0
C      1  0.5521930000000  0.4128510000000  0.4584060000000 1.0
C      1  0.4315820000000  0.5344460000000  0.5162700000000 1.0
C      1  0.5862610000000  0.4324140000000  0.4974230000000 1.0
C      1  0.5272400000000  0.5567330000000  0.4974310000000 1.0
C      1  0.4781730000000  0.4815290000000  0.3947500000000 1.0
C      1  0.5303240000000  0.5707420000000  0.4116440000000 1.0
C      1  0.5960510000000  0.4742860000000  0.4683080000000 1.0
C      1  0.4772980000000  0.5133810000000  0.4262650000000 1.0
C      1  0.4554290000000  0.5457640000000  0.3894200000000 1.0
C      1  0.4576740000000  0.5173790000000  0.6094880000000 1.0
END
