TITL C-884142-5251-278 -24.5901103690163 125000 -17510.228409035 0 0 116 (C1) n - 1
REM
REM in /home/nfs/bkarasulu/CARBON/AIRSS/Generating-Clusters/ReaxFF-fromJPCA2015/Units_Real/with-SteepDescent/Only-C1/SD-CG/Try1-3A/FIRE-CG
REM
REM
REM
REM
REM
REM ./C.cell (11c1c37f851c82e70ff6c80c92926a4b)
REM
REM compiler GCC version 9.2.1 20190827 (Red Hat 9.2.1-1)
REM options -cpp -mtune=generic -march=x86-64 -g -O0 -fpre-include=/usr/include/finclude/math-vector-fortran.h
REM seed 286800279 -1183694553 789454917 1457678891 -1559938414 -2060275919 -806868674 -1178070748 -1380076339 878787524 -1272499615 -1586900356 -946432797 -1404372649 -599849464 311701117 964874782 2007902897 -753882614 1737926693 1823977049 9423540 -113800151 -1809895744 -940666247 1352678328 1865188388 -920180138 -909942411 -1951121662 -1129791911 -1082448339 1496950078
REM
CELL 1.54180   50.00000   50.00000   50.00000   90.00000   90.00000   90.00000
LATT -1
SFAC C  
C      1  0.5750780000000  0.4469370000000  0.4831530000000 1.0
C      1  0.4715670000000  0.5754000000000  0.5456440000000 1.0
C      1  0.5248760000000  0.5062010000000  0.5451320000000 1.0
C      1  0.4748000000000  0.4505520000000  0.4728980000000 1.0
C      1  0.4505940000000  0.5562090000000  0.5539780000000 1.0
C      1  0.4249920000000  0.5127200000000  0.5190570000000 1.0
C      1  0.5057640000000  0.4298080000000  0.5650690000000 1.0
C      1  0.5312840000000  0.5476980000000  0.4418390000000 1.0
C      1  0.4692060000000  0.5884780000000  0.5203150000000 1.0
C      1  0.5233700000000  0.4168990000000  0.5452950000000 1.0
C      1  0.5061110000000  0.5480880000000  0.5270290000000 1.0
C      1  0.4240220000000  0.5084830000000  0.4489990000000 1.0
C      1  0.5219320000000  0.5243050000000  0.5222910000000 1.0
C      1  0.4746000000000  0.5038210000000  0.4363470000000 1.0
C      1  0.5838060000000  0.5205170000000  0.5485590000000 1.0
C      1  0.5376520000000  0.4725930000000  0.5416440000000 1.0
C      1  0.4365650000000  0.5509390000000  0.4667360000000 1.0
C      1  0.4613770000000  0.5379920000000  0.5761170000000 1.0
C      1  0.5325900000000  0.5231920000000  0.5719770000000 1.0
C      1  0.5325800000000  0.4102960000000  0.4951300000000 1.0
C      1  0.5518050000000  0.4143900000000  0.5381590000000 1.0
C      1  0.5245670000000  0.5071760000000  0.4203450000000 1.0
C      1  0.4913080000000  0.4556970000000  0.4234990000000 1.0
C      1  0.5439060000000  0.5282420000000  0.4252090000000 1.0
C      1  0.5571400000000  0.4048420000000  0.5099570000000 1.0
C      1  0.4275090000000  0.4676680000000  0.5386120000000 1.0
C      1  0.5735360000000  0.5458690000000  0.4638070000000 1.0
C      1  0.4920420000000  0.5726900000000  0.4518510000000 1.0
C      1  0.4256270000000  0.4791270000000  0.4505960000000 1.0
C      1  0.5857260000000  0.5177280000000  0.4987310000000 1.0
C      1  0.4860310000000  0.4736750000000  0.5867490000000 1.0
C      1  0.4968960000000  0.5135720000000  0.5069170000000 1.0
C      1  0.5902070000000  0.5057590000000  0.5239170000000 1.0
C      1  0.5709710000000  0.4366080000000  0.5334800000000 1.0
C      1  0.5401410000000  0.5239460000000  0.4939370000000 1.0
C      1  0.4145890000000  0.5427010000000  0.4835090000000 1.0
C      1  0.4777280000000  0.4261520000000  0.4563140000000 1.0
C      1  0.4452690000000  0.5295150000000  0.4470990000000 1.0
C      1  0.5851470000000  0.4780560000000  0.5212370000000 1.0
C      1  0.5752980000000  0.4274480000000  0.5052370000000 1.0
C      1  0.5850980000000  0.4711120000000  0.4943010000000 1.0
C      1  0.5422070000000  0.4959500000000  0.4877960000000 1.0
C      1  0.4595810000000  0.4292580000000  0.5330730000000 1.0
C      1  0.4621180000000  0.4150910000000  0.5069520000000 1.0
C      1  0.5080490000000  0.5059930000000  0.4666860000000 1.0
C      1  0.5688670000000  0.5418300000000  0.4941380000000 1.0
C      1  0.5142680000000  0.4245300000000  0.5166790000000 1.0
C      1  0.4219340000000  0.4618880000000  0.4748910000000 1.0
C      1  0.4288310000000  0.5512530000000  0.5356480000000 1.0
C      1  0.3960530000000  0.4949010000000  0.4770170000000 1.0
C      1  0.4029370000000  0.4745830000000  0.4952730000000 1.0
C      1  0.5603620000000  0.4757810000000  0.4419750000000 1.0
C      1  0.4613370000000  0.5446320000000  0.5053950000000 1.0
C      1  0.5089490000000  0.4567040000000  0.5790580000000 1.0
C      1  0.4968170000000  0.4097570000000  0.4721320000000 1.0
C      1  0.4904020000000  0.5449110000000  0.5029880000000 1.0
C      1  0.4926840000000  0.4594800000000  0.5386700000000 1.0
C      1  0.5751490000000  0.4981730000000  0.4514830000000 1.0
C      1  0.5254250000000  0.4161870000000  0.4674490000000 1.0
C      1  0.4986160000000  0.5631450000000  0.5517270000000 1.0
C      1  0.4478870000000  0.4534310000000  0.5217370000000 1.0
C      1  0.4805600000000  0.4849710000000  0.5330260000000 1.0
C      1  0.5337350000000  0.4712320000000  0.5719090000000 1.0
C      1  0.5393770000000  0.5781160000000  0.5249810000000 1.0
C      1  0.5195770000000  0.5909050000000  0.5056680000000 1.0
C      1  0.4776850000000  0.5617800000000  0.4280140000000 1.0
C      1  0.4438170000000  0.4287970000000  0.4891430000000 1.0
C      1  0.5347120000000  0.4385460000000  0.4506530000000 1.0
C      1  0.4493320000000  0.5714860000000  0.5060870000000 1.0
C      1  0.4031870000000  0.5205120000000  0.4671280000000 1.0
C      1  0.4712760000000  0.4770700000000  0.4264700000000 1.0
C      1  0.4638180000000  0.5102780000000  0.5843040000000 1.0
C      1  0.4126590000000  0.4862010000000  0.5206170000000 1.0
C      1  0.4510990000000  0.5748940000000  0.4769240000000 1.0
C      1  0.5705420000000  0.5045320000000  0.5673570000000 1.0
C      1  0.4906830000000  0.5004810000000  0.5774610000000 1.0
C      1  0.4967180000000  0.5021790000000  0.5488050000000 1.0
C      1  0.4631420000000  0.4993540000000  0.4873070000000 1.0
C      1  0.5685910000000  0.5468150000000  0.5440490000000 1.0
C      1  0.4576270000000  0.5423070000000  0.4236150000000 1.0
C      1  0.4455360000000  0.4523170000000  0.4885490000000 1.0
C      1  0.4406730000000  0.4742860000000  0.5624710000000 1.0
C      1  0.5376930000000  0.5931220000000  0.4570240000000 1.0
C      1  0.5457810000000  0.5493310000000  0.5617260000000 1.0
C      1  0.5107840000000  0.5342760000000  0.5918450000000 1.0
C      1  0.5476770000000  0.4957100000000  0.5803880000000 1.0
C      1  0.4798600000000  0.4363440000000  0.5533960000000 1.0
C      1  0.4521600000000  0.4404120000000  0.4257120000000 1.0
C      1  0.5187840000000  0.4819710000000  0.4779350000000 1.0
C      1  0.4888930000000  0.5475480000000  0.5790610000000 1.0
C      1  0.5221270000000  0.5756100000000  0.4394150000000 1.0
C      1  0.5267970000000  0.5770320000000  0.4814510000000 1.0
C      1  0.5692600000000  0.5257830000000  0.4433870000000 1.0
C      1  0.4792390000000  0.5058250000000  0.4642160000000 1.0
C      1  0.5620580000000  0.5606640000000  0.5198130000000 1.0
C      1  0.4552080000000  0.4805680000000  0.5844100000000 1.0
C      1  0.5181140000000  0.4545490000000  0.5266810000000 1.0
C      1  0.4434190000000  0.4670510000000  0.4295830000000 1.0
C      1  0.4493910000000  0.5189830000000  0.5037020000000 1.0
C      1  0.5194890000000  0.4565360000000  0.4319160000000 1.0
C      1  0.4962150000000  0.5151750000000  0.4207710000000 1.0
C      1  0.5293510000000  0.5709570000000  0.5517630000000 1.0
C      1  0.4779900000000  0.4291730000000  0.4264800000000 1.0
C      1  0.5218010000000  0.5330070000000  0.4683180000000 1.0
C      1  0.4839820000000  0.5393380000000  0.4132870000000 1.0
C      1  0.4900760000000  0.4122480000000  0.5003560000000 1.0
C      1  0.4139140000000  0.5400440000000  0.5138690000000 1.0
C      1  0.5348200000000  0.4804490000000  0.4274190000000 1.0
C      1  0.5761650000000  0.4957100000000  0.4812950000000 1.0
C      1  0.5664780000000  0.4648190000000  0.5368380000000 1.0
C      1  0.4903510000000  0.5931590000000  0.5001490000000 1.0
C      1  0.4775450000000  0.5865330000000  0.4741860000000 1.0
C      1  0.5597480000000  0.4508070000000  0.4579200000000 1.0
C      1  0.5060160000000  0.5550050000000  0.4772610000000 1.0
C      1  0.4744080000000  0.4790670000000  0.5052590000000 1.0
C      1  0.4942800000000  0.4655500000000  0.4871910000000 1.0
END
