TITL C-884142-5251-83 -17.0624643840409 125000 -10080.3307302805 0 0 69 (C1) n - 1
REM
REM in /home/nfs/bkarasulu/CARBON/AIRSS/Generating-Clusters/ReaxFF-fromJPCA2015/Units_Real/with-SteepDescent/Only-C1/SD-CG/Try1-3A/FIRE-CG
REM
REM
REM
REM
REM
REM ./C.cell (11c1c37f851c82e70ff6c80c92926a4b)
REM
REM compiler GCC version 9.2.1 20190827 (Red Hat 9.2.1-1)
REM options -cpp -mtune=generic -march=x86-64 -g -O0 -fpre-include=/usr/include/finclude/math-vector-fortran.h
REM seed -1900683169 1213196967 -2046947158 731870100 1474193494 -119304894 1069423758 -272049346 -525163188 2050758671 -1841747074 -436888009 -328133705 1013501953 1703274022 1429793616 816718790 -985209594 174830852 1863390416 696624387 771880113 -1737418429 -555988172 -1034879123 173233819 -1935363494 -634701810 1869544757 -1645859246 1172631201 -2025975969 -26603339
REM
CELL 1.54180   50.00000   50.00000   50.00000   90.00000   90.00000   90.00000
LATT -1
SFAC C  
C      1  0.5135360000000  0.5000610000000  0.4412980000000 1.0
C      1  0.4782820000000  0.5898660000000  0.4941450000000 1.0
C      1  0.4813990000000  0.5644670000000  0.5004530000000 1.0
C      1  0.4857420000000  0.4859600000000  0.5154260000000 1.0
C      1  0.5301030000000  0.5676090000000  0.4571480000000 1.0
C      1  0.5006170000000  0.4665910000000  0.5282580000000 1.0
C      1  0.5306600000000  0.5070380000000  0.5172850000000 1.0
C      1  0.5862490000000  0.5132680000000  0.5273640000000 1.0
C      1  0.5464420000000  0.5058510000000  0.4915140000000 1.0
C      1  0.5061280000000  0.4930090000000  0.4692440000000 1.0
C      1  0.5723820000000  0.5437590000000  0.5028920000000 1.0
C      1  0.4995660000000  0.5191410000000  0.4241380000000 1.0
C      1  0.5584320000000  0.4762400000000  0.5492700000000 1.0
C      1  0.5304090000000  0.4366850000000  0.5277870000000 1.0
C      1  0.5289630000000  0.5169920000000  0.5668990000000 1.0
C      1  0.5406410000000  0.4524740000000  0.5499370000000 1.0
C      1  0.4957040000000  0.5160700000000  0.4848100000000 1.0
C      1  0.5180000000000  0.5420370000000  0.4261790000000 1.0
C      1  0.4888730000000  0.4418870000000  0.5195190000000 1.0
C      1  0.4690440000000  0.4427790000000  0.4987170000000 1.0
C      1  0.4262310000000  0.5274720000000  0.4834310000000 1.0
C      1  0.5192540000000  0.4304270000000  0.4888300000000 1.0
C      1  0.5053790000000  0.5640800000000  0.4407610000000 1.0
C      1  0.5808690000000  0.4872210000000  0.5381220000000 1.0
C      1  0.4599150000000  0.5041840000000  0.4495100000000 1.0
C      1  0.4186150000000  0.5054410000000  0.5239170000000 1.0
C      1  0.5102280000000  0.4804760000000  0.4211210000000 1.0
C      1  0.4737250000000  0.5191130000000  0.5612630000000 1.0
C      1  0.4736860000000  0.5259570000000  0.4363130000000 1.0
C      1  0.4811600000000  0.5500650000000  0.4511460000000 1.0
C      1  0.5137580000000  0.4632260000000  0.5562260000000 1.0
C      1  0.5386870000000  0.4610690000000  0.4568460000000 1.0
C      1  0.5504930000000  0.5608050000000  0.5081320000000 1.0
C      1  0.5745640000000  0.5157110000000  0.4997990000000 1.0
C      1  0.4339370000000  0.4943120000000  0.5429470000000 1.0
C      1  0.4742600000000  0.5533080000000  0.5283170000000 1.0
C      1  0.5403440000000  0.5414670000000  0.4464030000000 1.0
C      1  0.5002960000000  0.5120910000000  0.5147750000000 1.0
C      1  0.4333630000000  0.4587250000000  0.4666030000000 1.0
C      1  0.4889290000000  0.4694800000000  0.4296230000000 1.0
C      1  0.4742760000000  0.4788100000000  0.4488030000000 1.0
C      1  0.5383700000000  0.5301080000000  0.4737890000000 1.0
C      1  0.5467180000000  0.5496390000000  0.5368350000000 1.0
C      1  0.4517410000000  0.4708640000000  0.5399360000000 1.0
C      1  0.5310960000000  0.4498510000000  0.5008670000000 1.0
C      1  0.4472020000000  0.5208400000000  0.5503910000000 1.0
C      1  0.5247160000000  0.4366650000000  0.4477960000000 1.0
C      1  0.5217900000000  0.5403750000000  0.5509270000000 1.0
C      1  0.5286760000000  0.4591930000000  0.4289620000000 1.0
C      1  0.4849770000000  0.5413440000000  0.4784540000000 1.0
C      1  0.5724440000000  0.5366230000000  0.5433120000000 1.0
C      1  0.4601840000000  0.4528570000000  0.4531640000000 1.0
C      1  0.5324370000000  0.5563110000000  0.4850680000000 1.0
C      1  0.5036680000000  0.4259680000000  0.4658360000000 1.0
C      1  0.4418940000000  0.5058790000000  0.4720550000000 1.0
C      1  0.4480860000000  0.5425610000000  0.5304550000000 1.0
C      1  0.4934960000000  0.5350220000000  0.5414660000000 1.0
C      1  0.4812900000000  0.4932300000000  0.5731270000000 1.0
C      1  0.4270400000000  0.5433830000000  0.5089510000000 1.0
C      1  0.4759320000000  0.4360000000000  0.4717170000000 1.0
C      1  0.4591890000000  0.4705070000000  0.5092980000000 1.0
C      1  0.4390390000000  0.4800160000000  0.4861360000000 1.0
C      1  0.5408670000000  0.5013560000000  0.5433390000000 1.0
C      1  0.5299210000000  0.4766780000000  0.4801180000000 1.0
C      1  0.4720490000000  0.4655700000000  0.5598360000000 1.0
C      1  0.5071210000000  0.5022870000000  0.5768440000000 1.0
C      1  0.4923610000000  0.4435800000000  0.5608650000000 1.0
C      1  0.4109280000000  0.5215110000000  0.5059800000000 1.0
C      1  0.5036260000000  0.4265590000000  0.5393040000000 1.0
END
