TITL C-883730-8503-75 11.6080246841531 125000 -23295.9961514354 0 0 155 (C1) n - 1
REM
REM in /home/nfs/bkarasulu/CARBON/AIRSS/Generating-Clusters/ReaxFF-fromJPCA2015/Units_Real/with-SteepDescent/Only-C1/SD-CG/Try1-3A/FIRE-CG
REM
REM
REM
REM
REM
REM ./C.cell (11c1c37f851c82e70ff6c80c92926a4b)
REM
REM compiler GCC version 9.2.1 20190827 (Red Hat 9.2.1-1)
REM options -cpp -mtune=generic -march=x86-64 -g -O0 -fpre-include=/usr/include/finclude/math-vector-fortran.h
REM seed -1673972717 18457392 -1375948817 -1883456479 -1072574379 1130309647 2126492662 -2083070146 1718172845 -409519339 -1837204367 -1372432535 -1506555072 -1053056441 1570849053 935464634 788868238 -980322348 -351777473 1050144861 761502207 -1741499474 1067677120 -815741990 -960811467 172155758 487044377 1445244441 -1699920211 500811003 790795590 1493354595 381257373
REM
CELL 1.54180   50.00000   50.00000   50.00000   90.00000   90.00000   90.00000
LATT -1
SFAC C  
C      1  0.5432040000000  0.5861790000000  0.5054720000000 1.0
C      1  0.5027690000000  0.6043600000000  0.4912610000000 1.0
C      1  0.4459520000000  0.5646970000000  0.5189250000000 1.0
C      1  0.6081240000000  0.5110090000000  0.5322450000000 1.0
C      1  0.4787810000000  0.5280020000000  0.5208970000000 1.0
C      1  0.5667260000000  0.4380030000000  0.4557290000000 1.0
C      1  0.4105920000000  0.4864450000000  0.5616590000000 1.0
C      1  0.5569180000000  0.5582980000000  0.5071300000000 1.0
C      1  0.4575790000000  0.5618510000000  0.5726480000000 1.0
C      1  0.4822520000000  0.4018590000000  0.5168210000000 1.0
C      1  0.5733410000000  0.4835560000000  0.5189590000000 1.0
C      1  0.3993330000000  0.4749390000000  0.4657140000000 1.0
C      1  0.5563700000000  0.5832280000000  0.5471360000000 1.0
C      1  0.4576990000000  0.4874440000000  0.5327950000000 1.0
C      1  0.5992330000000  0.5039650000000  0.5596600000000 1.0
C      1  0.5105490000000  0.5821180000000  0.4274780000000 1.0
C      1  0.5874130000000  0.4784070000000  0.5664320000000 1.0
C      1  0.4642770000000  0.5378560000000  0.4844320000000 1.0
C      1  0.5202000000000  0.4765520000000  0.4699830000000 1.0
C      1  0.4460310000000  0.4417500000000  0.4438420000000 1.0
C      1  0.4953800000000  0.5978080000000  0.4444660000000 1.0
C      1  0.4917560000000  0.4443070000000  0.5316950000000 1.0
C      1  0.5454870000000  0.5057650000000  0.4001650000000 1.0
C      1  0.5281180000000  0.5727980000000  0.4559280000000 1.0
C      1  0.4134380000000  0.4836740000000  0.5130990000000 1.0
C      1  0.4780360000000  0.4792090000000  0.4461240000000 1.0
C      1  0.3942730000000  0.4930310000000  0.4918950000000 1.0
C      1  0.5098080000000  0.5357790000000  0.4095210000000 1.0
C      1  0.5867690000000  0.5301850000000  0.4864210000000 1.0
C      1  0.5175290000000  0.4487890000000  0.4655590000000 1.0
C      1  0.4099990000000  0.4255780000000  0.5213710000000 1.0
C      1  0.4630760000000  0.4702580000000  0.4696710000000 1.0
C      1  0.4564570000000  0.5166630000000  0.4683970000000 1.0
C      1  0.5187760000000  0.5086030000000  0.5941120000000 1.0
C      1  0.5061170000000  0.4869150000000  0.4482400000000 1.0
C      1  0.5720670000000  0.4909420000000  0.5892290000000 1.0
C      1  0.4574820000000  0.4288190000000  0.5575810000000 1.0
C      1  0.4449440000000  0.5702810000000  0.5478750000000 1.0
C      1  0.5622830000000  0.5475350000000  0.5824650000000 1.0
C      1  0.5396230000000  0.5991480000000  0.5319630000000 1.0
C      1  0.4149930000000  0.5136150000000  0.4396860000000 1.0
C      1  0.4367730000000  0.4115960000000  0.5150650000000 1.0
C      1  0.4801150000000  0.5601560000000  0.4741840000000 1.0
C      1  0.5512420000000  0.5024640000000  0.5274280000000 1.0
C      1  0.4886810000000  0.4647160000000  0.4083220000000 1.0
C      1  0.5102300000000  0.4844610000000  0.5788670000000 1.0
C      1  0.5364540000000  0.4050070000000  0.5148620000000 1.0
C      1  0.4754430000000  0.4417420000000  0.5768610000000 1.0
C      1  0.5396520000000  0.4531350000000  0.5115150000000 1.0
C      1  0.4088160000000  0.5347140000000  0.4594870000000 1.0
C      1  0.4204130000000  0.5612760000000  0.4992000000000 1.0
C      1  0.4532820000000  0.5047300000000  0.5542560000000 1.0
C      1  0.5006990000000  0.5334310000000  0.4378840000000 1.0
C      1  0.5103980000000  0.4814210000000  0.3986800000000 1.0
C      1  0.5265520000000  0.5905760000000  0.4828830000000 1.0
C      1  0.5307050000000  0.4705550000000  0.5623690000000 1.0
C      1  0.6139380000000  0.5111940000000  0.4437700000000 1.0
C      1  0.5210560000000  0.5245600000000  0.4967590000000 1.0
C      1  0.4406590000000  0.4876800000000  0.5096560000000 1.0
C      1  0.5055790000000  0.4890070000000  0.5293970000000 1.0
C      1  0.4344130000000  0.4748930000000  0.5742050000000 1.0
C      1  0.5400560000000  0.4760540000000  0.4003960000000 1.0
C      1  0.5089630000000  0.5804270000000  0.5636250000000 1.0
C      1  0.5960300000000  0.4381220000000  0.5030280000000 1.0
C      1  0.5945520000000  0.5325390000000  0.5178120000000 1.0
C      1  0.5797970000000  0.4450000000000  0.4788920000000 1.0
C      1  0.4628700000000  0.4811640000000  0.4189160000000 1.0
C      1  0.4829630000000  0.4727770000000  0.5726010000000 1.0
C      1  0.4928650000000  0.5987330000000  0.5191280000000 1.0
C      1  0.5157870000000  0.5126210000000  0.4498990000000 1.0
C      1  0.5306720000000  0.4771750000000  0.5326050000000 1.0
C      1  0.4124110000000  0.4450400000000  0.5437690000000 1.0
C      1  0.4717940000000  0.5518870000000  0.4151130000000 1.0
C      1  0.5405420000000  0.4449780000000  0.5743000000000 1.0
C      1  0.4039920000000  0.4716060000000  0.5374170000000 1.0
C      1  0.4950840000000  0.4257420000000  0.5926350000000 1.0
C      1  0.5005600000000  0.5068370000000  0.5074870000000 1.0
C      1  0.5959350000000  0.4914510000000  0.4390830000000 1.0
C      1  0.4055880000000  0.5145840000000  0.5553090000000 1.0
C      1  0.4940130000000  0.4409640000000  0.4249700000000 1.0
C      1  0.4727930000000  0.4290530000000  0.4423160000000 1.0
C      1  0.5078660000000  0.5605010000000  0.5822900000000 1.0
C      1  0.5688120000000  0.5541990000000  0.4797070000000 1.0
C      1  0.5630720000000  0.4675620000000  0.4943950000000 1.0
C      1  0.5112060000000  0.5992200000000  0.5428940000000 1.0
C      1  0.5260090000000  0.4069960000000  0.4882180000000 1.0
C      1  0.5796720000000  0.4648380000000  0.5409060000000 1.0
C      1  0.4008110000000  0.5413200000000  0.5065340000000 1.0
C      1  0.5334150000000  0.5220730000000  0.4716120000000 1.0
C      1  0.4981830000000  0.5628320000000  0.4085150000000 1.0
C      1  0.3994360000000  0.4356990000000  0.4970340000000 1.0
C      1  0.5522490000000  0.4293830000000  0.5227820000000 1.0
C      1  0.4804590000000  0.5182280000000  0.5906940000000 1.0
C      1  0.4589590000000  0.5240570000000  0.4406870000000 1.0
C      1  0.4551920000000  0.5388540000000  0.5101430000000 1.0
C      1  0.4274090000000  0.4310630000000  0.4653100000000 1.0
C      1  0.4223260000000  0.5596030000000  0.4705370000000 1.0
C      1  0.4650710000000  0.5848090000000  0.4704720000000 1.0
C      1  0.4556350000000  0.5636360000000  0.4330580000000 1.0
C      1  0.4417410000000  0.5755750000000  0.4540270000000 1.0
C      1  0.5802720000000  0.4375480000000  0.5279840000000 1.0
C      1  0.4996450000000  0.4840840000000  0.4899740000000 1.0
C      1  0.4491390000000  0.4921020000000  0.4816790000000 1.0
C      1  0.5541910000000  0.4850920000000  0.4707000000000 1.0
C      1  0.5064420000000  0.4243200000000  0.5460210000000 1.0
C      1  0.4800940000000  0.5453080000000  0.5836190000000 1.0
C      1  0.5720460000000  0.5631340000000  0.5568550000000 1.0
C      1  0.5167390000000  0.5107640000000  0.3951940000000 1.0
C      1  0.5795660000000  0.5530960000000  0.5291770000000 1.0
C      1  0.5316770000000  0.5312040000000  0.5579770000000 1.0
C      1  0.5604920000000  0.5123630000000  0.4765270000000 1.0
C      1  0.4601340000000  0.4118670000000  0.5330210000000 1.0
C      1  0.5676980000000  0.4854860000000  0.4382890000000 1.0
C      1  0.4363610000000  0.4190030000000  0.4883140000000 1.0
C      1  0.5488660000000  0.4372510000000  0.4333360000000 1.0
C      1  0.6081990000000  0.5316060000000  0.4652330000000 1.0
C      1  0.4776440000000  0.5746390000000  0.5234280000000 1.0
C      1  0.4615480000000  0.5118110000000  0.4157110000000 1.0
C      1  0.6138940000000  0.4863930000000  0.5181500000000 1.0
C      1  0.5600010000000  0.5137270000000  0.4239670000000 1.0
C      1  0.4834290000000  0.4738500000000  0.5394740000000 1.0
C      1  0.4388620000000  0.4674700000000  0.4332080000000 1.0
C      1  0.4914960000000  0.4415410000000  0.5039260000000 1.0
C      1  0.4607930000000  0.4918210000000  0.5783350000000 1.0
C      1  0.4802330000000  0.4070850000000  0.4605460000000 1.0
C      1  0.5099450000000  0.4014950000000  0.5275850000000 1.0
C      1  0.4925590000000  0.5507630000000  0.5314840000000 1.0
C      1  0.5186470000000  0.4243330000000  0.5735000000000 1.0
C      1  0.4787480000000  0.4647200000000  0.4931510000000 1.0
C      1  0.4326150000000  0.5241430000000  0.5570550000000 1.0
C      1  0.5212560000000  0.5439250000000  0.5359580000000 1.0
C      1  0.5549820000000  0.5573780000000  0.4548270000000 1.0
C      1  0.5751480000000  0.5170630000000  0.5729920000000 1.0
C      1  0.5534320000000  0.5153270000000  0.5531990000000 1.0
C      1  0.5037960000000  0.3945340000000  0.4738650000000 1.0
C      1  0.5192480000000  0.4365910000000  0.4396090000000 1.0
C      1  0.5447510000000  0.4952590000000  0.6003860000000 1.0
C      1  0.5186110000000  0.4369410000000  0.4911450000000 1.0
C      1  0.6100660000000  0.4617920000000  0.5097840000000 1.0
C      1  0.4005300000000  0.4466180000000  0.4711880000000 1.0
C      1  0.3900810000000  0.5249290000000  0.5319230000000 1.0
C      1  0.3967510000000  0.5251470000000  0.4829850000000 1.0
C      1  0.4363450000000  0.5233400000000  0.4232180000000 1.0
C      1  0.5978030000000  0.5377640000000  0.4397640000000 1.0
C      1  0.4839270000000  0.6074660000000  0.4682660000000 1.0
C      1  0.3790780000000  0.5056460000000  0.5143860000000 1.0
C      1  0.4351170000000  0.4475540000000  0.5624440000000 1.0
C      1  0.5373570000000  0.5331430000000  0.5159320000000 1.0
C      1  0.4164700000000  0.4841540000000  0.4446340000000 1.0
C      1  0.4784870000000  0.3955800000000  0.4881090000000 1.0
C      1  0.5037940000000  0.5545890000000  0.4586220000000 1.0
C      1  0.4339530000000  0.5510430000000  0.5647130000000 1.0
C      1  0.5290750000000  0.5393270000000  0.5843100000000 1.0
C      1  0.5556580000000  0.4624360000000  0.4204550000000 1.0
C      1  0.5686600000000  0.5397020000000  0.4344200000000 1.0
END
