TITL C-884141-4321-44 3206173.56055775 125000 -19052.4110515656 0 0 127 (C1) n - 1
REM
REM in /home/nfs/bkarasulu/CARBON/AIRSS/Generating-Clusters/ReaxFF-fromJPCA2015/Units_Real/with-SteepDescent/Only-C1/SD-CG/Try1-3A/FIRE-CG
REM
REM
REM
REM
REM
REM ./C.cell (11c1c37f851c82e70ff6c80c92926a4b)
REM
REM compiler GCC version 9.2.1 20190827 (Red Hat 9.2.1-1)
REM options -cpp -mtune=generic -march=x86-64 -g -O0 -fpre-include=/usr/include/finclude/math-vector-fortran.h
REM seed 555478166 759388749 -1010930248 1697402309 -350162242 2064279412 262120997 -1724313004 330129080 -1293261346 694347784 -1404564966 2097919472 1470872816 771037083 1481025561 -1120148015 399224307 2077789933 -1523497314 911782547 724200447 -623595708 1536033892 663539776 -1118841166 -686518931 1179751452 1869357840 1893001625 -933761918 -1117161071 178010421
REM
CELL 1.54180   50.00000   50.00000   50.00000   90.00000   90.00000   90.00000
LATT -1
SFAC C  
C      1  0.5288430000000  0.4805700000000  0.5660090000000 1.0
C      1  0.4585760000000  0.4568090000000  0.4853270000000 1.0
C      1  0.4987530000000  0.5294810000000  0.4092850000000 1.0
C      1  0.5946410000000  0.4978620000000  0.4754300000000 1.0
C      1  0.4583570000000  0.5500010000000  0.4350880000000 1.0
C      1  0.5139300000000  0.4503990000000  0.5899160000000 1.0
C      1  0.5184460000000  0.5689290000000  0.5310180000000 1.0
C      1  0.5015010000000  0.5902140000000  0.5411870000000 1.0
C      1  0.5619770000000  0.4380930000000  0.5428780000000 1.0
C      1  0.5308320000000  0.5317310000000  0.5817930000000 1.0
C      1  0.5493280000000  0.5363360000000  0.5594030000000 1.0
C      1  0.4285960000000  0.5471060000000  0.4347760000000 1.0
C      1  0.4957100000000  0.5100730000000  0.5880890000000 1.0
C      1  0.5212450000000  0.4299680000000  0.4406850000000 1.0
C      1  0.5032490000000  0.5567150000000  0.5079670000000 1.0
C      1  0.4557820000000  0.4290010000000  0.4805480000000 1.0
C      1  0.4987950000000  0.4503680000000  0.5395180000000 1.0
C      1  0.4635980000000  0.5059000000000  0.4061300000000 1.0
C      1  0.4656480000000  0.4265240000000  0.5545630000000 1.0
C      1  0.5065310000000  0.5246310000000  0.5343940000000 1.0
C      1  0.4578630000000  0.5466110000000  0.4853030000000 1.0
C      1  0.5749960000000  0.5370700000000  0.4354000000000 1.0
C      1  0.4773240000000  0.5038850000000  0.4924600000000 1.0
C      1  0.4364330000000  0.5666030000000  0.5610610000000 1.0
C      1  0.4269700000000  0.4373930000000  0.5295190000000 1.0
C      1  0.5418290000000  0.4484770000000  0.5878950000000 1.0
C      1  0.4949120000000  0.4487490000000  0.5128940000000 1.0
C      1  0.5207230000000  0.5794830000000  0.4492840000000 1.0
C      1  0.5709630000000  0.4341190000000  0.4918250000000 1.0
C      1  0.4795220000000  0.5559950000000  0.5750500000000 1.0
C      1  0.4534040000000  0.5829990000000  0.5454320000000 1.0
C      1  0.4318040000000  0.4380890000000  0.4393830000000 1.0
C      1  0.5307030000000  0.4139740000000  0.4610450000000 1.0
C      1  0.4990090000000  0.5005230000000  0.4755300000000 1.0
C      1  0.4091760000000  0.4522970000000  0.5104560000000 1.0
C      1  0.5711320000000  0.5575730000000  0.4841430000000 1.0
C      1  0.4993720000000  0.4722330000000  0.5600880000000 1.0
C      1  0.5313100000000  0.4818720000000  0.5363720000000 1.0
C      1  0.5277420000000  0.5435850000000  0.5408250000000 1.0
C      1  0.5243450000000  0.5032470000000  0.5846260000000 1.0
C      1  0.5521570000000  0.4568900000000  0.4620330000000 1.0
C      1  0.5105640000000  0.4456390000000  0.4906630000000 1.0
C      1  0.3992460000000  0.4698400000000  0.5332390000000 1.0
C      1  0.5730270000000  0.5597060000000  0.4549240000000 1.0
C      1  0.5445750000000  0.5982820000000  0.5003310000000 1.0
C      1  0.5247870000000  0.4933820000000  0.4804200000000 1.0
C      1  0.4510430000000  0.5132130000000  0.4795300000000 1.0
C      1  0.5689850000000  0.4536260000000  0.5164960000000 1.0
C      1  0.4900450000000  0.5062080000000  0.4510600000000 1.0
C      1  0.5093500000000  0.5041870000000  0.3986880000000 1.0
C      1  0.5681490000000  0.5177850000000  0.5465360000000 1.0
C      1  0.4205230000000  0.5450790000000  0.5200160000000 1.0
C      1  0.4833980000000  0.4893480000000  0.5154370000000 1.0
C      1  0.4205570000000  0.5460230000000  0.5493110000000 1.0
C      1  0.5806970000000  0.5373330000000  0.5037810000000 1.0
C      1  0.5664940000000  0.4529020000000  0.5672350000000 1.0
C      1  0.4400680000000  0.4696390000000  0.5665040000000 1.0
C      1  0.4340430000000  0.5015520000000  0.4088970000000 1.0
C      1  0.5594710000000  0.4895730000000  0.4234160000000 1.0
C      1  0.5779000000000  0.4868360000000  0.5108580000000 1.0
C      1  0.5122240000000  0.3939540000000  0.5185090000000 1.0
C      1  0.4233630000000  0.5021540000000  0.4889300000000 1.0
C      1  0.5015650000000  0.5569510000000  0.4582300000000 1.0
C      1  0.4913450000000  0.4619240000000  0.4191760000000 1.0
C      1  0.4707400000000  0.5334140000000  0.4123570000000 1.0
C      1  0.5428630000000  0.5083210000000  0.4653870000000 1.0
C      1  0.5580780000000  0.4285300000000  0.4669600000000 1.0
C      1  0.5726140000000  0.5031090000000  0.4635230000000 1.0
C      1  0.5475260000000  0.5427230000000  0.4271650000000 1.0
C      1  0.4769260000000  0.5449530000000  0.5089040000000 1.0
C      1  0.4715340000000  0.6007770000000  0.5026570000000 1.0
C      1  0.5664900000000  0.5132480000000  0.5172270000000 1.0
C      1  0.4093280000000  0.5187990000000  0.5100120000000 1.0
C      1  0.5329530000000  0.5231600000000  0.4437680000000 1.0
C      1  0.5012730000000  0.5388170000000  0.5846130000000 1.0
C      1  0.4922530000000  0.4033030000000  0.4989110000000 1.0
C      1  0.4779200000000  0.5296280000000  0.5324700000000 1.0
C      1  0.5795580000000  0.5078460000000  0.4383710000000 1.0
C      1  0.6105630000000  0.5056550000000  0.5289840000000 1.0
C      1  0.4658720000000  0.5076250000000  0.5474130000000 1.0
C      1  0.4194560000000  0.4559370000000  0.5511940000000 1.0
C      1  0.5413170000000  0.4640140000000  0.5167380000000 1.0
C      1  0.4209320000000  0.4808920000000  0.4197580000000 1.0
C      1  0.5449760000000  0.4660200000000  0.4352760000000 1.0
C      1  0.4619810000000  0.4997490000000  0.4549000000000 1.0
C      1  0.5155120000000  0.4059360000000  0.5451320000000 1.0
C      1  0.5052180000000  0.5276780000000  0.4394960000000 1.0
C      1  0.4520240000000  0.4222160000000  0.5288940000000 1.0
C      1  0.5173210000000  0.6086420000000  0.4952050000000 1.0
C      1  0.4378360000000  0.5616780000000  0.5041860000000 1.0
C      1  0.4166390000000  0.5220700000000  0.4235370000000 1.0
C      1  0.5916360000000  0.5006600000000  0.5531940000000 1.0
C      1  0.4869750000000  0.4579860000000  0.5854980000000 1.0
C      1  0.4950650000000  0.4247720000000  0.5536050000000 1.0
C      1  0.4819830000000  0.4944180000000  0.5673210000000 1.0
C      1  0.4702730000000  0.4522560000000  0.4378970000000 1.0
C      1  0.4412120000000  0.4993900000000  0.5599490000000 1.0
C      1  0.5802070000000  0.4765930000000  0.5615930000000 1.0
C      1  0.4168160000000  0.4734860000000  0.4908090000000 1.0
C      1  0.4795690000000  0.5795010000000  0.5573660000000 1.0
C      1  0.5448620000000  0.5696440000000  0.4898590000000 1.0
C      1  0.5187740000000  0.5560120000000  0.4842510000000 1.0
C      1  0.4964540000000  0.6056660000000  0.5165740000000 1.0
C      1  0.4503020000000  0.5848140000000  0.5163350000000 1.0
C      1  0.4724540000000  0.4633770000000  0.5113250000000 1.0
C      1  0.4615220000000  0.4501310000000  0.5719290000000 1.0
C      1  0.5079950000000  0.4195870000000  0.4791690000000 1.0
C      1  0.5091630000000  0.6012250000000  0.4664420000000 1.0
C      1  0.4511770000000  0.5482420000000  0.5775130000000 1.0
C      1  0.6050960000000  0.4909520000000  0.5013950000000 1.0
C      1  0.5190480000000  0.4522870000000  0.4244240000000 1.0
C      1  0.4714010000000  0.5565970000000  0.4597230000000 1.0
C      1  0.5473370000000  0.5686230000000  0.4417780000000 1.0
C      1  0.4016990000000  0.4965560000000  0.5244570000000 1.0
C      1  0.4331250000000  0.5264470000000  0.5679940000000 1.0
C      1  0.4560550000000  0.4285760000000  0.4501660000000 1.0
C      1  0.5428860000000  0.3970240000000  0.5142490000000 1.0
C      1  0.4864100000000  0.4866440000000  0.4047900000000 1.0
C      1  0.5322920000000  0.4654990000000  0.4868580000000 1.0
C      1  0.4649860000000  0.4129060000000  0.5036110000000 1.0
C      1  0.6045990000000  0.5296190000000  0.5153340000000 1.0
C      1  0.4803660000000  0.6022070000000  0.4734810000000 1.0
C      1  0.4605460000000  0.4703970000000  0.4590990000000 1.0
C      1  0.5446720000000  0.4137860000000  0.5392850000000 1.0
C      1  0.5373470000000  0.4969080000000  0.4065260000000 1.0
C      1  0.5084650000000  0.4976020000000  0.5270320000000 1.0
C      1  0.4200810000000  0.4573570000000  0.4293180000000 1.0
END
