TITL C-883739-1268-113 -3.50219890852415 125000 -7229.46167905882 0 0 49 (C1) n - 1
REM
REM in /home/nfs/bkarasulu/CARBON/AIRSS/Generating-Clusters/ReaxFF-fromJPCA2015/Units_Real/with-SteepDescent/Only-C1/SD-CG/Try1-3A/FIRE-CG
REM
REM
REM
REM
REM
REM ./C.cell (11c1c37f851c82e70ff6c80c92926a4b)
REM
REM compiler GCC version 9.2.1 20190827 (Red Hat 9.2.1-1)
REM options -cpp -mtune=generic -march=x86-64 -g -O0 -fpre-include=/usr/include/finclude/math-vector-fortran.h
REM seed 698944326 656850859 -1172893303 -576520029 -512327139 -1643999341 330817676 -2035825055 1329937267 918671704 1791717317 792339290 -511413279 -972971933 -422499798 -174035071 1960888358 1431920791 1357622145 -1949668445 -13710527 -719661159 -1643560758 712357021 -318803074 327750621 -1091423299 -613117193 522309901 -2104566740 1346434048 -235282395 -540315675
REM
CELL 1.54180   50.00000   50.00000   50.00000   90.00000   90.00000   90.00000
LATT -1
SFAC C  
C      1  0.5442040000000  0.5440340000000  0.4881300000000 1.0
C      1  0.4135320000000  0.5403950000000  0.5093930000000 1.0
C      1  0.4867230000000  0.5663700000000  0.5280280000000 1.0
C      1  0.4853890000000  0.4325490000000  0.5421820000000 1.0
C      1  0.4542210000000  0.5264970000000  0.5350530000000 1.0
C      1  0.5237580000000  0.4732290000000  0.4396700000000 1.0
C      1  0.4649900000000  0.4353460000000  0.4768880000000 1.0
C      1  0.5607070000000  0.4822000000000  0.4858230000000 1.0
C      1  0.5487780000000  0.4849420000000  0.4458760000000 1.0
C      1  0.5291240000000  0.4410420000000  0.5087660000000 1.0
C      1  0.4736560000000  0.5221620000000  0.4854070000000 1.0
C      1  0.4784110000000  0.5105420000000  0.5459510000000 1.0
C      1  0.4930000000000  0.4703450000000  0.5163170000000 1.0
C      1  0.4499900000000  0.4805960000000  0.4785270000000 1.0
C      1  0.5315990000000  0.4739480000000  0.4833580000000 1.0
C      1  0.5197410000000  0.5621050000000  0.4838160000000 1.0
C      1  0.4785330000000  0.4802700000000  0.5391050000000 1.0
C      1  0.5076290000000  0.5534650000000  0.5484620000000 1.0
C      1  0.5616410000000  0.4839020000000  0.5146850000000 1.0
C      1  0.5142850000000  0.5479840000000  0.4598170000000 1.0
C      1  0.4437040000000  0.4518570000000  0.5216700000000 1.0
C      1  0.4686290000000  0.4771890000000  0.4566020000000 1.0
C      1  0.5528230000000  0.5091730000000  0.5263530000000 1.0
C      1  0.4585110000000  0.5551830000000  0.5309400000000 1.0
C      1  0.5106380000000  0.4997880000000  0.4383080000000 1.0
C      1  0.5282640000000  0.5023530000000  0.5402910000000 1.0
C      1  0.5284460000000  0.4447990000000  0.4795640000000 1.0
C      1  0.4820110000000  0.5000390000000  0.4436590000000 1.0
C      1  0.4822210000000  0.4507930000000  0.4581200000000 1.0
C      1  0.5012880000000  0.5654570000000  0.5058250000000 1.0
C      1  0.5118750000000  0.4498980000000  0.4558320000000 1.0
C      1  0.5032910000000  0.5145130000000  0.5285580000000 1.0
C      1  0.4349020000000  0.5169960000000  0.5153870000000 1.0
C      1  0.5320610000000  0.4732570000000  0.5483120000000 1.0
C      1  0.5494280000000  0.5270660000000  0.4650180000000 1.0
C      1  0.5456050000000  0.4606800000000  0.5249790000000 1.0
C      1  0.4637570000000  0.4551990000000  0.5434770000000 1.0
C      1  0.4342210000000  0.5581090000000  0.5174220000000 1.0
C      1  0.5353570000000  0.5518040000000  0.5369090000000 1.0
C      1  0.5076540000000  0.4860710000000  0.4964420000000 1.0
C      1  0.4729960000000  0.5263480000000  0.4559270000000 1.0
C      1  0.5645300000000  0.5010960000000  0.4631840000000 1.0
C      1  0.5248820000000  0.5255690000000  0.4473450000000 1.0
C      1  0.5504760000000  0.5374380000000  0.5166220000000 1.0
C      1  0.4989930000000  0.5136520000000  0.4997670000000 1.0
C      1  0.5011710000000  0.4408770000000  0.5191400000000 1.0
C      1  0.4467640000000  0.4540800000000  0.4922520000000 1.0
C      1  0.4966450000000  0.5323320000000  0.5649270000000 1.0
C      1  0.4489480000000  0.5064590000000  0.4919130000000 1.0
END
