TITL C-884136-4169-213 14.224791068752 125000 -8862.71544410478 0 0 61 (C1) n - 1
REM
REM in /home/nfs/bkarasulu/CARBON/AIRSS/Generating-Clusters/ReaxFF-fromJPCA2015/Units_Real/with-SteepDescent/Only-C1/SD-CG/Try1-3A/FIRE-CG
REM
REM
REM
REM
REM
REM ./C.cell (11c1c37f851c82e70ff6c80c92926a4b)
REM
REM compiler GCC version 9.2.1 20190827 (Red Hat 9.2.1-1)
REM options -cpp -mtune=generic -march=x86-64 -g -O0 -fpre-include=/usr/include/finclude/math-vector-fortran.h
REM seed -2010294339 -2136966983 1708953170 -731288663 1584398025 1053717833 546081370 449159785 553572381 1122687395 -1929794643 -1541921661 -254994669 583036567 -1002149493 725868447 -178167611 -1862388224 -1853689068 -864180441 1869687899 1568423321 378841002 815153190 -233354013 -1009050121 -1501589014 -1650019432 -1771085102 -365557634 15800309 -1831275926 -267863192
REM
CELL 1.54180   50.00000   50.00000   50.00000   90.00000   90.00000   90.00000
LATT -1
SFAC C  
C      1  0.5335800000000  0.4476060000000  0.4535890000000 1.0
C      1  0.5251090000000  0.5166690000000  0.5292200000000 1.0
C      1  0.5570370000000  0.4960430000000  0.5574730000000 1.0
C      1  0.5488620000000  0.4914530000000  0.4671380000000 1.0
C      1  0.4550930000000  0.4439290000000  0.4752600000000 1.0
C      1  0.4478540000000  0.5318470000000  0.4973420000000 1.0
C      1  0.4587410000000  0.5691900000000  0.4628630000000 1.0
C      1  0.4853560000000  0.4583390000000  0.4407610000000 1.0
C      1  0.5468770000000  0.5550890000000  0.4834660000000 1.0
C      1  0.4529990000000  0.4722630000000  0.5482340000000 1.0
C      1  0.5135110000000  0.5430420000000  0.5242460000000 1.0
C      1  0.5575690000000  0.4609000000000  0.4615030000000 1.0
C      1  0.5221600000000  0.4944350000000  0.4494360000000 1.0
C      1  0.5046380000000  0.5140990000000  0.4611870000000 1.0
C      1  0.5131020000000  0.4681550000000  0.4433950000000 1.0
C      1  0.4824730000000  0.5683460000000  0.4449830000000 1.0
C      1  0.4890740000000  0.4212650000000  0.5059680000000 1.0
C      1  0.4786800000000  0.4661520000000  0.5594760000000 1.0
C      1  0.4654820000000  0.4448310000000  0.5452400000000 1.0
C      1  0.4949790000000  0.4198480000000  0.4765800000000 1.0
C      1  0.5699670000000  0.5353280000000  0.4886020000000 1.0
C      1  0.4566880000000  0.5150090000000  0.4762620000000 1.0
C      1  0.5325520000000  0.4735800000000  0.5143840000000 1.0
C      1  0.4444640000000  0.4444210000000  0.5009690000000 1.0
C      1  0.4480400000000  0.5184790000000  0.5238160000000 1.0
C      1  0.4704940000000  0.5245700000000  0.5701120000000 1.0
C      1  0.4651590000000  0.4311850000000  0.5190250000000 1.0
C      1  0.4825770000000  0.5490280000000  0.4222570000000 1.0
C      1  0.5444640000000  0.4561300000000  0.5799110000000 1.0
C      1  0.4687390000000  0.4942120000000  0.4291770000000 1.0
C      1  0.4892240000000  0.4857750000000  0.4970170000000 1.0
C      1  0.5358760000000  0.4776690000000  0.5703840000000 1.0
C      1  0.4631810000000  0.4753490000000  0.4488950000000 1.0
C      1  0.5715650000000  0.5130280000000  0.4712700000000 1.0
C      1  0.4865060000000  0.5046790000000  0.5850350000000 1.0
C      1  0.5286650000000  0.5633700000000  0.5085400000000 1.0
C      1  0.5079310000000  0.5074540000000  0.5504870000000 1.0
C      1  0.4415560000000  0.4738920000000  0.5010700000000 1.0
C      1  0.5080920000000  0.4388080000000  0.5197120000000 1.0
C      1  0.4618380000000  0.4857500000000  0.4814270000000 1.0
C      1  0.5219600000000  0.4221760000000  0.4668030000000 1.0
C      1  0.5317090000000  0.5614360000000  0.4624620000000 1.0
C      1  0.4856520000000  0.5492440000000  0.5286320000000 1.0
C      1  0.5356950000000  0.4955690000000  0.4953240000000 1.0
C      1  0.4564670000000  0.5598970000000  0.4910160000000 1.0
C      1  0.5032180000000  0.4684900000000  0.5151430000000 1.0
C      1  0.4652060000000  0.5324900000000  0.5424970000000 1.0
C      1  0.5602540000000  0.5626120000000  0.5230800000000 1.0
C      1  0.4756150000000  0.4354820000000  0.4583180000000 1.0
C      1  0.5700140000000  0.5363460000000  0.5198280000000 1.0
C      1  0.4767770000000  0.5241560000000  0.4563980000000 1.0
C      1  0.5026540000000  0.4849370000000  0.5680330000000 1.0
C      1  0.4436600000000  0.4892480000000  0.5256490000000 1.0
C      1  0.5541110000000  0.5148660000000  0.5360570000000 1.0
C      1  0.4683090000000  0.5223300000000  0.4273470000000 1.0
C      1  0.4982280000000  0.5248550000000  0.5700580000000 1.0
C      1  0.5086390000000  0.5052130000000  0.4891350000000 1.0
C      1  0.5072600000000  0.5734380000000  0.4638210000000 1.0
C      1  0.5054020000000  0.5753470000000  0.4931060000000 1.0
C      1  0.4805200000000  0.5672760000000  0.5062100000000 1.0
C      1  0.5378940000000  0.4433750000000  0.5153710000000 1.0
END
