TITL C-883730-8503-274 3.21908622322446 125000 -16317.0313227021 0 0 109 (C1) n - 1
REM
REM in /home/nfs/bkarasulu/CARBON/AIRSS/Generating-Clusters/ReaxFF-fromJPCA2015/Units_Real/with-SteepDescent/Only-C1/SD-CG/Try1-3A/FIRE-CG
REM
REM
REM
REM
REM
REM ./C.cell (11c1c37f851c82e70ff6c80c92926a4b)
REM
REM compiler GCC version 9.2.1 20190827 (Red Hat 9.2.1-1)
REM options -cpp -mtune=generic -march=x86-64 -g -O0 -fpre-include=/usr/include/finclude/math-vector-fortran.h
REM seed -2015815676 -1690521613 -1741257604 630572725 768660620 114798423 -1238360825 -32323020 505602429 306797847 -1195872376 1616752946 1802506124 -972398446 199254568 1380447209 -1511698695 -1263413267 656708653 -528250920 2000811816 1228144858 -1141753972 1828435902 -1496910911 446976670 107148642 -377704460 1865152810 -366969227 1651474409 -157593880 249024610
REM
CELL 1.54180   50.00000   50.00000   50.00000   90.00000   90.00000   90.00000
LATT -1
SFAC C  
C      1  0.5648920000000  0.4470250000000  0.4615990000000 1.0
C      1  0.4175510000000  0.4952620000000  0.5106860000000 1.0
C      1  0.5605900000000  0.4526330000000  0.5624310000000 1.0
C      1  0.4739040000000  0.4531880000000  0.5140410000000 1.0
C      1  0.4371250000000  0.4290920000000  0.4896250000000 1.0
C      1  0.5355920000000  0.4665430000000  0.4191910000000 1.0
C      1  0.5060950000000  0.4568340000000  0.5750100000000 1.0
C      1  0.5141200000000  0.4136370000000  0.5438990000000 1.0
C      1  0.5328090000000  0.5389770000000  0.5115880000000 1.0
C      1  0.5095350000000  0.4449220000000  0.4866270000000 1.0
C      1  0.4841880000000  0.5924440000000  0.4968890000000 1.0
C      1  0.5883990000000  0.4998500000000  0.4738340000000 1.0
C      1  0.4590970000000  0.5558270000000  0.4357560000000 1.0
C      1  0.4880070000000  0.5515570000000  0.4276380000000 1.0
C      1  0.5098440000000  0.4526400000000  0.4129030000000 1.0
C      1  0.5129810000000  0.5856930000000  0.4694190000000 1.0
C      1  0.5162940000000  0.4838390000000  0.5167300000000 1.0
C      1  0.5388380000000  0.4783030000000  0.4716770000000 1.0
C      1  0.4488630000000  0.5249140000000  0.4959230000000 1.0
C      1  0.4447160000000  0.5846510000000  0.5242180000000 1.0
C      1  0.5828470000000  0.4749810000000  0.4629270000000 1.0
C      1  0.4611750000000  0.5405040000000  0.4771270000000 1.0
C      1  0.5329710000000  0.4706460000000  0.5371880000000 1.0
C      1  0.4557530000000  0.4746320000000  0.5164270000000 1.0
C      1  0.4492250000000  0.5616810000000  0.4624810000000 1.0
C      1  0.4661750000000  0.5013430000000  0.5006930000000 1.0
C      1  0.4612120000000  0.4828200000000  0.4143590000000 1.0
C      1  0.5436130000000  0.5730980000000  0.5415550000000 1.0
C      1  0.4645510000000  0.5327410000000  0.5494630000000 1.0
C      1  0.4918660000000  0.4859610000000  0.4569830000000 1.0
C      1  0.5026790000000  0.4570730000000  0.5123290000000 1.0
C      1  0.4740350000000  0.5584420000000  0.5618130000000 1.0
C      1  0.4484990000000  0.4289390000000  0.4639540000000 1.0
C      1  0.5587610000000  0.4854490000000  0.4505210000000 1.0
C      1  0.5343000000000  0.4937960000000  0.4946670000000 1.0
C      1  0.5454790000000  0.5282230000000  0.4611110000000 1.0
C      1  0.5510250000000  0.5112650000000  0.4378180000000 1.0
C      1  0.5348360000000  0.4190950000000  0.5266240000000 1.0
C      1  0.4454510000000  0.5318060000000  0.4266630000000 1.0
C      1  0.5108320000000  0.5123860000000  0.5581900000000 1.0
C      1  0.5402340000000  0.5203370000000  0.4894450000000 1.0
C      1  0.4996660000000  0.3952550000000  0.5239620000000 1.0
C      1  0.4546910000000  0.5965330000000  0.4988940000000 1.0
C      1  0.4690780000000  0.4317430000000  0.5629250000000 1.0
C      1  0.6066600000000  0.4739390000000  0.5273790000000 1.0
C      1  0.4269040000000  0.4393630000000  0.5397160000000 1.0
C      1  0.4848200000000  0.5120390000000  0.5451950000000 1.0
C      1  0.4971290000000  0.4206020000000  0.4510020000000 1.0
C      1  0.4255140000000  0.4544210000000  0.4864760000000 1.0
C      1  0.4510720000000  0.4229330000000  0.5407800000000 1.0
C      1  0.5182740000000  0.4316190000000  0.4343010000000 1.0
C      1  0.4838960000000  0.5072650000000  0.4768630000000 1.0
C      1  0.4851770000000  0.4670800000000  0.4112930000000 1.0
C      1  0.5258140000000  0.5568200000000  0.5598680000000 1.0
C      1  0.4662230000000  0.5819020000000  0.5448490000000 1.0
C      1  0.4706620000000  0.4348060000000  0.4474140000000 1.0
C      1  0.5938050000000  0.4926390000000  0.5361300000000 1.0
C      1  0.4915360000000  0.5572760000000  0.5241580000000 1.0
C      1  0.4892890000000  0.5848990000000  0.5262340000000 1.0
C      1  0.4371340000000  0.5788190000000  0.4830690000000 1.0
C      1  0.4610070000000  0.4242870000000  0.5113910000000 1.0
C      1  0.4980580000000  0.4325290000000  0.5625220000000 1.0
C      1  0.4940450000000  0.5711850000000  0.4795480000000 1.0
C      1  0.5884350000000  0.5279250000000  0.4789270000000 1.0
C      1  0.5575550000000  0.4543870000000  0.5340930000000 1.0
C      1  0.5326910000000  0.5759670000000  0.4511220000000 1.0
C      1  0.5307410000000  0.4959640000000  0.4227440000000 1.0
C      1  0.4453620000000  0.4761630000000  0.4395560000000 1.0
C      1  0.4891840000000  0.5363810000000  0.4762760000000 1.0
C      1  0.5003470000000  0.5502630000000  0.5727610000000 1.0
C      1  0.4419790000000  0.4744460000000  0.5659470000000 1.0
C      1  0.4178300000000  0.4813370000000  0.4852170000000 1.0
C      1  0.4916230000000  0.5059020000000  0.5189000000000 1.0
C      1  0.4892190000000  0.5227040000000  0.4176220000000 1.0
C      1  0.5567480000000  0.4299680000000  0.5130620000000 1.0
C      1  0.4841030000000  0.4729400000000  0.5852920000000 1.0
C      1  0.4611650000000  0.4560220000000  0.5772930000000 1.0
C      1  0.4998700000000  0.5215850000000  0.5823300000000 1.0
C      1  0.5408810000000  0.5680660000000  0.5119230000000 1.0
C      1  0.5533720000000  0.5143590000000  0.5580570000000 1.0
C      1  0.5124860000000  0.5619890000000  0.4366210000000 1.0
C      1  0.5605030000000  0.4375900000000  0.4862880000000 1.0
C      1  0.5133030000000  0.4663270000000  0.4670480000000 1.0
C      1  0.5341140000000  0.5325630000000  0.5448580000000 1.0
C      1  0.5318620000000  0.4711750000000  0.5665070000000 1.0
C      1  0.5830410000000  0.5458380000000  0.5023460000000 1.0
C      1  0.5641990000000  0.5674020000000  0.4939150000000 1.0
C      1  0.5595620000000  0.5677760000000  0.4649550000000 1.0
C      1  0.5862590000000  0.5408190000000  0.5312060000000 1.0
C      1  0.5039250000000  0.5019680000000  0.4314690000000 1.0
C      1  0.4276340000000  0.5663810000000  0.5084520000000 1.0
C      1  0.5001740000000  0.5355380000000  0.5075880000000 1.0
C      1  0.4627080000000  0.5127580000000  0.4125940000000 1.0
C      1  0.4500750000000  0.5013250000000  0.5740930000000 1.0
C      1  0.4206350000000  0.5160820000000  0.5304050000000 1.0
C      1  0.4388770000000  0.5197780000000  0.5542890000000 1.0
C      1  0.4267880000000  0.5365170000000  0.5095920000000 1.0
C      1  0.5696850000000  0.5619100000000  0.5397980000000 1.0
C      1  0.5327960000000  0.4997530000000  0.5721350000000 1.0
C      1  0.4262620000000  0.4917480000000  0.4557780000000 1.0
C      1  0.5714260000000  0.5420210000000  0.4581400000000 1.0
C      1  0.4840310000000  0.4061180000000  0.5013780000000 1.0
C      1  0.4242930000000  0.5180710000000  0.4442410000000 1.0
C      1  0.4348720000000  0.4691050000000  0.5371340000000 1.0
C      1  0.5798300000000  0.5141910000000  0.5454920000000 1.0
C      1  0.5008460000000  0.4178420000000  0.4796330000000 1.0
C      1  0.4781930000000  0.5016940000000  0.5847500000000 1.0
C      1  0.5431800000000  0.4463680000000  0.4393540000000 1.0
C      1  0.4679180000000  0.4639680000000  0.4528250000000 1.0
END
