TITL C-884132-5695-231 -14.3284114748129 125000 -27656.396256713 0 0 183 (C1) n - 1
REM
REM in /home/nfs/bkarasulu/CARBON/AIRSS/Generating-Clusters/ReaxFF-fromJPCA2015/Units_Real/with-SteepDescent/Only-C1/SD-CG/Try1-3A/FIRE-CG
REM
REM
REM
REM
REM
REM ./C.cell (11c1c37f851c82e70ff6c80c92926a4b)
REM
REM compiler GCC version 9.2.1 20190827 (Red Hat 9.2.1-1)
REM options -cpp -mtune=generic -march=x86-64 -g -O0 -fpre-include=/usr/include/finclude/math-vector-fortran.h
REM seed -1864381019 197393950 -210689363 468919926 -1041012483 1055849093 -363506747 2075585718 1278414356 -419288243 -194161176 718974598 326081585 -1621791048 761144136 -92607460 -919554547 2074368013 1241269354 -42541229 -1377100557 1352078144 903540498 -101545768 1473800017 -80793087 1058283735 -596610653 -2009447705 -385507059 1913061871 368486765 -59351901
REM
CELL 1.54180   50.00000   50.00000   50.00000   90.00000   90.00000   90.00000
LATT -1
SFAC C  
C      1  0.5747250000000  0.4281960000000  0.4549770000000 1.0
C      1  0.4476380000000  0.3940360000000  0.4969800000000 1.0
C      1  0.5130850000000  0.3973640000000  0.5675450000000 1.0
C      1  0.4737450000000  0.6038220000000  0.4670190000000 1.0
C      1  0.4507090000000  0.5267760000000  0.5019420000000 1.0
C      1  0.4120740000000  0.4505270000000  0.4609000000000 1.0
C      1  0.4097000000000  0.4450500000000  0.5288900000000 1.0
C      1  0.5234760000000  0.5693890000000  0.4418110000000 1.0
C      1  0.5772720000000  0.4256290000000  0.5296960000000 1.0
C      1  0.4934420000000  0.6216120000000  0.4771350000000 1.0
C      1  0.5405700000000  0.4149130000000  0.4239390000000 1.0
C      1  0.5383360000000  0.4525350000000  0.4749340000000 1.0
C      1  0.5213420000000  0.4514730000000  0.5212610000000 1.0
C      1  0.5196230000000  0.6132110000000  0.5235840000000 1.0
C      1  0.3980580000000  0.4660030000000  0.5106310000000 1.0
C      1  0.5901740000000  0.5059570000000  0.4601570000000 1.0
C      1  0.4211860000000  0.5638900000000  0.4180700000000 1.0
C      1  0.4758120000000  0.5646470000000  0.5136330000000 1.0
C      1  0.5505990000000  0.5584470000000  0.5838780000000 1.0
C      1  0.6032450000000  0.4937720000000  0.5451930000000 1.0
C      1  0.5286960000000  0.5647540000000  0.4697920000000 1.0
C      1  0.5849940000000  0.4343390000000  0.4810980000000 1.0
C      1  0.5585760000000  0.4137360000000  0.5494450000000 1.0
C      1  0.6137480000000  0.5292600000000  0.5115690000000 1.0
C      1  0.4809780000000  0.5773650000000  0.5803000000000 1.0
C      1  0.4884210000000  0.4654940000000  0.5998430000000 1.0
C      1  0.4887920000000  0.5529010000000  0.4915520000000 1.0
C      1  0.4342790000000  0.5931130000000  0.5007550000000 1.0
C      1  0.4658930000000  0.5833360000000  0.5568210000000 1.0
C      1  0.5222610000000  0.5028240000000  0.6107000000000 1.0
C      1  0.5447530000000  0.5001980000000  0.4184850000000 1.0
C      1  0.5453630000000  0.4339750000000  0.5621680000000 1.0
C      1  0.4159710000000  0.5566230000000  0.4474290000000 1.0
C      1  0.5520720000000  0.5146490000000  0.4995130000000 1.0
C      1  0.5324320000000  0.5298720000000  0.6059680000000 1.0
C      1  0.4793180000000  0.5851020000000  0.4468440000000 1.0
C      1  0.4850080000000  0.4593670000000  0.4408490000000 1.0
C      1  0.5931350000000  0.4680210000000  0.5499560000000 1.0
C      1  0.4287290000000  0.5501700000000  0.5421590000000 1.0
C      1  0.5318480000000  0.4786230000000  0.5191240000000 1.0
C      1  0.5183790000000  0.4338270000000  0.4653340000000 1.0
C      1  0.4345510000000  0.5720720000000  0.4644230000000 1.0
C      1  0.3973500000000  0.4958940000000  0.4716270000000 1.0
C      1  0.5107620000000  0.4912850000000  0.4713930000000 1.0
C      1  0.4734270000000  0.5297880000000  0.5427870000000 1.0
C      1  0.5234170000000  0.5763990000000  0.5548580000000 1.0
C      1  0.4782070000000  0.4765310000000  0.5267020000000 1.0
C      1  0.5566080000000  0.4732840000000  0.4601650000000 1.0
C      1  0.3957570000000  0.5050430000000  0.4425830000000 1.0
C      1  0.5096980000000  0.4457180000000  0.6011330000000 1.0
C      1  0.6082880000000  0.5203860000000  0.5405330000000 1.0
C      1  0.5244000000000  0.5157580000000  0.4624850000000 1.0
C      1  0.4915620000000  0.5229390000000  0.3897800000000 1.0
C      1  0.5824090000000  0.4752470000000  0.4197150000000 1.0
C      1  0.5195330000000  0.5228450000000  0.5305790000000 1.0
C      1  0.4472430000000  0.5164190000000  0.4003390000000 1.0
C      1  0.4048580000000  0.5652870000000  0.5304150000000 1.0
C      1  0.4866130000000  0.4509230000000  0.5147900000000 1.0
C      1  0.5173650000000  0.5426880000000  0.4831520000000 1.0
C      1  0.5546520000000  0.5746160000000  0.4805200000000 1.0
C      1  0.4489090000000  0.5722620000000  0.4138220000000 1.0
C      1  0.4763490000000  0.5639470000000  0.4089710000000 1.0
C      1  0.5693960000000  0.4896460000000  0.5932030000000 1.0
C      1  0.5583760000000  0.5420040000000  0.4148240000000 1.0
C      1  0.4164000000000  0.4938290000000  0.5473000000000 1.0
C      1  0.4446320000000  0.5968360000000  0.4756110000000 1.0
C      1  0.3985540000000  0.4680470000000  0.4810180000000 1.0
C      1  0.4858410000000  0.3924300000000  0.5617500000000 1.0
C      1  0.4719400000000  0.4467960000000  0.4170940000000 1.0
C      1  0.5466840000000  0.6037780000000  0.4808390000000 1.0
C      1  0.4974740000000  0.4361270000000  0.5629530000000 1.0
C      1  0.5358150000000  0.6188410000000  0.5008670000000 1.0
C      1  0.5931840000000  0.4609570000000  0.4942610000000 1.0
C      1  0.4980530000000  0.5747460000000  0.4280050000000 1.0
C      1  0.4625530000000  0.4928510000000  0.4099800000000 1.0
C      1  0.4785070000000  0.4992370000000  0.5101580000000 1.0
C      1  0.4809690000000  0.5358200000000  0.5988350000000 1.0
C      1  0.4931700000000  0.5312200000000  0.5713220000000 1.0
C      1  0.5340110000000  0.4916750000000  0.4946290000000 1.0
C      1  0.4250900000000  0.4481610000000  0.5550080000000 1.0
C      1  0.4871170000000  0.5234750000000  0.4364140000000 1.0
C      1  0.5883680000000  0.4516700000000  0.5259910000000 1.0
C      1  0.4714800000000  0.4012130000000  0.5086590000000 1.0
C      1  0.5360630000000  0.3960600000000  0.5453090000000 1.0
C      1  0.5228350000000  0.6191470000000  0.4757820000000 1.0
C      1  0.4438970000000  0.5060180000000  0.6002170000000 1.0
C      1  0.4725720000000  0.4043510000000  0.4550880000000 1.0
C      1  0.4573000000000  0.5650450000000  0.4461990000000 1.0
C      1  0.4230040000000  0.4593700000000  0.4358360000000 1.0
C      1  0.5591420000000  0.4791230000000  0.4026700000000 1.0
C      1  0.4904220000000  0.4420730000000  0.4645960000000 1.0
C      1  0.5047480000000  0.4202840000000  0.5862340000000 1.0
C      1  0.4679820000000  0.5364100000000  0.4808250000000 1.0
C      1  0.5373630000000  0.4566050000000  0.6017490000000 1.0
C      1  0.5109890000000  0.5881380000000  0.5333430000000 1.0
C      1  0.5256270000000  0.5574700000000  0.5972170000000 1.0
C      1  0.5715300000000  0.4523790000000  0.4358540000000 1.0
C      1  0.4771190000000  0.4518670000000  0.4867370000000 1.0
C      1  0.5792420000000  0.4837720000000  0.4758320000000 1.0
C      1  0.4707780000000  0.3920530000000  0.4815390000000 1.0
C      1  0.6185970000000  0.4782610000000  0.4901440000000 1.0
C      1  0.4956940000000  0.4337450000000  0.4055990000000 1.0
C      1  0.5261460000000  0.4030590000000  0.4643650000000 1.0
C      1  0.4728930000000  0.4232020000000  0.5520120000000 1.0
C      1  0.5832080000000  0.5289830000000  0.4252420000000 1.0
C      1  0.4124520000000  0.5281760000000  0.4512850000000 1.0
C      1  0.5438890000000  0.5004350000000  0.4477440000000 1.0
C      1  0.5508350000000  0.4975340000000  0.5578400000000 1.0
C      1  0.4715640000000  0.5109470000000  0.6099480000000 1.0
C      1  0.5081440000000  0.5681650000000  0.5768950000000 1.0
C      1  0.4749420000000  0.4861150000000  0.5544020000000 1.0
C      1  0.4712380000000  0.4989370000000  0.4382370000000 1.0
C      1  0.5745690000000  0.4679910000000  0.5745740000000 1.0
C      1  0.4393010000000  0.4797170000000  0.5888350000000 1.0
C      1  0.5581330000000  0.5331840000000  0.5922520000000 1.0
C      1  0.4941760000000  0.4918620000000  0.6097760000000 1.0
C      1  0.5007530000000  0.5048680000000  0.5638950000000 1.0
C      1  0.3961550000000  0.5273460000000  0.4972260000000 1.0
C      1  0.5347960000000  0.5259520000000  0.4086280000000 1.0
C      1  0.5729800000000  0.5174760000000  0.5190380000000 1.0
C      1  0.4310440000000  0.4369960000000  0.5109680000000 1.0
C      1  0.4301440000000  0.5178970000000  0.5568320000000 1.0
C      1  0.5073150000000  0.4798310000000  0.4114070000000 1.0
C      1  0.5724990000000  0.5653680000000  0.5075480000000 1.0
C      1  0.4557390000000  0.5456550000000  0.5232100000000 1.0
C      1  0.5216410000000  0.4427190000000  0.5491170000000 1.0
C      1  0.4636180000000  0.4643470000000  0.5797540000000 1.0
C      1  0.5516250000000  0.5639790000000  0.4328250000000 1.0
C      1  0.5529700000000  0.4094820000000  0.4491330000000 1.0
C      1  0.4874310000000  0.4942290000000  0.3949190000000 1.0
C      1  0.3943790000000  0.5467360000000  0.5124090000000 1.0
C      1  0.5353030000000  0.4977590000000  0.5405540000000 1.0
C      1  0.5689970000000  0.5600630000000  0.5358330000000 1.0
C      1  0.4392950000000  0.5716620000000  0.5600440000000 1.0
C      1  0.4315380000000  0.5276420000000  0.5853090000000 1.0
C      1  0.5668630000000  0.4243480000000  0.5019200000000 1.0
C      1  0.4448980000000  0.4408260000000  0.4270990000000 1.0
C      1  0.4120680000000  0.4861020000000  0.4262370000000 1.0
C      1  0.4514030000000  0.4417080000000  0.5641930000000 1.0
C      1  0.6240020000000  0.5065200000000  0.4949560000000 1.0
C      1  0.5793220000000  0.5320650000000  0.5430050000000 1.0
C      1  0.4533750000000  0.4673200000000  0.4803210000000 1.0
C      1  0.4758340000000  0.4249140000000  0.5235250000000 1.0
C      1  0.5505540000000  0.5686390000000  0.5570210000000 1.0
C      1  0.4929010000000  0.6228230000000  0.5229240000000 1.0
C      1  0.5669510000000  0.5115710000000  0.5752440000000 1.0
C      1  0.4187180000000  0.4865690000000  0.5186530000000 1.0
C      1  0.5312390000000  0.5342930000000  0.5072780000000 1.0
C      1  0.4915060000000  0.5196150000000  0.5243590000000 1.0
C      1  0.4394270000000  0.4645410000000  0.5055130000000 1.0
C      1  0.4286210000000  0.4143960000000  0.4921160000000 1.0
C      1  0.5429090000000  0.4554950000000  0.3945100000000 1.0
C      1  0.4242850000000  0.5075000000000  0.4129460000000 1.0
C      1  0.5552330000000  0.4380840000000  0.4137950000000 1.0
C      1  0.5950070000000  0.5494450000000  0.5041730000000 1.0
C      1  0.4652510000000  0.5602810000000  0.5978390000000 1.0
C      1  0.4682080000000  0.5395320000000  0.3950350000000 1.0
C      1  0.4820200000000  0.6382650000000  0.5010490000000 1.0
C      1  0.4236110000000  0.5144440000000  0.4987170000000 1.0
C      1  0.5563400000000  0.4478880000000  0.5824740000000 1.0
C      1  0.4218620000000  0.5101930000000  0.4722950000000 1.0
C      1  0.5302730000000  0.3927050000000  0.5186050000000 1.0
C      1  0.4820580000000  0.5865510000000  0.5317200000000 1.0
C      1  0.4232730000000  0.5861630000000  0.5238760000000 1.0
C      1  0.4394230000000  0.5553890000000  0.5851850000000 1.0
C      1  0.4478810000000  0.4194950000000  0.4466730000000 1.0
C      1  0.5274320000000  0.3946240000000  0.4931970000000 1.0
C      1  0.4678310000000  0.5380260000000  0.4516760000000 1.0
C      1  0.4843910000000  0.4967900000000  0.4830300000000 1.0
C      1  0.5136850000000  0.4549400000000  0.3964070000000 1.0
C      1  0.5059750000000  0.5311680000000  0.4138840000000 1.0
C      1  0.4993930000000  0.4013780000000  0.4446230000000 1.0
C      1  0.4627120000000  0.4913710000000  0.4651750000000 1.0
C      1  0.5916560000000  0.5005910000000  0.4314780000000 1.0
C      1  0.5415940000000  0.4399150000000  0.5007140000000 1.0
C      1  0.5102410000000  0.4130260000000  0.4209440000000 1.0
C      1  0.4573020000000  0.5094460000000  0.5515400000000 1.0
C      1  0.5435610000000  0.4838890000000  0.6073800000000 1.0
C      1  0.5069200000000  0.4768110000000  0.4404460000000 1.0
C      1  0.4195940000000  0.4742290000000  0.5678720000000 1.0
C      1  0.5687070000000  0.5605990000000  0.4558130000000 1.0
C      1  0.5848920000000  0.5368480000000  0.4529870000000 1.0
C      1  0.4261600000000  0.4246910000000  0.4653730000000 1.0
END
