TITL C-883729-9652-498 133.912969948639 125000 -26529.672846247 0 0 179 (C1) n - 1
REM
REM in /home/nfs/bkarasulu/CARBON/AIRSS/Generating-Clusters/ReaxFF-fromJPCA2015/Units_Real/with-SteepDescent/Only-C1/SD-CG/Try1-3A/FIRE-CG
REM
REM
REM
REM
REM
REM ./C.cell (11c1c37f851c82e70ff6c80c92926a4b)
REM
REM compiler GCC version 9.2.1 20190827 (Red Hat 9.2.1-1)
REM options -cpp -mtune=generic -march=x86-64 -g -O0 -fpre-include=/usr/include/finclude/math-vector-fortran.h
REM seed -2053104327 993516805 810726164 708484555 1332704774 -682597772 700180769 -1597671510 505732525 1469150490 -1487596090 2005617316 712436378 -474863431 115152894 870657998 736983903 2021136254 1776740126 -613490600 1012595337 -146808828 465780556 902685552 269381633 594728215 -1427037620 -1212677921 -1359073600 -663886301 1811852446 615198454 1001004929
REM
CELL 1.54180   50.00000   50.00000   50.00000   90.00000   90.00000   90.00000
LATT -1
SFAC C  
C      1  0.5114750000000  0.5158070000000  0.4475750000000 1.0
C      1  0.4940070000000  0.5028380000000  0.5756510000000 1.0
C      1  0.4816890000000  0.4870880000000  0.5000680000000 1.0
C      1  0.5249560000000  0.5412960000000  0.4907560000000 1.0
C      1  0.5614110000000  0.5962520000000  0.5233940000000 1.0
C      1  0.5912350000000  0.4867630000000  0.4343020000000 1.0
C      1  0.5380070000000  0.4099320000000  0.5552650000000 1.0
C      1  0.5490930000000  0.5427430000000  0.5985250000000 1.0
C      1  0.4661020000000  0.5072440000000  0.5704950000000 1.0
C      1  0.4278320000000  0.5164610000000  0.4285190000000 1.0
C      1  0.5520590000000  0.4842450000000  0.4032990000000 1.0
C      1  0.4199950000000  0.5032270000000  0.5568510000000 1.0
C      1  0.4628660000000  0.3964560000000  0.4834370000000 1.0
C      1  0.5620220000000  0.5415260000000  0.5695630000000 1.0
C      1  0.4189610000000  0.4266900000000  0.4388040000000 1.0
C      1  0.5159640000000  0.5755200000000  0.5244190000000 1.0
C      1  0.4296150000000  0.4730420000000  0.4604430000000 1.0
C      1  0.5091440000000  0.5611400000000  0.4776810000000 1.0
C      1  0.5043560000000  0.5815900000000  0.4973510000000 1.0
C      1  0.5347960000000  0.5541210000000  0.5137010000000 1.0
C      1  0.4137690000000  0.5646440000000  0.4854200000000 1.0
C      1  0.4827070000000  0.4733030000000  0.4401680000000 1.0
C      1  0.4022220000000  0.4635020000000  0.5330450000000 1.0
C      1  0.4417750000000  0.5758120000000  0.4430840000000 1.0
C      1  0.4021590000000  0.5346910000000  0.4943600000000 1.0
C      1  0.5210470000000  0.5602830000000  0.4076390000000 1.0
C      1  0.4368310000000  0.4639880000000  0.5756770000000 1.0
C      1  0.4774690000000  0.5373340000000  0.4543880000000 1.0
C      1  0.3852780000000  0.4419500000000  0.5301910000000 1.0
C      1  0.5247900000000  0.4953720000000  0.4326090000000 1.0
C      1  0.5130970000000  0.4531280000000  0.4160150000000 1.0
C      1  0.4290580000000  0.4811980000000  0.4885470000000 1.0
C      1  0.5435410000000  0.4788810000000  0.4451920000000 1.0
C      1  0.4483090000000  0.4729570000000  0.5348150000000 1.0
C      1  0.3964900000000  0.5235540000000  0.4657080000000 1.0
C      1  0.5149290000000  0.6259560000000  0.5317560000000 1.0
C      1  0.6015830000000  0.4708630000000  0.4933710000000 1.0
C      1  0.5346240000000  0.4260610000000  0.5796410000000 1.0
C      1  0.5977090000000  0.5054630000000  0.4523970000000 1.0
C      1  0.4663850000000  0.4921590000000  0.4380360000000 1.0
C      1  0.5704080000000  0.5837970000000  0.5483880000000 1.0
C      1  0.4474590000000  0.5143300000000  0.5910550000000 1.0
C      1  0.4368680000000  0.4103450000000  0.5364390000000 1.0
C      1  0.5067760000000  0.4249210000000  0.5888090000000 1.0
C      1  0.4858240000000  0.5911240000000  0.4412510000000 1.0
C      1  0.5459130000000  0.5111050000000  0.5100610000000 1.0
C      1  0.4727230000000  0.4258590000000  0.4168240000000 1.0
C      1  0.5531540000000  0.5961560000000  0.4703860000000 1.0
C      1  0.5879120000000  0.4516270000000  0.4758980000000 1.0
C      1  0.5658180000000  0.4980490000000  0.5727900000000 1.0
C      1  0.5698330000000  0.5541200000000  0.4217130000000 1.0
C      1  0.5271410000000  0.5584890000000  0.4546820000000 1.0
C      1  0.5579560000000  0.5272900000000  0.4267490000000 1.0
C      1  0.5475330000000  0.5772230000000  0.4479890000000 1.0
C      1  0.6032210000000  0.5211900000000  0.4723720000000 1.0
C      1  0.6078540000000  0.5020420000000  0.5437570000000 1.0
C      1  0.4040460000000  0.4849710000000  0.5075270000000 1.0
C      1  0.4814310000000  0.4580990000000  0.5530860000000 1.0
C      1  0.3996230000000  0.4222140000000  0.5239380000000 1.0
C      1  0.3975790000000  0.5152400000000  0.5165580000000 1.0
C      1  0.4749830000000  0.4144050000000  0.5037070000000 1.0
C      1  0.5724530000000  0.4338520000000  0.5572740000000 1.0
C      1  0.5020370000000  0.4686300000000  0.3946300000000 1.0
C      1  0.4336180000000  0.4010650000000  0.4860440000000 1.0
C      1  0.5559200000000  0.4455080000000  0.5794680000000 1.0
C      1  0.5066440000000  0.3920440000000  0.5233260000000 1.0
C      1  0.5057410000000  0.4942580000000  0.6030910000000 1.0
C      1  0.4436160000000  0.5793120000000  0.5562780000000 1.0
C      1  0.5338060000000  0.6015750000000  0.5352520000000 1.0
C      1  0.5303690000000  0.4368670000000  0.5104870000000 1.0
C      1  0.5055120000000  0.6046670000000  0.4545940000000 1.0
C      1  0.5605270000000  0.4268360000000  0.4584300000000 1.0
C      1  0.5442960000000  0.4598250000000  0.4212600000000 1.0
C      1  0.4202170000000  0.5621790000000  0.4571030000000 1.0
C      1  0.4631640000000  0.4513100000000  0.4108710000000 1.0
C      1  0.5285310000000  0.6079470000000  0.4659910000000 1.0
C      1  0.5290820000000  0.5081610000000  0.5388390000000 1.0
C      1  0.5037960000000  0.5451530000000  0.5591450000000 1.0
C      1  0.4726190000000  0.5567790000000  0.5851290000000 1.0
C      1  0.4927960000000  0.4088450000000  0.5696780000000 1.0
C      1  0.5348830000000  0.4891220000000  0.6037750000000 1.0
C      1  0.5651030000000  0.4688870000000  0.5158400000000 1.0
C      1  0.4518820000000  0.5213350000000  0.4097200000000 1.0
C      1  0.4871170000000  0.4450790000000  0.5975380000000 1.0
C      1  0.4381730000000  0.6068680000000  0.4419690000000 1.0
C      1  0.5464640000000  0.5939500000000  0.5634660000000 1.0
C      1  0.4472810000000  0.5004540000000  0.5428410000000 1.0
C      1  0.5780970000000  0.5564020000000  0.5507870000000 1.0
C      1  0.5282950000000  0.4770490000000  0.5492100000000 1.0
C      1  0.4984590000000  0.5426090000000  0.4005200000000 1.0
C      1  0.5473370000000  0.4744830000000  0.5779710000000 1.0
C      1  0.4540170000000  0.4787090000000  0.4108080000000 1.0
C      1  0.4163620000000  0.4928280000000  0.4413090000000 1.0
C      1  0.5451080000000  0.5718690000000  0.4182120000000 1.0
C      1  0.4983300000000  0.5426180000000  0.5868240000000 1.0
C      1  0.5233460000000  0.4357330000000  0.4823600000000 1.0
C      1  0.4994220000000  0.4681210000000  0.6045340000000 1.0
C      1  0.5827220000000  0.5546080000000  0.4464150000000 1.0
C      1  0.5466320000000  0.5155990000000  0.6096960000000 1.0
C      1  0.4721770000000  0.5746360000000  0.5619090000000 1.0
C      1  0.4708300000000  0.5441210000000  0.4117810000000 1.0
C      1  0.4893360000000  0.6228600000000  0.5186130000000 1.0
C      1  0.4306010000000  0.5783500000000  0.5046100000000 1.0
C      1  0.5654820000000  0.4447840000000  0.4370760000000 1.0
C      1  0.5337620000000  0.5774070000000  0.5817410000000 1.0
C      1  0.4670360000000  0.6092700000000  0.4439510000000 1.0
C      1  0.4956100000000  0.4518720000000  0.4405350000000 1.0
C      1  0.4893340000000  0.4943400000000  0.3849180000000 1.0
C      1  0.5285170000000  0.5010560000000  0.4041610000000 1.0
C      1  0.4322780000000  0.5341690000000  0.5056610000000 1.0
C      1  0.4722650000000  0.4618120000000  0.5260070000000 1.0
C      1  0.5910140000000  0.4544350000000  0.5593560000000 1.0
C      1  0.4229890000000  0.4125210000000  0.4632330000000 1.0
C      1  0.4608410000000  0.5793840000000  0.5032520000000 1.0
C      1  0.5422780000000  0.4827530000000  0.4742430000000 1.0
C      1  0.5397090000000  0.4599290000000  0.5266340000000 1.0
C      1  0.4652760000000  0.4165220000000  0.5657630000000 1.0
C      1  0.5204280000000  0.4640690000000  0.4803060000000 1.0
C      1  0.5941550000000  0.4598200000000  0.5188160000000 1.0
C      1  0.5705720000000  0.4299820000000  0.4833720000000 1.0
C      1  0.6068070000000  0.4708340000000  0.5435630000000 1.0
C      1  0.4533640000000  0.4989320000000  0.4928680000000 1.0
C      1  0.4121050000000  0.5525830000000  0.5495960000000 1.0
C      1  0.5004100000000  0.4791230000000  0.5587080000000 1.0
C      1  0.3917080000000  0.4957770000000  0.4589370000000 1.0
C      1  0.5844980000000  0.5442660000000  0.5222070000000 1.0
C      1  0.4791800000000  0.4060590000000  0.4352750000000 1.0
C      1  0.5849960000000  0.5641650000000  0.4963270000000 1.0
C      1  0.4639860000000  0.4465370000000  0.5749740000000 1.0
C      1  0.5701690000000  0.5012970000000  0.4172800000000 1.0
C      1  0.4470080000000  0.5136720000000  0.5172510000000 1.0
C      1  0.4984870000000  0.5100300000000  0.4992170000000 1.0
C      1  0.4253930000000  0.5736440000000  0.5333280000000 1.0
C      1  0.4690220000000  0.5617510000000  0.4365010000000 1.0
C      1  0.5343520000000  0.4200050000000  0.4603860000000 1.0
C      1  0.4897530000000  0.5331630000000  0.5146600000000 1.0
C      1  0.4270660000000  0.4586350000000  0.5489880000000 1.0
C      1  0.4777440000000  0.3927290000000  0.5216610000000 1.0
C      1  0.3870350000000  0.4782470000000  0.4827050000000 1.0
C      1  0.4575270000000  0.5205900000000  0.4669710000000 1.0
C      1  0.4929950000000  0.4708800000000  0.4797460000000 1.0
C      1  0.4731350000000  0.5532740000000  0.5008790000000 1.0
C      1  0.5562680000000  0.5368330000000  0.5171650000000 1.0
C      1  0.4847770000000  0.5159460000000  0.4377300000000 1.0
C      1  0.5245000000000  0.3972170000000  0.5011160000000 1.0
C      1  0.5296900000000  0.3906570000000  0.4525450000000 1.0
C      1  0.5878180000000  0.5111590000000  0.5610790000000 1.0
C      1  0.5227660000000  0.5572840000000  0.5972460000000 1.0
C      1  0.4948350000000  0.5666850000000  0.5456420000000 1.0
C      1  0.4512380000000  0.5416390000000  0.4854690000000 1.0
C      1  0.5253200000000  0.5125460000000  0.4890430000000 1.0
C      1  0.6003370000000  0.5172440000000  0.5204510000000 1.0
C      1  0.5469840000000  0.5175550000000  0.5608110000000 1.0
C      1  0.4611360000000  0.4994800000000  0.3923080000000 1.0
C      1  0.4734320000000  0.4503380000000  0.4810120000000 1.0
C      1  0.4823880000000  0.3952690000000  0.4616050000000 1.0
C      1  0.4043380000000  0.5239470000000  0.5433860000000 1.0
C      1  0.5120530000000  0.3995430000000  0.5502230000000 1.0
C      1  0.5112210000000  0.3892920000000  0.4757710000000 1.0
C      1  0.4285160000000  0.5598640000000  0.5730270000000 1.0
C      1  0.4408370000000  0.4474020000000  0.4499630000000 1.0
C      1  0.4817720000000  0.5992330000000  0.5005670000000 1.0
C      1  0.4678180000000  0.4410610000000  0.5069870000000 1.0
C      1  0.5586160000000  0.4168240000000  0.5364390000000 1.0
C      1  0.5678720000000  0.5868460000000  0.4962620000000 1.0
C      1  0.5052260000000  0.5274690000000  0.5384560000000 1.0
C      1  0.5524830000000  0.4170410000000  0.5070600000000 1.0
C      1  0.4468690000000  0.5438590000000  0.5897300000000 1.0
C      1  0.4124210000000  0.5354380000000  0.4447700000000 1.0
C      1  0.5075570000000  0.5160430000000  0.3898490000000 1.0
C      1  0.4225760000000  0.4077630000000  0.5145460000000 1.0
C      1  0.5962650000000  0.5016060000000  0.4955450000000 1.0
C      1  0.4679900000000  0.4379380000000  0.4556760000000 1.0
C      1  0.5941980000000  0.5512950000000  0.4718870000000 1.0
C      1  0.4597990000000  0.4024870000000  0.5429850000000 1.0
C      1  0.5869850000000  0.4601290000000  0.4475660000000 1.0
C      1  0.5336540000000  0.5335720000000  0.4430220000000 1.0
C      1  0.5626320000000  0.4908690000000  0.4959970000000 1.0
C      1  0.4284030000000  0.4915380000000  0.5822810000000 1.0
END
