TITL C-883728-9229-256 41.7552053186953 125000 -30095.2062864117 0 0 199 (C1) n - 1
REM
REM in /home/nfs/bkarasulu/CARBON/AIRSS/Generating-Clusters/ReaxFF-fromJPCA2015/Units_Real/with-SteepDescent/Only-C1/SD-CG/Try1-3A/FIRE-CG
REM
REM
REM
REM
REM
REM ./C.cell (11c1c37f851c82e70ff6c80c92926a4b)
REM
REM compiler GCC version 9.2.1 20190827 (Red Hat 9.2.1-1)
REM options -cpp -mtune=generic -march=x86-64 -g -O0 -fpre-include=/usr/include/finclude/math-vector-fortran.h
REM seed 920899526 -1649845989 1996881946 -545460870 1330433355 486811658 1799994729 555297063 1704329430 -1100529730 238207310 909869582 814236670 -417492289 1238681277 333381168 146108631 -2042414904 -1041673846 54869159 -634247800 480379 -797658565 1598882694 203454297 -1030675781 940171146 -616755516 -1741577568 -339969597 1784001690 552813899 1345344723
REM
CELL 1.54180   50.00000   50.00000   50.00000   90.00000   90.00000   90.00000
LATT -1
SFAC C  
C      1  0.5908760000000  0.4501420000000  0.4964530000000 1.0
C      1  0.4392430000000  0.4931990000000  0.5184820000000 1.0
C      1  0.5324490000000  0.5152220000000  0.4276110000000 1.0
C      1  0.5010110000000  0.4979450000000  0.6069230000000 1.0
C      1  0.4970130000000  0.3889280000000  0.4684860000000 1.0
C      1  0.5986210000000  0.5056450000000  0.5543700000000 1.0
C      1  0.4991250000000  0.4375110000000  0.5384520000000 1.0
C      1  0.4534380000000  0.3991070000000  0.4967590000000 1.0
C      1  0.4388390000000  0.5192190000000  0.5332500000000 1.0
C      1  0.3989960000000  0.5022970000000  0.4743000000000 1.0
C      1  0.4952690000000  0.3809990000000  0.5188700000000 1.0
C      1  0.5124650000000  0.6206050000000  0.5364280000000 1.0
C      1  0.4817020000000  0.4385540000000  0.5874040000000 1.0
C      1  0.4352990000000  0.5411870000000  0.5163390000000 1.0
C      1  0.5504120000000  0.4543420000000  0.4635120000000 1.0
C      1  0.5237570000000  0.5067120000000  0.5575710000000 1.0
C      1  0.5608610000000  0.5098530000000  0.5191340000000 1.0
C      1  0.5092520000000  0.5721990000000  0.4610870000000 1.0
C      1  0.5161640000000  0.4588190000000  0.5453000000000 1.0
C      1  0.4003930000000  0.5522660000000  0.4646160000000 1.0
C      1  0.4897860000000  0.5179040000000  0.5359930000000 1.0
C      1  0.4250910000000  0.4776650000000  0.4331350000000 1.0
C      1  0.5162430000000  0.4118980000000  0.5498920000000 1.0
C      1  0.5625530000000  0.4421600000000  0.5584520000000 1.0
C      1  0.4325770000000  0.5476870000000  0.5736630000000 1.0
C      1  0.4734800000000  0.4366070000000  0.5580310000000 1.0
C      1  0.4808830000000  0.5065110000000  0.3865270000000 1.0
C      1  0.4367430000000  0.4277950000000  0.4486000000000 1.0
C      1  0.6061400000000  0.5175210000000  0.5031930000000 1.0
C      1  0.5037430000000  0.4407290000000  0.4055490000000 1.0
C      1  0.5215800000000  0.5183090000000  0.4677330000000 1.0
C      1  0.5794080000000  0.5802270000000  0.5313230000000 1.0
C      1  0.4563460000000  0.5087770000000  0.5946050000000 1.0
C      1  0.5357700000000  0.5493960000000  0.5367190000000 1.0
C      1  0.5339240000000  0.5592810000000  0.4467660000000 1.0
C      1  0.4789530000000  0.5961140000000  0.4466380000000 1.0
C      1  0.5405560000000  0.5730010000000  0.5613650000000 1.0
C      1  0.4300690000000  0.4927260000000  0.4064720000000 1.0
C      1  0.4946980000000  0.4863560000000  0.5024410000000 1.0
C      1  0.4601960000000  0.4074180000000  0.5468480000000 1.0
C      1  0.6014770000000  0.4359360000000  0.5488790000000 1.0
C      1  0.4787470000000  0.5460950000000  0.6009350000000 1.0
C      1  0.4173000000000  0.5244920000000  0.5604280000000 1.0
C      1  0.4740290000000  0.4884950000000  0.6069850000000 1.0
C      1  0.3910840000000  0.5193050000000  0.5438100000000 1.0
C      1  0.5812240000000  0.5820750000000  0.5021670000000 1.0
C      1  0.4181830000000  0.5600240000000  0.5278800000000 1.0
C      1  0.5253010000000  0.4148590000000  0.4943620000000 1.0
C      1  0.4118900000000  0.5025210000000  0.5820020000000 1.0
C      1  0.4627280000000  0.4636370000000  0.5507170000000 1.0
C      1  0.5928120000000  0.5338430000000  0.5608640000000 1.0
C      1  0.4338630000000  0.4212220000000  0.4975260000000 1.0
C      1  0.4583840000000  0.4071680000000  0.4479250000000 1.0
C      1  0.5073980000000  0.3985050000000  0.4423170000000 1.0
C      1  0.5935290000000  0.5516060000000  0.4315870000000 1.0
C      1  0.3841580000000  0.5057640000000  0.4990220000000 1.0
C      1  0.5347760000000  0.4713780000000  0.4792930000000 1.0
C      1  0.5343870000000  0.4947530000000  0.3829270000000 1.0
C      1  0.5134380000000  0.5305460000000  0.5464110000000 1.0
C      1  0.4389320000000  0.5405190000000  0.4898940000000 1.0
C      1  0.5794300000000  0.4762790000000  0.4131550000000 1.0
C      1  0.4362240000000  0.4494970000000  0.4296380000000 1.0
C      1  0.5926510000000  0.4839980000000  0.4554180000000 1.0
C      1  0.5813890000000  0.5031410000000  0.4914550000000 1.0
C      1  0.4432450000000  0.3915040000000  0.5556960000000 1.0
C      1  0.4854020000000  0.5426540000000  0.4387730000000 1.0
C      1  0.4791540000000  0.4263130000000  0.4086750000000 1.0
C      1  0.5337950000000  0.5609640000000  0.5057960000000 1.0
C      1  0.5270670000000  0.5598770000000  0.4152610000000 1.0
C      1  0.5987440000000  0.5651870000000  0.4852260000000 1.0
C      1  0.5344640000000  0.5069130000000  0.5098050000000 1.0
C      1  0.6129150000000  0.4614620000000  0.5511120000000 1.0
C      1  0.5765770000000  0.5400630000000  0.5839780000000 1.0
C      1  0.4808470000000  0.5640160000000  0.5807480000000 1.0
C      1  0.4520020000000  0.5388130000000  0.4029800000000 1.0
C      1  0.5482280000000  0.5549590000000  0.5852930000000 1.0
C      1  0.4672140000000  0.4463970000000  0.5011640000000 1.0
C      1  0.5241500000000  0.5296440000000  0.4947800000000 1.0
C      1  0.4592310000000  0.4480570000000  0.4122030000000 1.0
C      1  0.5061770000000  0.4356950000000  0.4851940000000 1.0
C      1  0.4513700000000  0.5379310000000  0.5942090000000 1.0
C      1  0.3988270000000  0.4454180000000  0.5277680000000 1.0
C      1  0.4878580000000  0.5605150000000  0.4849040000000 1.0
C      1  0.4478700000000  0.4907500000000  0.4911590000000 1.0
C      1  0.5549480000000  0.4931430000000  0.5928640000000 1.0
C      1  0.4476500000000  0.5872540000000  0.5382080000000 1.0
C      1  0.4651200000000  0.4595890000000  0.6007110000000 1.0
C      1  0.5093130000000  0.4310770000000  0.5952540000000 1.0
C      1  0.5432860000000  0.5286230000000  0.4523800000000 1.0
C      1  0.4677450000000  0.3939500000000  0.4715810000000 1.0
C      1  0.4677150000000  0.5086850000000  0.5687600000000 1.0
C      1  0.5109940000000  0.4600250000000  0.3852920000000 1.0
C      1  0.4392660000000  0.5990760000000  0.4708910000000 1.0
C      1  0.5195310000000  0.5845610000000  0.5110220000000 1.0
C      1  0.5677320000000  0.4151670000000  0.5181090000000 1.0
C      1  0.4857110000000  0.5126750000000  0.5090980000000 1.0
C      1  0.5252370000000  0.4913440000000  0.4631730000000 1.0
C      1  0.4913430000000  0.5165870000000  0.4513330000000 1.0
C      1  0.3878600000000  0.5638660000000  0.4469640000000 1.0
C      1  0.3845540000000  0.5294570000000  0.5173390000000 1.0
C      1  0.4680580000000  0.5289460000000  0.5485040000000 1.0
C      1  0.5036480000000  0.5278270000000  0.6041340000000 1.0
C      1  0.5095650000000  0.4815680000000  0.5618710000000 1.0
C      1  0.5417540000000  0.4264630000000  0.5149290000000 1.0
C      1  0.4531390000000  0.5859930000000  0.4486050000000 1.0
C      1  0.4148840000000  0.4524190000000  0.5770880000000 1.0
C      1  0.4366420000000  0.5992260000000  0.5133110000000 1.0
C      1  0.5606530000000  0.4646800000000  0.5395830000000 1.0
C      1  0.5709540000000  0.5160370000000  0.4669710000000 1.0
C      1  0.5161580000000  0.5467550000000  0.3783340000000 1.0
C      1  0.5370300000000  0.4564030000000  0.5261300000000 1.0
C      1  0.5663940000000  0.4925230000000  0.5435230000000 1.0
C      1  0.4192640000000  0.5893900000000  0.4904200000000 1.0
C      1  0.5010710000000  0.5574160000000  0.3990120000000 1.0
C      1  0.3963000000000  0.5709960000000  0.4877560000000 1.0
C      1  0.4416450000000  0.4672130000000  0.5315460000000 1.0
C      1  0.3925800000000  0.5572820000000  0.5134400000000 1.0
C      1  0.6150560000000  0.5036060000000  0.5277280000000 1.0
C      1  0.5667200000000  0.4301970000000  0.4670460000000 1.0
C      1  0.4202040000000  0.5249440000000  0.4726990000000 1.0
C      1  0.5172020000000  0.5911630000000  0.5719130000000 1.0
C      1  0.4981250000000  0.5791870000000  0.5875890000000 1.0
C      1  0.5513250000000  0.5033390000000  0.5647600000000 1.0
C      1  0.5407320000000  0.4617200000000  0.4351990000000 1.0
C      1  0.3872670000000  0.4911890000000  0.5442730000000 1.0
C      1  0.5342710000000  0.6032070000000  0.5264440000000 1.0
C      1  0.5948440000000  0.5118290000000  0.4512370000000 1.0
C      1  0.4816770000000  0.4063790000000  0.4301570000000 1.0
C      1  0.5991660000000  0.4792630000000  0.5706090000000 1.0
C      1  0.5998340000000  0.4748510000000  0.4995940000000 1.0
C      1  0.4782680000000  0.5814970000000  0.5386970000000 1.0
C      1  0.5291960000000  0.4875650000000  0.4365530000000 1.0
C      1  0.5588620000000  0.4496870000000  0.5869290000000 1.0
C      1  0.4668730000000  0.3914580000000  0.5215680000000 1.0
C      1  0.4804470000000  0.4859860000000  0.5568520000000 1.0
C      1  0.4400280000000  0.4555290000000  0.5890830000000 1.0
C      1  0.4987190000000  0.4464600000000  0.4595820000000 1.0
C      1  0.4724040000000  0.4724960000000  0.4876610000000 1.0
C      1  0.6034220000000  0.5460520000000  0.5058950000000 1.0
C      1  0.5030740000000  0.5245160000000  0.4260590000000 1.0
C      1  0.5024460000000  0.5955470000000  0.4487920000000 1.0
C      1  0.4217070000000  0.4321880000000  0.4731920000000 1.0
C      1  0.4601180000000  0.5522600000000  0.4764480000000 1.0
C      1  0.3990480000000  0.4795510000000  0.5699580000000 1.0
C      1  0.4918090000000  0.4367290000000  0.5095750000000 1.0
C      1  0.4916470000000  0.5842070000000  0.5078890000000 1.0
C      1  0.4433100000000  0.4415880000000  0.5164270000000 1.0
C      1  0.4067020000000  0.4433260000000  0.5516950000000 1.0
C      1  0.4566780000000  0.4898460000000  0.3943970000000 1.0
C      1  0.4971210000000  0.5351260000000  0.4961720000000 1.0
C      1  0.5770990000000  0.5050380000000  0.4079150000000 1.0
C      1  0.5795370000000  0.4338220000000  0.4408620000000 1.0
C      1  0.4411810000000  0.5057730000000  0.4693940000000 1.0
C      1  0.4040530000000  0.4555060000000  0.4764780000000 1.0
C      1  0.5105310000000  0.3891720000000  0.4940770000000 1.0
C      1  0.4281630000000  0.5216670000000  0.4051250000000 1.0
C      1  0.4825010000000  0.6120500000000  0.4994530000000 1.0
C      1  0.5573190000000  0.4559720000000  0.4092150000000 1.0
C      1  0.5817380000000  0.4249360000000  0.4932500000000 1.0
C      1  0.4723700000000  0.4743660000000  0.4130660000000 1.0
C      1  0.5397550000000  0.4660950000000  0.3867150000000 1.0
C      1  0.4974990000000  0.6023910000000  0.5539610000000 1.0
C      1  0.5223460000000  0.4803350000000  0.5947820000000 1.0
C      1  0.4808030000000  0.4668720000000  0.4601810000000 1.0
C      1  0.5790140000000  0.4200050000000  0.5455220000000 1.0
C      1  0.4476790000000  0.4997550000000  0.4437500000000 1.0
C      1  0.5609150000000  0.5364900000000  0.5304280000000 1.0
C      1  0.5105110000000  0.4094210000000  0.5768810000000 1.0
C      1  0.4745960000000  0.4872670000000  0.4411210000000 1.0
C      1  0.5871660000000  0.5504750000000  0.5347980000000 1.0
C      1  0.5159640000000  0.4416810000000  0.4343080000000 1.0
C      1  0.5559200000000  0.5913520000000  0.5429890000000 1.0
C      1  0.5907790000000  0.4631480000000  0.4368290000000 1.0
C      1  0.5564500000000  0.4256450000000  0.4258200000000 1.0
C      1  0.5054140000000  0.4904090000000  0.3827800000000 1.0
C      1  0.5053820000000  0.3874880000000  0.5443690000000 1.0
C      1  0.5406250000000  0.5459280000000  0.3935320000000 1.0
C      1  0.4812770000000  0.5557580000000  0.5534090000000 1.0
C      1  0.4417400000000  0.5295980000000  0.4301410000000 1.0
C      1  0.5776710000000  0.4719570000000  0.5881750000000 1.0
C      1  0.5863070000000  0.5651850000000  0.4571580000000 1.0
C      1  0.4535650000000  0.6131030000000  0.4935320000000 1.0
C      1  0.3908740000000  0.4567600000000  0.5038830000000 1.0
C      1  0.5944230000000  0.5235270000000  0.4228340000000 1.0
C      1  0.6166550000000  0.4756540000000  0.5240920000000 1.0
C      1  0.4958720000000  0.6337370000000  0.5145850000000 1.0
C      1  0.5281170000000  0.5392050000000  0.5966990000000 1.0
C      1  0.4585670000000  0.5546840000000  0.4466110000000 1.0
C      1  0.4302240000000  0.5692280000000  0.5536460000000 1.0
C      1  0.3825670000000  0.4821310000000  0.5162400000000 1.0
C      1  0.5557730000000  0.5733300000000  0.4896390000000 1.0
C      1  0.5637700000000  0.5203650000000  0.6000470000000 1.0
C      1  0.5309620000000  0.4526690000000  0.5970110000000 1.0
C      1  0.4788320000000  0.5354880000000  0.3922500000000 1.0
C      1  0.4057030000000  0.4784830000000  0.4594180000000 1.0
C      1  0.5580430000000  0.5713500000000  0.4613410000000 1.0
C      1  0.5313170000000  0.4154390000000  0.4366960000000 1.0
C      1  0.5500210000000  0.5153570000000  0.3993450000000 1.0
C      1  0.5239710000000  0.4796040000000  0.5052260000000 1.0
END
