TITL C-883734-4173-248 2.044831197315 125000 -3280.39748639424 0 0 24 (C1) n - 1
REM
REM in /home/nfs/bkarasulu/CARBON/AIRSS/Generating-Clusters/ReaxFF-fromJPCA2015/Units_Real/with-SteepDescent/Only-C1/SD-CG/Try1-3A/FIRE-CG
REM
REM
REM
REM
REM
REM ./C.cell (11c1c37f851c82e70ff6c80c92926a4b)
REM
REM compiler GCC version 9.2.1 20190827 (Red Hat 9.2.1-1)
REM options -cpp -mtune=generic -march=x86-64 -g -O0 -fpre-include=/usr/include/finclude/math-vector-fortran.h
REM seed 1210283769 -1377263404 -51047335 -307649170 1482408528 -1021318266 -1855706040 -1638290002 -1229739993 -1451882678 2118264396 430594516 -1063916087 355332820 -118320793 592320434 -1782135048 -402255236 -1698562613 -1748442675 -2108845153 1212025439 -19933721 2013141746 1730461025 -856574799 -1638988637 -638039551 1446262594 -829812112 513913151 1943829525 -1970911357
REM
CELL 1.54180   50.00000   50.00000   50.00000   90.00000   90.00000   90.00000
LATT -1
SFAC C  
C      1  0.4647540000000  0.5507390000000  0.5204910000000 1.0
C      1  0.5618920000000  0.5084450000000  0.4288880000000 1.0
C      1  0.5033840000000  0.5426080000000  0.5529710000000 1.0
C      1  0.5491780000000  0.5106110000000  0.4560240000000 1.0
C      1  0.5439840000000  0.4907880000000  0.4784850000000 1.0
C      1  0.5244260000000  0.5427260000000  0.5333140000000 1.0
C      1  0.4941150000000  0.5164150000000  0.5458670000000 1.0
C      1  0.4168610000000  0.4986390000000  0.4936340000000 1.0
C      1  0.4637280000000  0.4756120000000  0.4725590000000 1.0
C      1  0.5407560000000  0.5008080000000  0.5070090000000 1.0
C      1  0.4832680000000  0.4490040000000  0.5136330000000 1.0
C      1  0.4950160000000  0.4904860000000  0.5357250000000 1.0
C      1  0.4853130000000  0.5550810000000  0.5343820000000 1.0
C      1  0.5431230000000  0.5310140000000  0.5156490000000 1.0
C      1  0.5279180000000  0.4686150000000  0.4741470000000 1.0
C      1  0.5720260000000  0.5289530000000  0.4493740000000 1.0
C      1  0.5232600000000  0.4861580000000  0.5238950000000 1.0
C      1  0.4554290000000  0.4857480000000  0.5007900000000 1.0
C      1  0.4872660000000  0.4606260000000  0.4669780000000 1.0
C      1  0.4373290000000  0.5102570000000  0.5022540000000 1.0
C      1  0.4434650000000  0.5430120000000  0.5062500000000 1.0
C      1  0.4991820000000  0.4320240000000  0.4955530000000 1.0
C      1  0.5116940000000  0.4465800000000  0.4705700000000 1.0
C      1  0.4726350000000  0.4750510000000  0.5215580000000 1.0
END
