TITL C-884131-4643-113 11.8789133479594 125000 -17576.4798696065 0 0 118 (C1) n - 1
REM
REM in /home/nfs/bkarasulu/CARBON/AIRSS/Generating-Clusters/ReaxFF-fromJPCA2015/Units_Real/with-SteepDescent/Only-C1/SD-CG/Try1-3A/FIRE-CG
REM
REM
REM
REM
REM
REM ./C.cell (11c1c37f851c82e70ff6c80c92926a4b)
REM
REM compiler GCC version 9.2.1 20190827 (Red Hat 9.2.1-1)
REM options -cpp -mtune=generic -march=x86-64 -g -O0 -fpre-include=/usr/include/finclude/math-vector-fortran.h
REM seed 1684734427 -276501810 514822436 1545255286 -773442526 -972466656 -2055508037 -637002001 -487328839 434635249 57447684 308255163 -825207264 -1445291557 687468336 -142195888 -158769101 -1011102125 -949431280 1668835243 487934923 -882572230 1849859251 1409000392 -1091492913 -228901393 -1138852711 725136941 -216573565 1888790494 -1351001177 -221691071 1594640828
REM
CELL 1.54180   50.00000   50.00000   50.00000   90.00000   90.00000   90.00000
LATT -1
SFAC C  
C      1  0.4498380000000  0.5084780000000  0.4176450000000 1.0
C      1  0.4565290000000  0.5070920000000  0.4723140000000 1.0
C      1  0.5012420000000  0.5554580000000  0.4752280000000 1.0
C      1  0.5686860000000  0.4333120000000  0.4655650000000 1.0
C      1  0.4582320000000  0.5166580000000  0.5385010000000 1.0
C      1  0.4719920000000  0.4268050000000  0.5251510000000 1.0
C      1  0.4505190000000  0.4322330000000  0.4320310000000 1.0
C      1  0.5784320000000  0.4598850000000  0.5334350000000 1.0
C      1  0.4802200000000  0.4058300000000  0.4868920000000 1.0
C      1  0.5453130000000  0.5432900000000  0.4492790000000 1.0
C      1  0.5724450000000  0.4990080000000  0.4333880000000 1.0
C      1  0.5708730000000  0.4256820000000  0.4932470000000 1.0
C      1  0.4285060000000  0.4630140000000  0.4654200000000 1.0
C      1  0.4850460000000  0.4552630000000  0.4578960000000 1.0
C      1  0.4851950000000  0.5533180000000  0.5635990000000 1.0
C      1  0.5379180000000  0.5065130000000  0.5421190000000 1.0
C      1  0.5743700000000  0.5212010000000  0.5665870000000 1.0
C      1  0.5338840000000  0.4920760000000  0.4503050000000 1.0
C      1  0.5392430000000  0.4655520000000  0.4939840000000 1.0
C      1  0.4427240000000  0.5645610000000  0.5443080000000 1.0
C      1  0.5584850000000  0.5667990000000  0.5427300000000 1.0
C      1  0.4534460000000  0.5492810000000  0.4548520000000 1.0
C      1  0.4355300000000  0.4519450000000  0.5450460000000 1.0
C      1  0.4550020000000  0.4106860000000  0.4771900000000 1.0
C      1  0.4969590000000  0.4760640000000  0.4735630000000 1.0
C      1  0.4987970000000  0.5105660000000  0.4140840000000 1.0
C      1  0.5120200000000  0.4453270000000  0.5687810000000 1.0
C      1  0.5272300000000  0.5371000000000  0.5873950000000 1.0
C      1  0.5141080000000  0.4368340000000  0.4343560000000 1.0
C      1  0.4730750000000  0.5663260000000  0.4660530000000 1.0
C      1  0.4919400000000  0.4819820000000  0.5017970000000 1.0
C      1  0.5673220000000  0.5607930000000  0.5142520000000 1.0
C      1  0.4187760000000  0.4497400000000  0.4892840000000 1.0
C      1  0.4754560000000  0.5188980000000  0.4908160000000 1.0
C      1  0.5473410000000  0.4867360000000  0.4240920000000 1.0
C      1  0.5836840000000  0.4717380000000  0.4381440000000 1.0
C      1  0.5565940000000  0.4880270000000  0.5518050000000 1.0
C      1  0.4735930000000  0.4531260000000  0.5763390000000 1.0
C      1  0.5870710000000  0.4559080000000  0.4632050000000 1.0
C      1  0.5922690000000  0.4952490000000  0.4958840000000 1.0
C      1  0.5393820000000  0.5248390000000  0.5194600000000 1.0
C      1  0.5105610000000  0.5098230000000  0.5460300000000 1.0
C      1  0.5673240000000  0.5442690000000  0.5543000000000 1.0
C      1  0.4268890000000  0.5691900000000  0.5195420000000 1.0
C      1  0.5184950000000  0.5451680000000  0.5207610000000 1.0
C      1  0.5238760000000  0.5088350000000  0.5903950000000 1.0
C      1  0.5445150000000  0.4192880000000  0.4960230000000 1.0
C      1  0.4297830000000  0.5067570000000  0.4369090000000 1.0
C      1  0.4327430000000  0.5488890000000  0.4758820000000 1.0
C      1  0.5139660000000  0.5565010000000  0.5688180000000 1.0
C      1  0.4171310000000  0.5060570000000  0.4595590000000 1.0
C      1  0.4984760000000  0.5300790000000  0.5306070000000 1.0
C      1  0.4990730000000  0.5361280000000  0.4237990000000 1.0
C      1  0.4718100000000  0.5054940000000  0.5828830000000 1.0
C      1  0.4353930000000  0.4531940000000  0.4399990000000 1.0
C      1  0.5196070000000  0.5752360000000  0.4587340000000 1.0
C      1  0.5276490000000  0.5907410000000  0.5023540000000 1.0
C      1  0.5238490000000  0.4506280000000  0.5195010000000 1.0
C      1  0.5321930000000  0.4441320000000  0.5497110000000 1.0
C      1  0.5578100000000  0.5152680000000  0.4539680000000 1.0
C      1  0.5222970000000  0.5092770000000  0.4999570000000 1.0
C      1  0.4191480000000  0.5294340000000  0.4948530000000 1.0
C      1  0.4369950000000  0.5727540000000  0.4920000000000 1.0
C      1  0.5029890000000  0.5215690000000  0.4810980000000 1.0
C      1  0.4654470000000  0.4148510000000  0.4500450000000 1.0
C      1  0.5201890000000  0.4215360000000  0.5089020000000 1.0
C      1  0.5084130000000  0.5983340000000  0.4809530000000 1.0
C      1  0.4341520000000  0.5010750000000  0.5377430000000 1.0
C      1  0.5069990000000  0.4577940000000  0.4173010000000 1.0
C      1  0.5595790000000  0.4601200000000  0.4260080000000 1.0
C      1  0.4716320000000  0.5715920000000  0.5456380000000 1.0
C      1  0.4988530000000  0.4897280000000  0.5812500000000 1.0
C      1  0.5869640000000  0.4479240000000  0.5098260000000 1.0
C      1  0.4620130000000  0.4598790000000  0.4330840000000 1.0
C      1  0.4139540000000  0.4750330000000  0.5023020000000 1.0
C      1  0.4971580000000  0.4845060000000  0.5509460000000 1.0
C      1  0.5123540000000  0.5631850000000  0.5009680000000 1.0
C      1  0.5372020000000  0.4658900000000  0.4653910000000 1.0
C      1  0.5890420000000  0.5093750000000  0.5210190000000 1.0
C      1  0.4150220000000  0.5423610000000  0.5219380000000 1.0
C      1  0.4736780000000  0.5252620000000  0.5174130000000 1.0
C      1  0.4751420000000  0.5080540000000  0.4495850000000 1.0
C      1  0.5694810000000  0.5107930000000  0.4840870000000 1.0
C      1  0.4117720000000  0.5024250000000  0.4873890000000 1.0
C      1  0.5956400000000  0.4670250000000  0.4891580000000 1.0
C      1  0.5159590000000  0.5898170000000  0.5324340000000 1.0
C      1  0.4434150000000  0.4273720000000  0.5314250000000 1.0
C      1  0.4251090000000  0.4746480000000  0.5292610000000 1.0
C      1  0.4461320000000  0.4941830000000  0.5769130000000 1.0
C      1  0.5452200000000  0.4934350000000  0.4953140000000 1.0
C      1  0.5449360000000  0.4429900000000  0.4466570000000 1.0
C      1  0.5205260000000  0.5516540000000  0.4376260000000 1.0
C      1  0.4489590000000  0.4638500000000  0.5691920000000 1.0
C      1  0.5579240000000  0.4589870000000  0.5527150000000 1.0
C      1  0.5010250000000  0.4688320000000  0.5267870000000 1.0
C      1  0.4977300000000  0.4587900000000  0.5888110000000 1.0
C      1  0.4678870000000  0.5311330000000  0.4331500000000 1.0
C      1  0.5712810000000  0.5308990000000  0.5090840000000 1.0
C      1  0.4656540000000  0.4842410000000  0.4130930000000 1.0
C      1  0.5508440000000  0.5185860000000  0.5863250000000 1.0
C      1  0.4693920000000  0.5277560000000  0.5643810000000 1.0
C      1  0.4651720000000  0.4704590000000  0.4993560000000 1.0
C      1  0.4386590000000  0.4290560000000  0.4993210000000 1.0
C      1  0.5298350000000  0.5741810000000  0.5517640000000 1.0
C      1  0.4484900000000  0.4800760000000  0.4793060000000 1.0
C      1  0.5481050000000  0.5676260000000  0.4659450000000 1.0
C      1  0.4930400000000  0.4274670000000  0.4543690000000 1.0
C      1  0.4852640000000  0.5968040000000  0.4983380000000 1.0
C      1  0.4936890000000  0.4833160000000  0.4067950000000 1.0
C      1  0.4655140000000  0.4423390000000  0.5009990000000 1.0
C      1  0.4262340000000  0.5399840000000  0.5495980000000 1.0
C      1  0.5024490000000  0.5013920000000  0.4586090000000 1.0
C      1  0.5541550000000  0.5749640000000  0.4934660000000 1.0
C      1  0.4263030000000  0.5125700000000  0.5631840000000 1.0
C      1  0.4926550000000  0.4097620000000  0.5117320000000 1.0
C      1  0.5820540000000  0.4987040000000  0.5475100000000 1.0
C      1  0.4880170000000  0.5892310000000  0.5280250000000 1.0
C      1  0.4618290000000  0.5862540000000  0.4838660000000 1.0
END
