TITL C-884137-4758-326 46.6562502166236 125000 -29768.8467650715 0 0 197 (C1) n - 1
REM
REM in /home/nfs/bkarasulu/CARBON/AIRSS/Generating-Clusters/ReaxFF-fromJPCA2015/Units_Real/with-SteepDescent/Only-C1/SD-CG/Try1-3A/FIRE-CG
REM
REM
REM
REM
REM
REM ./C.cell (11c1c37f851c82e70ff6c80c92926a4b)
REM
REM compiler GCC version 9.2.1 20190827 (Red Hat 9.2.1-1)
REM options -cpp -mtune=generic -march=x86-64 -g -O0 -fpre-include=/usr/include/finclude/math-vector-fortran.h
REM seed -36756116 286187562 -1968767931 -1677887911 -722337206 -56788210 1787476826 -1357217949 -1307598983 480784084 -1436936447 1989642381 887528009 524481144 484865900 -38579473 -1312925979 1529187651 -1985283812 -1758373235 -1012348815 316241684 -1923459863 -254701078 -1476488601 -957913429 -435894030 -373415018 55121933 -1787559221 -714390657 -2038073688 -1303771588
REM
CELL 1.54180   50.00000   50.00000   50.00000   90.00000   90.00000   90.00000
LATT -1
SFAC C  
C      1  0.4935010000000  0.6122480000000  0.5326270000000 1.0
C      1  0.5825170000000  0.4398860000000  0.5459230000000 1.0
C      1  0.5362050000000  0.4986420000000  0.6001260000000 1.0
C      1  0.4744870000000  0.4024160000000  0.4527580000000 1.0
C      1  0.4488990000000  0.5908100000000  0.5466670000000 1.0
C      1  0.6063100000000  0.5275660000000  0.4613100000000 1.0
C      1  0.4390090000000  0.5206050000000  0.4823990000000 1.0
C      1  0.4051080000000  0.5531320000000  0.4673910000000 1.0
C      1  0.6106430000000  0.5159890000000  0.5115700000000 1.0
C      1  0.5224830000000  0.4400780000000  0.5351240000000 1.0
C      1  0.3824760000000  0.5330540000000  0.4723340000000 1.0
C      1  0.5548740000000  0.5972410000000  0.5406590000000 1.0
C      1  0.4882820000000  0.5441610000000  0.4087040000000 1.0
C      1  0.5471500000000  0.4007250000000  0.5131960000000 1.0
C      1  0.4800450000000  0.4659510000000  0.5224510000000 1.0
C      1  0.4463550000000  0.4379130000000  0.5555140000000 1.0
C      1  0.5341330000000  0.3873320000000  0.4901360000000 1.0
C      1  0.5663760000000  0.4171050000000  0.5548590000000 1.0
C      1  0.5555260000000  0.5852820000000  0.4413780000000 1.0
C      1  0.4877010000000  0.5499440000000  0.4586600000000 1.0
C      1  0.5951860000000  0.5065170000000  0.5581200000000 1.0
C      1  0.4945730000000  0.4496420000000  0.5414130000000 1.0
C      1  0.4174050000000  0.4818180000000  0.4478140000000 1.0
C      1  0.5859690000000  0.5092170000000  0.4196380000000 1.0
C      1  0.5359170000000  0.6160790000000  0.5367980000000 1.0
C      1  0.3687010000000  0.5190520000000  0.4561870000000 1.0
C      1  0.4960600000000  0.4986860000000  0.3871900000000 1.0
C      1  0.4571020000000  0.4098100000000  0.4986920000000 1.0
C      1  0.4118220000000  0.4278290000000  0.4937420000000 1.0
C      1  0.4124080000000  0.4768610000000  0.5565860000000 1.0
C      1  0.5430800000000  0.4873340000000  0.5345430000000 1.0
C      1  0.4776130000000  0.4636850000000  0.4423440000000 1.0
C      1  0.4201580000000  0.5067170000000  0.4965910000000 1.0
C      1  0.5324080000000  0.4642570000000  0.5467160000000 1.0
C      1  0.4591900000000  0.4523850000000  0.4610770000000 1.0
C      1  0.5159950000000  0.4179570000000  0.4297230000000 1.0
C      1  0.5147370000000  0.5375310000000  0.4028390000000 1.0
C      1  0.5069120000000  0.6066290000000  0.5811790000000 1.0
C      1  0.4415170000000  0.4290710000000  0.4115930000000 1.0
C      1  0.5764080000000  0.4441690000000  0.5948820000000 1.0
C      1  0.5490500000000  0.5606040000000  0.4732480000000 1.0
C      1  0.5318360000000  0.5090010000000  0.5504600000000 1.0
C      1  0.4848990000000  0.5165660000000  0.5675920000000 1.0
C      1  0.3948240000000  0.5487270000000  0.5382810000000 1.0
C      1  0.4813550000000  0.5674960000000  0.5566600000000 1.0
C      1  0.5591800000000  0.4886620000000  0.4476180000000 1.0
C      1  0.3847730000000  0.4775580000000  0.5161680000000 1.0
C      1  0.4337790000000  0.5480890000000  0.5571060000000 1.0
C      1  0.4434730000000  0.4986730000000  0.3965160000000 1.0
C      1  0.5946540000000  0.4501930000000  0.5204720000000 1.0
C      1  0.4542560000000  0.5718540000000  0.4209010000000 1.0
C      1  0.5765680000000  0.4882610000000  0.5705070000000 1.0
C      1  0.4774360000000  0.5130350000000  0.5082920000000 1.0
C      1  0.5230860000000  0.4727550000000  0.4126620000000 1.0
C      1  0.4270400000000  0.5883160000000  0.5286670000000 1.0
C      1  0.4697940000000  0.5605940000000  0.4783740000000 1.0
C      1  0.5174750000000  0.4919290000000  0.4353600000000 1.0
C      1  0.5797090000000  0.4390790000000  0.4454190000000 1.0
C      1  0.4354870000000  0.5771300000000  0.4415230000000 1.0
C      1  0.5100040000000  0.6198840000000  0.5561200000000 1.0
C      1  0.4101390000000  0.5458790000000  0.5126420000000 1.0
C      1  0.5541520000000  0.4386160000000  0.5008980000000 1.0
C      1  0.4435520000000  0.5637970000000  0.4664920000000 1.0
C      1  0.5361950000000  0.5038750000000  0.4519200000000 1.0
C      1  0.4531880000000  0.5273260000000  0.5924400000000 1.0
C      1  0.5586230000000  0.4229190000000  0.5828190000000 1.0
C      1  0.4893360000000  0.4360670000000  0.5990590000000 1.0
C      1  0.5654880000000  0.4855430000000  0.4183320000000 1.0
C      1  0.4017620000000  0.4616770000000  0.5338110000000 1.0
C      1  0.4715920000000  0.4338630000000  0.4882330000000 1.0
C      1  0.4123920000000  0.5677990000000  0.4918340000000 1.0
C      1  0.4977200000000  0.5896400000000  0.4439850000000 1.0
C      1  0.4335420000000  0.4230680000000  0.5360440000000 1.0
C      1  0.5456690000000  0.3976820000000  0.4642590000000 1.0
C      1  0.5740140000000  0.5782230000000  0.5445580000000 1.0
C      1  0.4827190000000  0.5654510000000  0.4298070000000 1.0
C      1  0.5042680000000  0.5340640000000  0.6071350000000 1.0
C      1  0.4780340000000  0.4590220000000  0.4145020000000 1.0
C      1  0.6039570000000  0.5051510000000  0.4418290000000 1.0
C      1  0.4537850000000  0.5691290000000  0.5688130000000 1.0
C      1  0.5943690000000  0.4575490000000  0.4665060000000 1.0
C      1  0.5912460000000  0.4787800000000  0.5178830000000 1.0
C      1  0.5350400000000  0.5458720000000  0.4208570000000 1.0
C      1  0.5488060000000  0.3971730000000  0.5418650000000 1.0
C      1  0.5033580000000  0.4393180000000  0.4900450000000 1.0
C      1  0.4757790000000  0.4016600000000  0.5403440000000 1.0
C      1  0.5042570000000  0.5750670000000  0.5785930000000 1.0
C      1  0.5886980000000  0.5849530000000  0.5059990000000 1.0
C      1  0.5141290000000  0.4378620000000  0.4640830000000 1.0
C      1  0.5237810000000  0.5521040000000  0.5164340000000 1.0
C      1  0.5692600000000  0.4153100000000  0.4606420000000 1.0
C      1  0.5123610000000  0.5378770000000  0.4657510000000 1.0
C      1  0.5746150000000  0.5608360000000  0.4378400000000 1.0
C      1  0.5070190000000  0.4696210000000  0.5596720000000 1.0
C      1  0.5166750000000  0.4764880000000  0.6064250000000 1.0
C      1  0.5361940000000  0.4475660000000  0.4520110000000 1.0
C      1  0.4172180000000  0.4824760000000  0.4782730000000 1.0
C      1  0.5892530000000  0.5907610000000  0.4793460000000 1.0
C      1  0.5602320000000  0.4867230000000  0.5109500000000 1.0
C      1  0.4828900000000  0.5134610000000  0.5968280000000 1.0
C      1  0.4462120000000  0.4681720000000  0.5940720000000 1.0
C      1  0.5016570000000  0.4976210000000  0.5546030000000 1.0
C      1  0.4703530000000  0.5123850000000  0.3902600000000 1.0
C      1  0.5981860000000  0.5672190000000  0.4710320000000 1.0
C      1  0.5559400000000  0.4662530000000  0.4649070000000 1.0
C      1  0.4501840000000  0.4727700000000  0.4817010000000 1.0
C      1  0.3819270000000  0.5059400000000  0.5229180000000 1.0
C      1  0.4217470000000  0.5320220000000  0.4358970000000 1.0
C      1  0.4584440000000  0.5119520000000  0.4351040000000 1.0
C      1  0.4398450000000  0.5358060000000  0.5284050000000 1.0
C      1  0.6083120000000  0.4965320000000  0.5328490000000 1.0
C      1  0.4510090000000  0.4883170000000  0.5401700000000 1.0
C      1  0.5158680000000  0.6142740000000  0.5144300000000 1.0
C      1  0.4975840000000  0.4723040000000  0.3973790000000 1.0
C      1  0.4361640000000  0.4341160000000  0.4424150000000 1.0
C      1  0.5126320000000  0.4053420000000  0.5739350000000 1.0
C      1  0.4907560000000  0.5584720000000  0.6014500000000 1.0
C      1  0.4301550000000  0.5388850000000  0.4627610000000 1.0
C      1  0.5787860000000  0.5385560000000  0.4179260000000 1.0
C      1  0.4401620000000  0.4660880000000  0.5625990000000 1.0
C      1  0.5910000000000  0.5691800000000  0.5229840000000 1.0
C      1  0.4752160000000  0.5879480000000  0.5331230000000 1.0
C      1  0.5087650000000  0.4888950000000  0.4809300000000 1.0
C      1  0.5411190000000  0.4915350000000  0.4014850000000 1.0
C      1  0.5869810000000  0.5335660000000  0.5529940000000 1.0
C      1  0.4552450000000  0.5994800000000  0.4818280000000 1.0
C      1  0.5205390000000  0.3981580000000  0.4503800000000 1.0
C      1  0.5163690000000  0.4658450000000  0.4944770000000 1.0
C      1  0.4131330000000  0.5691510000000  0.5468330000000 1.0
C      1  0.4702200000000  0.4299650000000  0.4092660000000 1.0
C      1  0.3988990000000  0.4459250000000  0.4747870000000 1.0
C      1  0.3952810000000  0.5220250000000  0.5011930000000 1.0
C      1  0.3905520000000  0.5202770000000  0.5465360000000 1.0
C      1  0.5422140000000  0.5882680000000  0.4798440000000 1.0
C      1  0.5059930000000  0.5688910000000  0.5043970000000 1.0
C      1  0.5202710000000  0.5405250000000  0.5438510000000 1.0
C      1  0.5178080000000  0.5926900000000  0.4948070000000 1.0
C      1  0.5499010000000  0.5001290000000  0.5745230000000 1.0
C      1  0.4460560000000  0.4094800000000  0.4570690000000 1.0
C      1  0.6101340000000  0.5083450000000  0.4835010000000 1.0
C      1  0.6046730000000  0.4855190000000  0.4644710000000 1.0
C      1  0.5472580000000  0.5483500000000  0.5835290000000 1.0
C      1  0.4717170000000  0.5373320000000  0.5216390000000 1.0
C      1  0.4305390000000  0.5036690000000  0.4289500000000 1.0
C      1  0.3916180000000  0.4701700000000  0.4885020000000 1.0
C      1  0.5478100000000  0.4649130000000  0.4926160000000 1.0
C      1  0.4614590000000  0.4570270000000  0.5031400000000 1.0
C      1  0.4127500000000  0.4537390000000  0.4493250000000 1.0
C      1  0.4717060000000  0.4616100000000  0.6041110000000 1.0
C      1  0.5057210000000  0.3879400000000  0.4972180000000 1.0
C      1  0.4786580000000  0.5636670000000  0.5074210000000 1.0
C      1  0.4734400000000  0.4282700000000  0.5551630000000 1.0
C      1  0.4679450000000  0.5261960000000  0.4120380000000 1.0
C      1  0.4952980000000  0.4877840000000  0.4541960000000 1.0
C      1  0.5319520000000  0.5278040000000  0.6014170000000 1.0
C      1  0.5378440000000  0.4431500000000  0.4217840000000 1.0
C      1  0.5696080000000  0.5526720000000  0.5650680000000 1.0
C      1  0.5910420000000  0.5377230000000  0.5220030000000 1.0
C      1  0.5219900000000  0.5117330000000  0.3918470000000 1.0
C      1  0.5202290000000  0.3937770000000  0.5478990000000 1.0
C      1  0.5279890000000  0.5597840000000  0.5656360000000 1.0
C      1  0.4878020000000  0.5395780000000  0.5487420000000 1.0
C      1  0.4309510000000  0.4853000000000  0.3794820000000 1.0
C      1  0.4295870000000  0.5559800000000  0.4216430000000 1.0
C      1  0.4973800000000  0.3929880000000  0.4692070000000 1.0
C      1  0.4296280000000  0.5238250000000  0.5755640000000 1.0
C      1  0.5472680000000  0.5523240000000  0.5008010000000 1.0
C      1  0.4312580000000  0.5884310000000  0.4986670000000 1.0
C      1  0.4873440000000  0.4139680000000  0.4286170000000 1.0
C      1  0.5659310000000  0.4515550000000  0.4235490000000 1.0
C      1  0.4999450000000  0.3922910000000  0.5266990000000 1.0
C      1  0.4526160000000  0.4054570000000  0.5250630000000 1.0
C      1  0.5970820000000  0.4419220000000  0.4918640000000 1.0
C      1  0.4330090000000  0.4094550000000  0.4829280000000 1.0
C      1  0.5646790000000  0.5991950000000  0.4652120000000 1.0
C      1  0.4124330000000  0.4367610000000  0.5213490000000 1.0
C      1  0.5547230000000  0.5319020000000  0.4070850000000 1.0
C      1  0.5271160000000  0.5110350000000  0.4793440000000 1.0
C      1  0.5827600000000  0.4585060000000  0.5692410000000 1.0
C      1  0.5656460000000  0.5310430000000  0.5065900000000 1.0
C      1  0.4629130000000  0.5545650000000  0.5945500000000 1.0
C      1  0.4901500000000  0.4850270000000  0.6066300000000 1.0
C      1  0.5345150000000  0.5479780000000  0.4508790000000 1.0
C      1  0.4804730000000  0.4934010000000  0.5286370000000 1.0
C      1  0.4774040000000  0.5998760000000  0.4648980000000 1.0
C      1  0.5852660000000  0.5490050000000  0.4608710000000 1.0
C      1  0.4630490000000  0.5053790000000  0.4833760000000 1.0
C      1  0.5335380000000  0.4263940000000  0.5127370000000 1.0
C      1  0.5155790000000  0.4460370000000  0.6029270000000 1.0
C      1  0.5758230000000  0.4228970000000  0.4879440000000 1.0
C      1  0.5296350000000  0.4237190000000  0.5894840000000 1.0
C      1  0.4857300000000  0.4149640000000  0.5787650000000 1.0
C      1  0.5523250000000  0.5100200000000  0.4966870000000 1.0
C      1  0.4092300000000  0.5053010000000  0.5643360000000 1.0
C      1  0.5259870000000  0.5886840000000  0.4412760000000 1.0
C      1  0.4345360000000  0.5071100000000  0.5263470000000 1.0
C      1  0.4745940000000  0.5080150000000  0.4572560000000 1.0
END
