TITL C-884137-4758-142 10.5267500638573 125000 -13078.3943736489 0 0 88 (C1) n - 1
REM
REM in /home/nfs/bkarasulu/CARBON/AIRSS/Generating-Clusters/ReaxFF-fromJPCA2015/Units_Real/with-SteepDescent/Only-C1/SD-CG/Try1-3A/FIRE-CG
REM
REM
REM
REM
REM
REM ./C.cell (11c1c37f851c82e70ff6c80c92926a4b)
REM
REM compiler GCC version 9.2.1 20190827 (Red Hat 9.2.1-1)
REM options -cpp -mtune=generic -march=x86-64 -g -O0 -fpre-include=/usr/include/finclude/math-vector-fortran.h
REM seed -327647901 33756382 -2113920321 355876998 -360874960 -1810933163 -35419694 -1904607632 226581707 665414044 23661887 -260772844 -1549793356 -1533508798 164852008 929111432 -1652436570 -917040698 2063404303 294690895 2080219024 542297402 -1134736947 -418836261 1312787514 216479054 -1804619944 526968125 2060040152 -1340287907 -1686025133 -640880444 -29931989
REM
CELL 1.54180   50.00000   50.00000   50.00000   90.00000   90.00000   90.00000
LATT -1
SFAC C  
C      1  0.4375110000000  0.5304250000000  0.4638780000000 1.0
C      1  0.4647880000000  0.5151110000000  0.4311010000000 1.0
C      1  0.4149670000000  0.4665460000000  0.5220270000000 1.0
C      1  0.4923690000000  0.5523920000000  0.5612740000000 1.0
C      1  0.5086410000000  0.5127670000000  0.5270410000000 1.0
C      1  0.5214860000000  0.4779210000000  0.4211620000000 1.0
C      1  0.5012690000000  0.4596300000000  0.4248290000000 1.0
C      1  0.5640650000000  0.5296040000000  0.4564720000000 1.0
C      1  0.4847240000000  0.5049380000000  0.4113420000000 1.0
C      1  0.4542030000000  0.4858370000000  0.4957150000000 1.0
C      1  0.5586720000000  0.5092570000000  0.4361230000000 1.0
C      1  0.4528930000000  0.5225380000000  0.5549770000000 1.0
C      1  0.4363390000000  0.5464010000000  0.5070370000000 1.0
C      1  0.4340970000000  0.5077650000000  0.5381760000000 1.0
C      1  0.4896380000000  0.4210340000000  0.5424350000000 1.0
C      1  0.4698930000000  0.5433510000000  0.5412740000000 1.0
C      1  0.4568200000000  0.5620380000000  0.5208250000000 1.0
C      1  0.4965490000000  0.5301290000000  0.5776800000000 1.0
C      1  0.5536080000000  0.5703110000000  0.4905190000000 1.0
C      1  0.5401510000000  0.5315670000000  0.4970770000000 1.0
C      1  0.4918510000000  0.4699200000000  0.5919540000000 1.0
C      1  0.4820250000000  0.5217070000000  0.5173830000000 1.0
C      1  0.4260390000000  0.5189700000000  0.5115640000000 1.0
C      1  0.5190800000000  0.4749390000000  0.5828900000000 1.0
C      1  0.5225080000000  0.5602390000000  0.4572830000000 1.0
C      1  0.5355310000000  0.4620250000000  0.5631970000000 1.0
C      1  0.4521430000000  0.4316970000000  0.5090340000000 1.0
C      1  0.5050700000000  0.4299630000000  0.4969510000000 1.0
C      1  0.5044460000000  0.5850010000000  0.5105150000000 1.0
C      1  0.4266660000000  0.4739780000000  0.4938000000000 1.0
C      1  0.5209460000000  0.5376360000000  0.5168020000000 1.0
C      1  0.4724160000000  0.4886660000000  0.4747370000000 1.0
C      1  0.5623750000000  0.5376540000000  0.5370750000000 1.0
C      1  0.5354040000000  0.5015940000000  0.4182650000000 1.0
C      1  0.5298680000000  0.5881100000000  0.4953350000000 1.0
C      1  0.5294860000000  0.4626460000000  0.5349440000000 1.0
C      1  0.5477770000000  0.4418570000000  0.4720340000000 1.0
C      1  0.5196890000000  0.5621850000000  0.5566290000000 1.0
C      1  0.5698630000000  0.4852930000000  0.5394520000000 1.0
C      1  0.5264560000000  0.5244270000000  0.5748560000000 1.0
C      1  0.5612070000000  0.5478920000000  0.5096200000000 1.0
C      1  0.4685680000000  0.4955140000000  0.5182740000000 1.0
C      1  0.5620240000000  0.4487390000000  0.4985670000000 1.0
C      1  0.4929130000000  0.4765830000000  0.4910550000000 1.0
C      1  0.5598090000000  0.4638230000000  0.4600390000000 1.0
C      1  0.4626920000000  0.4323720000000  0.5369980000000 1.0
C      1  0.5708220000000  0.5018300000000  0.5000810000000 1.0
C      1  0.4579100000000  0.4599630000000  0.5495250000000 1.0
C      1  0.4469840000000  0.4434200000000  0.4833260000000 1.0
C      1  0.5172660000000  0.5647240000000  0.5277070000000 1.0
C      1  0.4178150000000  0.5023970000000  0.4884930000000 1.0
C      1  0.4787100000000  0.5711650000000  0.5033650000000 1.0
C      1  0.5593090000000  0.4613100000000  0.5244180000000 1.0
C      1  0.5723070000000  0.4880300000000  0.4519110000000 1.0
C      1  0.5169680000000  0.5687120000000  0.4286420000000 1.0
C      1  0.4669860000000  0.4633880000000  0.5785900000000 1.0
C      1  0.4390820000000  0.5014400000000  0.4342880000000 1.0
C      1  0.4889900000000  0.4528370000000  0.5064300000000 1.0
C      1  0.5506700000000  0.5552020000000  0.4645570000000 1.0
C      1  0.5072540000000  0.5149630000000  0.4601330000000 1.0
C      1  0.5784740000000  0.5094280000000  0.4732890000000 1.0
C      1  0.5557790000000  0.4824390000000  0.5647930000000 1.0
C      1  0.4660400000000  0.4423940000000  0.4614890000000 1.0
C      1  0.4710980000000  0.5145430000000  0.5760140000000 1.0
C      1  0.4507780000000  0.4753560000000  0.4252230000000 1.0
C      1  0.4795920000000  0.4765780000000  0.4141960000000 1.0
C      1  0.5391510000000  0.4998680000000  0.4965030000000 1.0
C      1  0.5100010000000  0.4148120000000  0.5214220000000 1.0
C      1  0.5421030000000  0.5424310000000  0.5582530000000 1.0
C      1  0.5115120000000  0.5172400000000  0.4085010000000 1.0
C      1  0.5372910000000  0.4981250000000  0.5816980000000 1.0
C      1  0.4817610000000  0.5444790000000  0.4904930000000 1.0
C      1  0.5249310000000  0.4953640000000  0.4703010000000 1.0
C      1  0.5094950000000  0.4719340000000  0.4684690000000 1.0
C      1  0.4786810000000  0.4694830000000  0.5274430000000 1.0
C      1  0.5237600000000  0.4892790000000  0.5209420000000 1.0
C      1  0.5158340000000  0.4332120000000  0.5427200000000 1.0
C      1  0.5132310000000  0.5467340000000  0.4092540000000 1.0
C      1  0.4517020000000  0.4568900000000  0.4459890000000 1.0
C      1  0.5187880000000  0.4322200000000  0.4712110000000 1.0
C      1  0.4790720000000  0.5091370000000  0.4560840000000 1.0
C      1  0.4224220000000  0.5087480000000  0.4588370000000 1.0
C      1  0.4989310000000  0.4468560000000  0.4539860000000 1.0
C      1  0.4503650000000  0.5481790000000  0.4812030000000 1.0
C      1  0.5746150000000  0.5118400000000  0.5274630000000 1.0
C      1  0.4318040000000  0.4785390000000  0.5420500000000 1.0
C      1  0.5028480000000  0.5422490000000  0.4694620000000 1.0
C      1  0.4693340000000  0.4892690000000  0.5910330000000 1.0
END
