TITL C-884133-6611-32 12562644.5214013 125000 -29259.7709510756 0 0 199 (C1) n - 1
REM
REM in /home/nfs/bkarasulu/CARBON/AIRSS/Generating-Clusters/ReaxFF-fromJPCA2015/Units_Real/with-SteepDescent/Only-C1/SD-CG/Try1-3A/FIRE-CG
REM
REM
REM
REM
REM
REM ./C.cell (11c1c37f851c82e70ff6c80c92926a4b)
REM
REM compiler GCC version 9.2.1 20190827 (Red Hat 9.2.1-1)
REM options -cpp -mtune=generic -march=x86-64 -g -O0 -fpre-include=/usr/include/finclude/math-vector-fortran.h
REM seed -280360586 618721933 850529738 454403069 -1427695740 -1554414393 -416109231 -192932479 1350781947 -1367848641 177098017 -2085929891 -1656943188 -2105792814 -110848761 -492920124 1930015905 1225241661 -687867384 1221333609 -1496374958 1840779959 -1033837397 1257061807 -1285293806 314713516 1800634457 -1997951981 878240502 380710151 100386804 116750194 -1249612256
REM
CELL 1.54180   50.00000   50.00000   50.00000   90.00000   90.00000   90.00000
LATT -1
SFAC C  
C      1  0.5145130000000  0.5192240000000  0.5622600000000 1.0
C      1  0.4948490000000  0.5634560000000  0.5706180000000 1.0
C      1  0.4953860000000  0.4301150000000  0.4044220000000 1.0
C      1  0.5517280000000  0.5327670000000  0.4836120000000 1.0
C      1  0.5134810000000  0.4464940000000  0.5713140000000 1.0
C      1  0.5857530000000  0.4509700000000  0.4513060000000 1.0
C      1  0.5013790000000  0.4580370000000  0.3981910000000 1.0
C      1  0.3968630000000  0.5257620000000  0.5472910000000 1.0
C      1  0.6229770000000  0.5300130000000  0.5455890000000 1.0
C      1  0.5343950000000  0.5423740000000  0.6006750000000 1.0
C      1  0.4349110000000  0.4841700000000  0.5951660000000 1.0
C      1  0.4666690000000  0.4489240000000  0.4827910000000 1.0
C      1  0.4671630000000  0.4244930000000  0.4084520000000 1.0
C      1  0.5532860000000  0.4201010000000  0.4438360000000 1.0
C      1  0.4583360000000  0.4487220000000  0.4550780000000 1.0
C      1  0.4591190000000  0.4102050000000  0.4328210000000 1.0
C      1  0.5060180000000  0.4747880000000  0.3732980000000 1.0
C      1  0.4879530000000  0.5328610000000  0.6046730000000 1.0
C      1  0.4926930000000  0.5754050000000  0.4416270000000 1.0
C      1  0.4076920000000  0.5660640000000  0.4418950000000 1.0
C      1  0.5691530000000  0.5918830000000  0.4610070000000 1.0
C      1  0.4336020000000  0.3837780000000  0.5331280000000 1.0
C      1  0.4516750000000  0.4492510000000  0.5519000000000 1.0
C      1  0.4803020000000  0.5363300000000  0.4749890000000 1.0
C      1  0.4510700000000  0.4597770000000  0.5981550000000 1.0
C      1  0.4073130000000  0.4840660000000  0.4341520000000 1.0
C      1  0.4161320000000  0.4750350000000  0.5807490000000 1.0
C      1  0.5444680000000  0.5930460000000  0.4462890000000 1.0
C      1  0.6217050000000  0.5023760000000  0.5303250000000 1.0
C      1  0.5249350000000  0.4744540000000  0.4974570000000 1.0
C      1  0.5287220000000  0.3907800000000  0.4615150000000 1.0
C      1  0.3815030000000  0.5546980000000  0.5080140000000 1.0
C      1  0.5096580000000  0.5214280000000  0.3967660000000 1.0
C      1  0.5726120000000  0.4668590000000  0.5002710000000 1.0
C      1  0.5428280000000  0.4059270000000  0.5492810000000 1.0
C      1  0.4234040000000  0.4904440000000  0.5251460000000 1.0
C      1  0.5198650000000  0.3756920000000  0.5318430000000 1.0
C      1  0.5833930000000  0.4625130000000  0.4236000000000 1.0
C      1  0.5658840000000  0.5573750000000  0.4274460000000 1.0
C      1  0.5528930000000  0.5115450000000  0.5270280000000 1.0
C      1  0.5492160000000  0.4388950000000  0.5919350000000 1.0
C      1  0.4887640000000  0.5398030000000  0.3842540000000 1.0
C      1  0.5680880000000  0.6000780000000  0.4901670000000 1.0
C      1  0.4312250000000  0.4937950000000  0.3904610000000 1.0
C      1  0.4244280000000  0.5914200000000  0.5146290000000 1.0
C      1  0.4891440000000  0.5424290000000  0.5299090000000 1.0
C      1  0.5914390000000  0.4457830000000  0.5139020000000 1.0
C      1  0.4805060000000  0.3838950000000  0.4734060000000 1.0
C      1  0.5425550000000  0.6133600000000  0.4939190000000 1.0
C      1  0.5499460000000  0.5734900000000  0.5553020000000 1.0
C      1  0.6028620000000  0.4547460000000  0.5390670000000 1.0
C      1  0.4033750000000  0.5375440000000  0.4382860000000 1.0
C      1  0.3818390000000  0.4687220000000  0.4734230000000 1.0
C      1  0.5557240000000  0.6114590000000  0.5330360000000 1.0
C      1  0.5184260000000  0.3646130000000  0.5057710000000 1.0
C      1  0.4400160000000  0.4270720000000  0.4481190000000 1.0
C      1  0.5461170000000  0.4330310000000  0.4200270000000 1.0
C      1  0.4793070000000  0.6110570000000  0.4887530000000 1.0
C      1  0.4909570000000  0.4449690000000  0.4961740000000 1.0
C      1  0.4444430000000  0.5147840000000  0.4073780000000 1.0
C      1  0.3998680000000  0.4613520000000  0.4501490000000 1.0
C      1  0.4608890000000  0.4893490000000  0.4651920000000 1.0
C      1  0.4346290000000  0.5151880000000  0.5832560000000 1.0
C      1  0.4160060000000  0.5110510000000  0.4475860000000 1.0
C      1  0.5458020000000  0.4582830000000  0.4856330000000 1.0
C      1  0.5128640000000  0.4335810000000  0.4808450000000 1.0
C      1  0.5385540000000  0.4261700000000  0.4950030000000 1.0
C      1  0.4635670000000  0.5489920000000  0.5638050000000 1.0
C      1  0.5941900000000  0.4221790000000  0.4994960000000 1.0
C      1  0.4517400000000  0.6025780000000  0.5270960000000 1.0
C      1  0.4926910000000  0.4726710000000  0.4231200000000 1.0
C      1  0.5096660000000  0.3993980000000  0.4417060000000 1.0
C      1  0.4696830000000  0.5317820000000  0.4480080000000 1.0
C      1  0.4912240000000  0.5639320000000  0.4014760000000 1.0
C      1  0.4596070000000  0.4383900000000  0.5785470000000 1.0
C      1  0.4259780000000  0.4703090000000  0.5042760000000 1.0
C      1  0.4931240000000  0.6071030000000  0.4404910000000 1.0
C      1  0.5371040000000  0.5114420000000  0.6032020000000 1.0
C      1  0.5255000000000  0.5995500000000  0.4714400000000 1.0
C      1  0.5552350000000  0.4200170000000  0.5721080000000 1.0
C      1  0.4419840000000  0.5614490000000  0.5797720000000 1.0
C      1  0.4654480000000  0.4647790000000  0.4314210000000 1.0
C      1  0.5878440000000  0.4821360000000  0.5662290000000 1.0
C      1  0.4885320000000  0.4431840000000  0.5852170000000 1.0
C      1  0.6153150000000  0.4912210000000  0.4759590000000 1.0
C      1  0.4122680000000  0.5095950000000  0.4801490000000 1.0
C      1  0.3870510000000  0.4959030000000  0.4862470000000 1.0
C      1  0.4945590000000  0.4271040000000  0.5341980000000 1.0
C      1  0.4624040000000  0.4019320000000  0.5574460000000 1.0
C      1  0.4487920000000  0.5066320000000  0.5328030000000 1.0
C      1  0.4331110000000  0.4643130000000  0.3926630000000 1.0
C      1  0.4696060000000  0.4868840000000  0.5216070000000 1.0
C      1  0.5303640000000  0.5945370000000  0.5684820000000 1.0
C      1  0.5224570000000  0.4962900000000  0.3862600000000 1.0
C      1  0.4436410000000  0.5308200000000  0.5165550000000 1.0
C      1  0.5457940000000  0.5357090000000  0.5115640000000 1.0
C      1  0.3977850000000  0.4980470000000  0.5361130000000 1.0
C      1  0.4184930000000  0.4179950000000  0.4979120000000 1.0
C      1  0.4110850000000  0.4791010000000  0.4059820000000 1.0
C      1  0.4431290000000  0.5217740000000  0.4356520000000 1.0
C      1  0.5944000000000  0.4671690000000  0.4738870000000 1.0
C      1  0.4893410000000  0.5628200000000  0.4817640000000 1.0
C      1  0.4269080000000  0.5829530000000  0.5636210000000 1.0
C      1  0.4134600000000  0.5768850000000  0.5366950000000 1.0
C      1  0.5301160000000  0.4693270000000  0.5247660000000 1.0
C      1  0.5230480000000  0.4853540000000  0.6044640000000 1.0
C      1  0.4796700000000  0.4645520000000  0.6042740000000 1.0
C      1  0.4992070000000  0.6160730000000  0.4670690000000 1.0
C      1  0.4348860000000  0.3924380000000  0.5034590000000 1.0
C      1  0.5152520000000  0.4261030000000  0.4269920000000 1.0
C      1  0.6113240000000  0.4808790000000  0.5480490000000 1.0
C      1  0.4272460000000  0.5838940000000  0.4580600000000 1.0
C      1  0.5809510000000  0.5471280000000  0.4775140000000 1.0
C      1  0.5100200000000  0.3781770000000  0.4791520000000 1.0
C      1  0.4846220000000  0.4745870000000  0.5436030000000 1.0
C      1  0.5978540000000  0.5146030000000  0.4302110000000 1.0
C      1  0.5322660000000  0.4602380000000  0.5880350000000 1.0
C      1  0.3950480000000  0.5534450000000  0.5346560000000 1.0
C      1  0.4903550000000  0.4038590000000  0.5512280000000 1.0
C      1  0.5117680000000  0.5520810000000  0.4434150000000 1.0
C      1  0.5050290000000  0.6022810000000  0.5296940000000 1.0
C      1  0.4614050000000  0.5523690000000  0.5294120000000 1.0
C      1  0.5432770000000  0.5758420000000  0.4231020000000 1.0
C      1  0.4932890000000  0.5158920000000  0.4906980000000 1.0
C      1  0.5476740000000  0.4849570000000  0.3998260000000 1.0
C      1  0.5373480000000  0.5123710000000  0.4698050000000 1.0
C      1  0.4347350000000  0.4065570000000  0.5525560000000 1.0
C      1  0.4049850000000  0.5148240000000  0.5731460000000 1.0
C      1  0.4800930000000  0.5036040000000  0.4496350000000 1.0
C      1  0.5394280000000  0.4226430000000  0.5249890000000 1.0
C      1  0.4612900000000  0.5395260000000  0.6089410000000 1.0
C      1  0.3964880000000  0.4872050000000  0.5650310000000 1.0
C      1  0.5337040000000  0.5579170000000  0.5305180000000 1.0
C      1  0.4595660000000  0.5191920000000  0.5652310000000 1.0
C      1  0.5415130000000  0.5074720000000  0.5751900000000 1.0
C      1  0.4444080000000  0.6047190000000  0.5587250000000 1.0
C      1  0.5743850000000  0.5462310000000  0.5891230000000 1.0
C      1  0.5735150000000  0.5287580000000  0.4180260000000 1.0
C      1  0.4353030000000  0.5411860000000  0.6003520000000 1.0
C      1  0.5597930000000  0.4790110000000  0.5242990000000 1.0
C      1  0.5780420000000  0.5663340000000  0.4513480000000 1.0
C      1  0.4404050000000  0.4807100000000  0.4815230000000 1.0
C      1  0.5811270000000  0.5851200000000  0.5123950000000 1.0
C      1  0.5964480000000  0.5429020000000  0.5745220000000 1.0
C      1  0.3995050000000  0.4242660000000  0.4765420000000 1.0
C      1  0.5155830000000  0.4980640000000  0.4846380000000 1.0
C      1  0.5088380000000  0.5461870000000  0.5507720000000 1.0
C      1  0.5157800000000  0.5738040000000  0.4863870000000 1.0
C      1  0.5189550000000  0.5085340000000  0.5360390000000 1.0
C      1  0.5054910000000  0.4936500000000  0.4375630000000 1.0
C      1  0.4234980000000  0.4413130000000  0.5139980000000 1.0
C      1  0.4711440000000  0.5829420000000  0.4919480000000 1.0
C      1  0.4290280000000  0.4344790000000  0.5413190000000 1.0
C      1  0.6014470000000  0.5298230000000  0.4797750000000 1.0
C      1  0.4995120000000  0.5212680000000  0.5171420000000 1.0
C      1  0.5959360000000  0.5421810000000  0.5465070000000 1.0
C      1  0.5167770000000  0.4444040000000  0.4537720000000 1.0
C      1  0.5709920000000  0.5895270000000  0.5412890000000 1.0
C      1  0.5367350000000  0.4648110000000  0.4567940000000 1.0
C      1  0.5902710000000  0.4897870000000  0.4222220000000 1.0
C      1  0.5699100000000  0.5056720000000  0.5686910000000 1.0
C      1  0.4809900000000  0.3961220000000  0.4465800000000 1.0
C      1  0.5075160000000  0.5526230000000  0.5960710000000 1.0
C      1  0.4535500000000  0.4509820000000  0.4079230000000 1.0
C      1  0.4198800000000  0.5821150000000  0.4878740000000 1.0
C      1  0.5181000000000  0.5770670000000  0.5149010000000 1.0
C      1  0.5217880000000  0.5388320000000  0.4175320000000 1.0
C      1  0.5211560000000  0.5659040000000  0.4052760000000 1.0
C      1  0.4756640000000  0.4477990000000  0.5348070000000 1.0
C      1  0.5204940000000  0.4401490000000  0.5400960000000 1.0
C      1  0.5527610000000  0.5574120000000  0.5840410000000 1.0
C      1  0.4115620000000  0.4341040000000  0.4517360000000 1.0
C      1  0.5576090000000  0.4582920000000  0.4104600000000 1.0
C      1  0.4872670000000  0.5121110000000  0.5803810000000 1.0
C      1  0.4767360000000  0.4707730000000  0.4985840000000 1.0
C      1  0.5543390000000  0.4095370000000  0.4700910000000 1.0
C      1  0.6042960000000  0.4396520000000  0.4654800000000 1.0
C      1  0.5868440000000  0.5627700000000  0.4978990000000 1.0
C      1  0.4242130000000  0.5323790000000  0.4959000000000 1.0
C      1  0.4624260000000  0.5780890000000  0.5178380000000 1.0
C      1  0.4484650000000  0.5751510000000  0.4425640000000 1.0
C      1  0.5750970000000  0.4629710000000  0.5490240000000 1.0
C      1  0.6091170000000  0.5144130000000  0.4587360000000 1.0
C      1  0.5711690000000  0.5247000000000  0.5467890000000 1.0
C      1  0.5873810000000  0.4165360000000  0.4731070000000 1.0
C      1  0.4946990000000  0.4890800000000  0.5982130000000 1.0
C      1  0.6186780000000  0.5007750000000  0.5022750000000 1.0
C      1  0.4579900000000  0.3875230000000  0.4893220000000 1.0
C      1  0.4795710000000  0.6141710000000  0.5172940000000 1.0
C      1  0.5179130000000  0.3901140000000  0.5544150000000 1.0
C      1  0.5125180000000  0.4826670000000  0.5403100000000 1.0
C      1  0.5034750000000  0.5911240000000  0.5595230000000 1.0
C      1  0.4065520000000  0.5561270000000  0.4908410000000 1.0
C      1  0.3771100000000  0.4426760000000  0.4865750000000 1.0
C      1  0.5315730000000  0.6186040000000  0.5206310000000 1.0
C      1  0.5686670000000  0.4463550000000  0.5738650000000 1.0
C      1  0.5573060000000  0.5096750000000  0.4061980000000 1.0
C      1  0.5334240000000  0.4925750000000  0.4475460000000 1.0
C      1  0.4694690000000  0.5612930000000  0.4283470000000 1.0
END
