TITL C-884132-5695-20 -111102.771287766 125000 -24909.238630225 0 0 164 (C1) n - 1
REM
REM in /home/nfs/bkarasulu/CARBON/AIRSS/Generating-Clusters/ReaxFF-fromJPCA2015/Units_Real/with-SteepDescent/Only-C1/SD-CG/Try1-3A/FIRE-CG
REM
REM
REM
REM
REM
REM ./C.cell (11c1c37f851c82e70ff6c80c92926a4b)
REM
REM compiler GCC version 9.2.1 20190827 (Red Hat 9.2.1-1)
REM options -cpp -mtune=generic -march=x86-64 -g -O0 -fpre-include=/usr/include/finclude/math-vector-fortran.h
REM seed 880435699 2095236111 611302944 -679309188 2000574386 264962859 980602477 -1447295487 1205847883 -1170451380 2015010223 -548506919 828727192 1711014097 153266948 -1518591100 1006995548 1719705714 597637086 -1749623151 -1341132313 2067796993 686345247 668126159 -1225442680 -958191992 1886229841 -104151264 347944842 -86005600 1282866377 -1019813552 -541443285
REM
CELL 1.54180   50.00000   50.00000   50.00000   90.00000   90.00000   90.00000
LATT -1
SFAC C  
C      1  0.5727490000000  0.4777150000000  0.4207660000000 1.0
C      1  0.4689720000000  0.6007520000000  0.5508610000000 1.0
C      1  0.4271270000000  0.5400540000000  0.4287830000000 1.0
C      1  0.5589010000000  0.5032160000000  0.4144750000000 1.0
C      1  0.4383780000000  0.5870750000000  0.5167420000000 1.0
C      1  0.4778910000000  0.4737360000000  0.4594240000000 1.0
C      1  0.5689220000000  0.5043360000000  0.4840230000000 1.0
C      1  0.4851620000000  0.5135210000000  0.4341720000000 1.0
C      1  0.5574810000000  0.5651850000000  0.4160740000000 1.0
C      1  0.4794830000000  0.5736140000000  0.5884350000000 1.0
C      1  0.5534450000000  0.5074610000000  0.5371260000000 1.0
C      1  0.5499900000000  0.4035480000000  0.4954280000000 1.0
C      1  0.5468980000000  0.6050670000000  0.4891290000000 1.0
C      1  0.4504310000000  0.5536310000000  0.4239650000000 1.0
C      1  0.5192900000000  0.5405990000000  0.5553990000000 1.0
C      1  0.4866670000000  0.4737960000000  0.4873660000000 1.0
C      1  0.4419440000000  0.5470400000000  0.5750380000000 1.0
C      1  0.5175930000000  0.4840630000000  0.3915720000000 1.0
C      1  0.5808910000000  0.5455680000000  0.5393170000000 1.0
C      1  0.5557690000000  0.5226920000000  0.5853210000000 1.0
C      1  0.4684180000000  0.4716980000000  0.4025820000000 1.0
C      1  0.4575630000000  0.5308920000000  0.5932710000000 1.0
C      1  0.4565330000000  0.4275490000000  0.4259840000000 1.0
C      1  0.5362510000000  0.4089380000000  0.5562340000000 1.0
C      1  0.5287190000000  0.5567480000000  0.4104070000000 1.0
C      1  0.5916730000000  0.4959730000000  0.5612330000000 1.0
C      1  0.4925820000000  0.5888850000000  0.5673150000000 1.0
C      1  0.4782630000000  0.5836740000000  0.4555600000000 1.0
C      1  0.4980080000000  0.4747190000000  0.5921630000000 1.0
C      1  0.5686260000000  0.4118170000000  0.4730520000000 1.0
C      1  0.4537510000000  0.4241950000000  0.4550250000000 1.0
C      1  0.4765990000000  0.4451540000000  0.4120140000000 1.0
C      1  0.4960060000000  0.4883780000000  0.4448220000000 1.0
C      1  0.4993160000000  0.4261780000000  0.5817090000000 1.0
C      1  0.5587900000000  0.4227360000000  0.5437260000000 1.0
C      1  0.5255000000000  0.5887830000000  0.5287980000000 1.0
C      1  0.5092540000000  0.3894520000000  0.5180950000000 1.0
C      1  0.5374800000000  0.5442640000000  0.5920880000000 1.0
C      1  0.4512700000000  0.5016630000000  0.5928720000000 1.0
C      1  0.4442590000000  0.4145870000000  0.5321360000000 1.0
C      1  0.5633630000000  0.4472550000000  0.5581930000000 1.0
C      1  0.5357310000000  0.4643160000000  0.5023910000000 1.0
C      1  0.4582880000000  0.5774970000000  0.4342560000000 1.0
C      1  0.5184100000000  0.5420660000000  0.5268780000000 1.0
C      1  0.4289090000000  0.5629350000000  0.4747750000000 1.0
C      1  0.6029440000000  0.4758710000000  0.4688050000000 1.0
C      1  0.4397030000000  0.5550780000000  0.5178840000000 1.0
C      1  0.5092360000000  0.4083110000000  0.4497090000000 1.0
C      1  0.4468160000000  0.5849260000000  0.5564770000000 1.0
C      1  0.5840760000000  0.4275600000000  0.4942900000000 1.0
C      1  0.4630110000000  0.4702630000000  0.5356090000000 1.0
C      1  0.4820020000000  0.5146740000000  0.5189350000000 1.0
C      1  0.4854130000000  0.4522310000000  0.5343900000000 1.0
C      1  0.5442140000000  0.4453910000000  0.4412830000000 1.0
C      1  0.5880360000000  0.4579110000000  0.4924350000000 1.0
C      1  0.5181570000000  0.4067040000000  0.4966840000000 1.0
C      1  0.6004560000000  0.5368180000000  0.4565250000000 1.0
C      1  0.5280180000000  0.4259220000000  0.5779140000000 1.0
C      1  0.4409200000000  0.4902410000000  0.5009860000000 1.0
C      1  0.5220620000000  0.4887310000000  0.4586880000000 1.0
C      1  0.5573720000000  0.4813800000000  0.5374420000000 1.0
C      1  0.5438940000000  0.4510380000000  0.5797720000000 1.0
C      1  0.5073500000000  0.4352780000000  0.4954190000000 1.0
C      1  0.5521840000000  0.4565700000000  0.4160570000000 1.0
C      1  0.4380830000000  0.5894450000000  0.4875850000000 1.0
C      1  0.3928710000000  0.4798440000000  0.5032680000000 1.0
C      1  0.5186700000000  0.5301490000000  0.4009910000000 1.0
C      1  0.5765950000000  0.5171990000000  0.4592000000000 1.0
C      1  0.4605030000000  0.5236310000000  0.4785370000000 1.0
C      1  0.4082630000000  0.5426510000000  0.4869090000000 1.0
C      1  0.4846400000000  0.4475940000000  0.5942900000000 1.0
C      1  0.5704080000000  0.5918030000000  0.5018840000000 1.0
C      1  0.5899780000000  0.5154200000000  0.5008460000000 1.0
C      1  0.5366750000000  0.5015810000000  0.5888270000000 1.0
C      1  0.5113480000000  0.5876000000000  0.4512270000000 1.0
C      1  0.5996170000000  0.4655880000000  0.5191050000000 1.0
C      1  0.4369200000000  0.4545810000000  0.5689390000000 1.0
C      1  0.5010120000000  0.5463870000000  0.4854720000000 1.0
C      1  0.5334900000000  0.5875950000000  0.4706380000000 1.0
C      1  0.5689260000000  0.5835350000000  0.5283930000000 1.0
C      1  0.4648640000000  0.5165280000000  0.5421260000000 1.0
C      1  0.5115300000000  0.5169480000000  0.5719740000000 1.0
C      1  0.5048210000000  0.3915650000000  0.4707800000000 1.0
C      1  0.5263750000000  0.4582260000000  0.4013070000000 1.0
C      1  0.5670530000000  0.4159250000000  0.5157430000000 1.0
C      1  0.4828110000000  0.5553800000000  0.4647610000000 1.0
C      1  0.4442640000000  0.5359930000000  0.5461430000000 1.0
C      1  0.5274500000000  0.5374450000000  0.4761350000000 1.0
C      1  0.5761700000000  0.5638720000000  0.4907260000000 1.0
C      1  0.4591660000000  0.6060450000000  0.5236030000000 1.0
C      1  0.5097410000000  0.5342430000000  0.5968850000000 1.0
C      1  0.4652670000000  0.4916860000000  0.5539470000000 1.0
C      1  0.4354150000000  0.4847230000000  0.5691070000000 1.0
C      1  0.4372410000000  0.4917060000000  0.4366860000000 1.0
C      1  0.4103500000000  0.5183530000000  0.4710010000000 1.0
C      1  0.4959100000000  0.4895160000000  0.5654910000000 1.0
C      1  0.4813360000000  0.4458270000000  0.5042360000000 1.0
C      1  0.5657840000000  0.5674020000000  0.5501130000000 1.0
C      1  0.4626240000000  0.5998010000000  0.4773150000000 1.0
C      1  0.4687540000000  0.4060900000000  0.5448210000000 1.0
C      1  0.4523150000000  0.4429800000000  0.4976920000000 1.0
C      1  0.4145210000000  0.4532190000000  0.5284690000000 1.0
C      1  0.5205120000000  0.4270650000000  0.4333280000000 1.0
C      1  0.5361670000000  0.4641080000000  0.5316710000000 1.0
C      1  0.3992620000000  0.4769360000000  0.5328170000000 1.0
C      1  0.6111070000000  0.5000870000000  0.4849360000000 1.0
C      1  0.4407850000000  0.4794670000000  0.4101400000000 1.0
C      1  0.4922860000000  0.5182530000000  0.4060250000000 1.0
C      1  0.5172240000000  0.3897740000000  0.5446260000000 1.0
C      1  0.4835230000000  0.5465540000000  0.5980880000000 1.0
C      1  0.5018790000000  0.6167190000000  0.5032330000000 1.0
C      1  0.4894200000000  0.3888950000000  0.5369760000000 1.0
C      1  0.5557840000000  0.5191320000000  0.4387220000000 1.0
C      1  0.4794170000000  0.4285620000000  0.5583210000000 1.0
C      1  0.5303370000000  0.4740960000000  0.5915820000000 1.0
C      1  0.4746120000000  0.4941220000000  0.6058670000000 1.0
C      1  0.5859130000000  0.5431250000000  0.5110790000000 1.0
C      1  0.5587420000000  0.4741600000000  0.4847730000000 1.0
C      1  0.5356380000000  0.5068420000000  0.3970240000000 1.0
C      1  0.4288280000000  0.4362890000000  0.5465470000000 1.0
C      1  0.4446560000000  0.4163520000000  0.5034810000000 1.0
C      1  0.4069610000000  0.4445210000000  0.4324870000000 1.0
C      1  0.5323890000000  0.5172250000000  0.4563990000000 1.0
C      1  0.4150980000000  0.4967220000000  0.4910110000000 1.0
C      1  0.5891250000000  0.5631310000000  0.4624170000000 1.0
C      1  0.4201750000000  0.4584820000000  0.4099720000000 1.0
C      1  0.5434630000000  0.4681950000000  0.4593410000000 1.0
C      1  0.5894790000000  0.4762940000000  0.4443880000000 1.0
C      1  0.4519280000000  0.4038400000000  0.4773180000000 1.0
C      1  0.4407030000000  0.4486670000000  0.4674950000000 1.0
C      1  0.4497460000000  0.5478750000000  0.4903410000000 1.0
C      1  0.4130010000000  0.5402750000000  0.5156570000000 1.0
C      1  0.4748150000000  0.6160570000000  0.4984540000000 1.0
C      1  0.4602350000000  0.4414370000000  0.5796580000000 1.0
C      1  0.4220410000000  0.5158650000000  0.4441450000000 1.0
C      1  0.4312110000000  0.5674200000000  0.4402740000000 1.0
C      1  0.5762710000000  0.5725370000000  0.4371500000000 1.0
C      1  0.5299010000000  0.5654560000000  0.5143820000000 1.0
C      1  0.4497220000000  0.5741950000000  0.5821980000000 1.0
C      1  0.4286860000000  0.4315990000000  0.4172290000000 1.0
C      1  0.4144510000000  0.4959840000000  0.5493980000000 1.0
C      1  0.4089990000000  0.4474790000000  0.4616450000000 1.0
C      1  0.4723300000000  0.5312080000000  0.4533250000000 1.0
C      1  0.5054350000000  0.4407370000000  0.4114820000000 1.0
C      1  0.6169840000000  0.4841190000000  0.5076390000000 1.0
C      1  0.5730140000000  0.5191820000000  0.5583010000000 1.0
C      1  0.5413030000000  0.5620690000000  0.4868590000000 1.0
C      1  0.4661320000000  0.5012470000000  0.4950270000000 1.0
C      1  0.5073800000000  0.4988210000000  0.5239200000000 1.0
C      1  0.5277430000000  0.6136230000000  0.5105810000000 1.0
C      1  0.4894100000000  0.4911460000000  0.3948860000000 1.0
C      1  0.4422590000000  0.4653040000000  0.5158170000000 1.0
C      1  0.4175900000000  0.5223850000000  0.5383940000000 1.0
C      1  0.3958630000000  0.4617730000000  0.4815760000000 1.0
C      1  0.5136760000000  0.4609840000000  0.4858960000000 1.0
C      1  0.5189160000000  0.5858150000000  0.5570570000000 1.0
C      1  0.5368530000000  0.5623010000000  0.5659680000000 1.0
C      1  0.5086330000000  0.4742720000000  0.5400820000000 1.0
C      1  0.4942920000000  0.5399480000000  0.5122610000000 1.0
C      1  0.4508330000000  0.4742040000000  0.4558130000000 1.0
C      1  0.5295330000000  0.5151170000000  0.5246630000000 1.0
C      1  0.5828040000000  0.4706590000000  0.5463040000000 1.0
C      1  0.5186440000000  0.5723740000000  0.4306600000000 1.0
C      1  0.4767110000000  0.3929150000000  0.4694190000000 1.0
END
