TITL C-883737-113-417 -1.16090459035444 125000 -18155.3304006315 0 0 122 (C1) n - 1
REM
REM in /home/nfs/bkarasulu/CARBON/AIRSS/Generating-Clusters/ReaxFF-fromJPCA2015/Units_Real/with-SteepDescent/Only-C1/SD-CG/Try1-3A/FIRE-CG
REM
REM
REM
REM
REM
REM ./C.cell (11c1c37f851c82e70ff6c80c92926a4b)
REM
REM compiler GCC version 9.2.1 20190827 (Red Hat 9.2.1-1)
REM options -cpp -mtune=generic -march=x86-64 -g -O0 -fpre-include=/usr/include/finclude/math-vector-fortran.h
REM seed 150753409 -1319862358 -563658495 1634047416 -389765183 13043083 120574141 -1346781020 453971150 1358016292 -1362792636 1792494303 880716267 1202690826 1709846540 -1072853332 -1854503621 1945908160 1634714226 -1001954976 -2046969453 -405299853 1925679168 -1200635232 -331618547 -1411760602 1825005570 766611411 1862952425 480244918 -713502067 -621098826 2115154104
REM
CELL 1.54180   50.00000   50.00000   50.00000   90.00000   90.00000   90.00000
LATT -1
SFAC C  
C      1  0.4285580000000  0.5235860000000  0.5571540000000 1.0
C      1  0.4990400000000  0.5288840000000  0.4682440000000 1.0
C      1  0.4415820000000  0.4228610000000  0.4948220000000 1.0
C      1  0.4492980000000  0.5471450000000  0.5183420000000 1.0
C      1  0.5146800000000  0.3969060000000  0.5118760000000 1.0
C      1  0.5803810000000  0.4748580000000  0.5195880000000 1.0
C      1  0.5210210000000  0.4889610000000  0.4637030000000 1.0
C      1  0.4086080000000  0.4697190000000  0.5163160000000 1.0
C      1  0.4901380000000  0.4177430000000  0.5543960000000 1.0
C      1  0.5960320000000  0.4881970000000  0.4854940000000 1.0
C      1  0.4260690000000  0.4485590000000  0.4507400000000 1.0
C      1  0.4999540000000  0.5481600000000  0.4143540000000 1.0
C      1  0.5946780000000  0.4994490000000  0.5123710000000 1.0
C      1  0.5373290000000  0.5841790000000  0.5095220000000 1.0
C      1  0.4437240000000  0.5164020000000  0.5768480000000 1.0
C      1  0.5790210000000  0.5469790000000  0.5050720000000 1.0
C      1  0.4219710000000  0.4379340000000  0.4782670000000 1.0
C      1  0.5644410000000  0.4843310000000  0.4219690000000 1.0
C      1  0.4585740000000  0.4993670000000  0.5232870000000 1.0
C      1  0.4670460000000  0.4623690000000  0.4695240000000 1.0
C      1  0.4761520000000  0.5590560000000  0.4277030000000 1.0
C      1  0.4428860000000  0.4890960000000  0.5766520000000 1.0
C      1  0.4433630000000  0.4488660000000  0.5733450000000 1.0
C      1  0.4653910000000  0.4660910000000  0.4286020000000 1.0
C      1  0.4956750000000  0.5159010000000  0.5404790000000 1.0
C      1  0.4250560000000  0.5491990000000  0.4720270000000 1.0
C      1  0.5432320000000  0.4223740000000  0.5405150000000 1.0
C      1  0.5089400000000  0.5832190000000  0.4969230000000 1.0
C      1  0.5063670000000  0.5756050000000  0.4689520000000 1.0
C      1  0.5295960000000  0.4674520000000  0.5875870000000 1.0
C      1  0.5143820000000  0.4519670000000  0.5445080000000 1.0
C      1  0.5168030000000  0.4089710000000  0.5392380000000 1.0
C      1  0.5307280000000  0.4681110000000  0.5072100000000 1.0
C      1  0.5210980000000  0.5182190000000  0.5942950000000 1.0
C      1  0.4365490000000  0.4730910000000  0.4376760000000 1.0
C      1  0.5419280000000  0.5143860000000  0.5023080000000 1.0
C      1  0.4904220000000  0.5272790000000  0.4956820000000 1.0
C      1  0.5660120000000  0.5709620000000  0.4633300000000 1.0
C      1  0.4842240000000  0.5041390000000  0.3974430000000 1.0
C      1  0.5082110000000  0.4381450000000  0.4473420000000 1.0
C      1  0.4554660000000  0.4712220000000  0.5172330000000 1.0
C      1  0.5827850000000  0.5482990000000  0.4577730000000 1.0
C      1  0.4951530000000  0.5294050000000  0.3940160000000 1.0
C      1  0.4994140000000  0.4847740000000  0.4811350000000 1.0
C      1  0.5531230000000  0.5569840000000  0.5552750000000 1.0
C      1  0.5383650000000  0.4967820000000  0.5870270000000 1.0
C      1  0.4415860000000  0.4335060000000  0.5491890000000 1.0
C      1  0.4278490000000  0.4696620000000  0.5634670000000 1.0
C      1  0.4578390000000  0.5749500000000  0.4613170000000 1.0
C      1  0.5702910000000  0.5231470000000  0.5203630000000 1.0
C      1  0.4100420000000  0.4634790000000  0.4883930000000 1.0
C      1  0.4098620000000  0.5374840000000  0.4927930000000 1.0
C      1  0.5480190000000  0.5304420000000  0.4225160000000 1.0
C      1  0.4623110000000  0.5362290000000  0.5791840000000 1.0
C      1  0.5611550000000  0.4335170000000  0.5046780000000 1.0
C      1  0.4792760000000  0.4481750000000  0.4467320000000 1.0
C      1  0.4408920000000  0.5720550000000  0.4822750000000 1.0
C      1  0.4586750000000  0.5723450000000  0.5078130000000 1.0
C      1  0.4825700000000  0.5783130000000  0.4501040000000 1.0
C      1  0.5053260000000  0.4838070000000  0.5105300000000 1.0
C      1  0.5098590000000  0.5378660000000  0.5476570000000 1.0
C      1  0.4738170000000  0.4908530000000  0.4709870000000 1.0
C      1  0.5804540000000  0.4452360000000  0.5219540000000 1.0
C      1  0.5344540000000  0.5429500000000  0.5003600000000 1.0
C      1  0.4836670000000  0.4890540000000  0.4228400000000 1.0
C      1  0.5729040000000  0.4832150000000  0.4683520000000 1.0
C      1  0.5513940000000  0.4347110000000  0.4778600000000 1.0
C      1  0.4088640000000  0.4894830000000  0.4721570000000 1.0
C      1  0.4835470000000  0.5795970000000  0.5686330000000 1.0
C      1  0.5441400000000  0.4954150000000  0.4793890000000 1.0
C      1  0.6066840000000  0.5127040000000  0.4887870000000 1.0
C      1  0.5518730000000  0.4793480000000  0.5239040000000 1.0
C      1  0.5575010000000  0.5651580000000  0.4936160000000 1.0
C      1  0.4014180000000  0.4974620000000  0.5183140000000 1.0
C      1  0.5243120000000  0.5457920000000  0.4298360000000 1.0
C      1  0.5615180000000  0.4440630000000  0.5444020000000 1.0
C      1  0.4704580000000  0.4578170000000  0.5781650000000 1.0
C      1  0.4317480000000  0.5291160000000  0.4478380000000 1.0
C      1  0.4105980000000  0.5202320000000  0.5367750000000 1.0
C      1  0.5482740000000  0.5046570000000  0.4074510000000 1.0
C      1  0.4695150000000  0.4552570000000  0.4973350000000 1.0
C      1  0.4320150000000  0.4590340000000  0.5344570000000 1.0
C      1  0.5217900000000  0.5482440000000  0.5250010000000 1.0
C      1  0.4853950000000  0.5827120000000  0.5145420000000 1.0
C      1  0.4901800000000  0.5887220000000  0.5429950000000 1.0
C      1  0.4198560000000  0.5424550000000  0.5204000000000 1.0
C      1  0.5122060000000  0.5075560000000  0.3891670000000 1.0
C      1  0.5642110000000  0.4544290000000  0.4601200000000 1.0
C      1  0.5475000000000  0.5775930000000  0.5357530000000 1.0
C      1  0.5231810000000  0.4250740000000  0.4685880000000 1.0
C      1  0.5616760000000  0.5276490000000  0.5483470000000 1.0
C      1  0.4544340000000  0.5401870000000  0.4317740000000 1.0
C      1  0.4897700000000  0.4330400000000  0.5029440000000 1.0
C      1  0.5105510000000  0.5861100000000  0.5634170000000 1.0
C      1  0.4970620000000  0.4720810000000  0.5391340000000 1.0
C      1  0.4706490000000  0.5047270000000  0.5504060000000 1.0
C      1  0.4246250000000  0.4967560000000  0.4498320000000 1.0
C      1  0.5961270000000  0.5390080000000  0.4837370000000 1.0
C      1  0.5145880000000  0.4818810000000  0.4311940000000 1.0
C      1  0.5718140000000  0.5273210000000  0.4386670000000 1.0
C      1  0.5305480000000  0.5662120000000  0.5716200000000 1.0
C      1  0.5572160000000  0.5024520000000  0.5622030000000 1.0
C      1  0.5521530000000  0.4754560000000  0.5526950000000 1.0
C      1  0.4898350000000  0.4355230000000  0.5770480000000 1.0
C      1  0.5777190000000  0.4991110000000  0.4416860000000 1.0
C      1  0.4002810000000  0.5093220000000  0.4919960000000 1.0
C      1  0.5163640000000  0.5497020000000  0.4583420000000 1.0
C      1  0.5544010000000  0.4584510000000  0.4335220000000 1.0
C      1  0.4635750000000  0.5237790000000  0.5071290000000 1.0
C      1  0.4641210000000  0.4175180000000  0.5410120000000 1.0
C      1  0.5181090000000  0.4438690000000  0.5170070000000 1.0
C      1  0.4811380000000  0.5543010000000  0.5818100000000 1.0
C      1  0.5060600000000  0.4118460000000  0.4877300000000 1.0
C      1  0.4814540000000  0.5091360000000  0.4511780000000 1.0
C      1  0.5254700000000  0.4538580000000  0.4306840000000 1.0
C      1  0.5258500000000  0.4923850000000  0.4069560000000 1.0
C      1  0.5089040000000  0.5117690000000  0.5144120000000 1.0
C      1  0.4640920000000  0.4161820000000  0.5111740000000 1.0
C      1  0.4589870000000  0.5234160000000  0.4535700000000 1.0
C      1  0.4806530000000  0.4793750000000  0.5605990000000 1.0
C      1  0.5179640000000  0.4444460000000  0.5747180000000 1.0
C      1  0.5113230000000  0.5440300000000  0.5803000000000 1.0
END
