TITL C-884138-6203-120 65.4751020882337 125000 -22405.5769042921 0 0 151 (C1) n - 1
REM
REM in /home/nfs/bkarasulu/CARBON/AIRSS/Generating-Clusters/ReaxFF-fromJPCA2015/Units_Real/with-SteepDescent/Only-C1/SD-CG/Try1-3A/FIRE-CG
REM
REM
REM
REM
REM
REM ./C.cell (11c1c37f851c82e70ff6c80c92926a4b)
REM
REM compiler GCC version 9.2.1 20190827 (Red Hat 9.2.1-1)
REM options -cpp -mtune=generic -march=x86-64 -g -O0 -fpre-include=/usr/include/finclude/math-vector-fortran.h
REM seed 971922249 -1576750958 -1892543095 1493808224 -1044768536 -1031068544 -553685325 -1922094790 -731070473 1170861657 -2081143538 65359772 -1204007951 -51495535 -86145168 -329315197 538899437 -266721175 -1068791436 2037969877 367759303 -1581441777 -428343597 968756593 -511671282 1047144470 -1497197254 1445336907 -2064908091 -1537964932 3804474 2016045787 -746376316
REM
CELL 1.54180   50.00000   50.00000   50.00000   90.00000   90.00000   90.00000
LATT -1
SFAC C  
C      1  0.4250400000000  0.4730920000000  0.4410660000000 1.0
C      1  0.4615810000000  0.5626760000000  0.5677370000000 1.0
C      1  0.5410750000000  0.5983390000000  0.4790630000000 1.0
C      1  0.5442070000000  0.5144490000000  0.5459650000000 1.0
C      1  0.4568000000000  0.4362790000000  0.4189730000000 1.0
C      1  0.5630000000000  0.5126810000000  0.4264250000000 1.0
C      1  0.5050360000000  0.3917400000000  0.4636990000000 1.0
C      1  0.4628400000000  0.5329570000000  0.5705270000000 1.0
C      1  0.4731610000000  0.4079260000000  0.5328890000000 1.0
C      1  0.4760980000000  0.3944770000000  0.5075970000000 1.0
C      1  0.5064380000000  0.5139950000000  0.4035920000000 1.0
C      1  0.4922760000000  0.4557310000000  0.4526550000000 1.0
C      1  0.5472670000000  0.4883230000000  0.4708870000000 1.0
C      1  0.5559120000000  0.5435660000000  0.5088250000000 1.0
C      1  0.5369800000000  0.5154090000000  0.4663650000000 1.0
C      1  0.5254210000000  0.5614560000000  0.5550980000000 1.0
C      1  0.5177510000000  0.5887930000000  0.5467950000000 1.0
C      1  0.5343380000000  0.3912580000000  0.4582710000000 1.0
C      1  0.4628730000000  0.4781580000000  0.5325310000000 1.0
C      1  0.5827010000000  0.4762920000000  0.5300720000000 1.0
C      1  0.4035930000000  0.5029300000000  0.5030490000000 1.0
C      1  0.5813830000000  0.5726460000000  0.5349990000000 1.0
C      1  0.4201210000000  0.4352670000000  0.4769280000000 1.0
C      1  0.5227830000000  0.5545840000000  0.4666540000000 1.0
C      1  0.4347280000000  0.5229560000000  0.5675100000000 1.0
C      1  0.5758210000000  0.5885200000000  0.5124280000000 1.0
C      1  0.4712410000000  0.5715630000000  0.4486980000000 1.0
C      1  0.5137100000000  0.4675510000000  0.4107740000000 1.0
C      1  0.5291670000000  0.4190840000000  0.5280970000000 1.0
C      1  0.5528710000000  0.4555860000000  0.5570600000000 1.0
C      1  0.5754350000000  0.4451300000000  0.5224840000000 1.0
C      1  0.4572050000000  0.4974990000000  0.4945060000000 1.0
C      1  0.4419640000000  0.5908130000000  0.5000380000000 1.0
C      1  0.4415140000000  0.4913730000000  0.5183490000000 1.0
C      1  0.5597760000000  0.4975240000000  0.5268160000000 1.0
C      1  0.4861050000000  0.5216560000000  0.4418810000000 1.0
C      1  0.4642530000000  0.4842720000000  0.4054730000000 1.0
C      1  0.5882310000000  0.5244920000000  0.4720290000000 1.0
C      1  0.4800740000000  0.4906820000000  0.5970950000000 1.0
C      1  0.4143010000000  0.4826140000000  0.5545680000000 1.0
C      1  0.5898140000000  0.4778270000000  0.4602210000000 1.0
C      1  0.5073830000000  0.4771520000000  0.4368810000000 1.0
C      1  0.5758760000000  0.4751130000000  0.5592970000000 1.0
C      1  0.4852180000000  0.4958860000000  0.5355110000000 1.0
C      1  0.5479150000000  0.6006570000000  0.5060220000000 1.0
C      1  0.5353820000000  0.5205950000000  0.4118750000000 1.0
C      1  0.5949430000000  0.5221090000000  0.5241420000000 1.0
C      1  0.4472240000000  0.4630720000000  0.4190870000000 1.0
C      1  0.5039780000000  0.4748380000000  0.6018440000000 1.0
C      1  0.5457720000000  0.4103160000000  0.4771560000000 1.0
C      1  0.4176690000000  0.5571380000000  0.4975640000000 1.0
C      1  0.5378940000000  0.3939230000000  0.4282940000000 1.0
C      1  0.4661580000000  0.4994220000000  0.4519500000000 1.0
C      1  0.4310390000000  0.4955880000000  0.5749140000000 1.0
C      1  0.4453590000000  0.5053370000000  0.4122570000000 1.0
C      1  0.5101830000000  0.5043440000000  0.4528480000000 1.0
C      1  0.4973110000000  0.4475920000000  0.5932480000000 1.0
C      1  0.5777900000000  0.4450460000000  0.4959600000000 1.0
C      1  0.4415910000000  0.5694360000000  0.4506800000000 1.0
C      1  0.5786360000000  0.5505410000000  0.5520990000000 1.0
C      1  0.4869630000000  0.5737720000000  0.5777850000000 1.0
C      1  0.4070990000000  0.4760110000000  0.4908870000000 1.0
C      1  0.4726090000000  0.4393470000000  0.5796000000000 1.0
C      1  0.4537340000000  0.4808670000000  0.5870490000000 1.0
C      1  0.5803350000000  0.5717880000000  0.4887950000000 1.0
C      1  0.5029720000000  0.4908310000000  0.4782710000000 1.0
C      1  0.5129980000000  0.5598000000000  0.5825080000000 1.0
C      1  0.5529740000000  0.4326950000000  0.5380940000000 1.0
C      1  0.4528200000000  0.5179350000000  0.4703900000000 1.0
C      1  0.5837620000000  0.5426350000000  0.4979180000000 1.0
C      1  0.4582980000000  0.4224060000000  0.4683860000000 1.0
C      1  0.5133170000000  0.4527670000000  0.4739180000000 1.0
C      1  0.4469040000000  0.4456610000000  0.4795010000000 1.0
C      1  0.5221820000000  0.6011340000000  0.5204250000000 1.0
C      1  0.5526800000000  0.5702200000000  0.4431600000000 1.0
C      1  0.5764050000000  0.5015450000000  0.5702590000000 1.0
C      1  0.5953500000000  0.4977880000000  0.4808220000000 1.0
C      1  0.4550810000000  0.5326710000000  0.4149680000000 1.0
C      1  0.4340030000000  0.4083450000000  0.4760300000000 1.0
C      1  0.4915950000000  0.5949280000000  0.5585570000000 1.0
C      1  0.5016330000000  0.3969690000000  0.4921970000000 1.0
C      1  0.4372190000000  0.5444330000000  0.4368220000000 1.0
C      1  0.4997040000000  0.6037100000000  0.5021280000000 1.0
C      1  0.4781220000000  0.5251920000000  0.5431350000000 1.0
C      1  0.4225510000000  0.4665770000000  0.5138330000000 1.0
C      1  0.5363700000000  0.4969400000000  0.5094150000000 1.0
C      1  0.4883900000000  0.5028630000000  0.5012930000000 1.0
C      1  0.4935540000000  0.4869980000000  0.3993760000000 1.0
C      1  0.4953020000000  0.4061100000000  0.4401720000000 1.0
C      1  0.4702820000000  0.4583750000000  0.5141690000000 1.0
C      1  0.4354940000000  0.5261420000000  0.5177410000000 1.0
C      1  0.5892050000000  0.5224050000000  0.5523400000000 1.0
C      1  0.5292810000000  0.4680620000000  0.5158940000000 1.0
C      1  0.4997280000000  0.4238030000000  0.5400490000000 1.0
C      1  0.4052660000000  0.5014170000000  0.5332890000000 1.0
C      1  0.5399580000000  0.5372060000000  0.4845370000000 1.0
C      1  0.4607990000000  0.4684880000000  0.4872910000000 1.0
C      1  0.4302190000000  0.5752790000000  0.4778280000000 1.0
C      1  0.4481670000000  0.4547530000000  0.5768030000000 1.0
C      1  0.4265030000000  0.4558490000000  0.5552000000000 1.0
C      1  0.4191930000000  0.5249060000000  0.5427990000000 1.0
C      1  0.5516310000000  0.4746770000000  0.4437800000000 1.0
C      1  0.5098890000000  0.6021110000000  0.4751790000000 1.0
C      1  0.5751670000000  0.5248250000000  0.4476560000000 1.0
C      1  0.4709480000000  0.4736890000000  0.4611540000000 1.0
C      1  0.5292550000000  0.4872260000000  0.5902880000000 1.0
C      1  0.4901650000000  0.5159920000000  0.5855090000000 1.0
C      1  0.5222140000000  0.5170000000000  0.5279800000000 1.0
C      1  0.5588010000000  0.4316590000000  0.4612920000000 1.0
C      1  0.5625280000000  0.5823350000000  0.4669830000000 1.0
C      1  0.5302960000000  0.5444640000000  0.4209450000000 1.0
C      1  0.5142330000000  0.4481940000000  0.5017730000000 1.0
C      1  0.4674970000000  0.5965200000000  0.5416860000000 1.0
C      1  0.4744400000000  0.4269520000000  0.4436420000000 1.0
C      1  0.5308600000000  0.5626260000000  0.4386820000000 1.0
C      1  0.4282720000000  0.4421640000000  0.5298910000000 1.0
C      1  0.5035320000000  0.5500760000000  0.5156310000000 1.0
C      1  0.5981390000000  0.4970300000000  0.5109070000000 1.0
C      1  0.5509720000000  0.5442570000000  0.5394940000000 1.0
C      1  0.5241860000000  0.4757750000000  0.4776150000000 1.0
C      1  0.5464060000000  0.4461490000000  0.4384010000000 1.0
C      1  0.5140360000000  0.5023360000000  0.5705630000000 1.0
C      1  0.4722080000000  0.5924200000000  0.5111990000000 1.0
C      1  0.4614040000000  0.5395370000000  0.5222920000000 1.0
C      1  0.4760930000000  0.5427400000000  0.4590020000000 1.0
C      1  0.5374220000000  0.5272830000000  0.5950520000000 1.0
C      1  0.4161570000000  0.5280460000000  0.4913920000000 1.0
C      1  0.4901170000000  0.5886870000000  0.4603590000000 1.0
C      1  0.4767460000000  0.5614080000000  0.5119410000000 1.0
C      1  0.4301580000000  0.5745310000000  0.5202710000000 1.0
C      1  0.5263930000000  0.4413290000000  0.4178930000000 1.0
C      1  0.5062340000000  0.5376350000000  0.5396720000000 1.0
C      1  0.4131460000000  0.4615770000000  0.4650830000000 1.0
C      1  0.5288120000000  0.4663490000000  0.5443130000000 1.0
C      1  0.5815710000000  0.4497800000000  0.4698630000000 1.0
C      1  0.5540130000000  0.5052950000000  0.5909100000000 1.0
C      1  0.4256920000000  0.5007550000000  0.4354550000000 1.0
C      1  0.4918740000000  0.4414580000000  0.5174390000000 1.0
C      1  0.5044510000000  0.4803080000000  0.5537380000000 1.0
C      1  0.4843920000000  0.5309560000000  0.4130330000000 1.0
C      1  0.4463520000000  0.4004360000000  0.5018040000000 1.0
C      1  0.4455290000000  0.4172160000000  0.5259360000000 1.0
C      1  0.5765620000000  0.4865840000000  0.4344280000000 1.0
C      1  0.4968490000000  0.4466120000000  0.5636700000000 1.0
C      1  0.4974390000000  0.5447870000000  0.4735920000000 1.0
C      1  0.5111280000000  0.5354500000000  0.5982270000000 1.0
C      1  0.4975200000000  0.5308460000000  0.4966800000000 1.0
C      1  0.4469340000000  0.5772410000000  0.5460650000000 1.0
C      1  0.4261380000000  0.5235280000000  0.4555770000000 1.0
C      1  0.5163430000000  0.4133270000000  0.4205830000000 1.0
C      1  0.5276280000000  0.4079210000000  0.5015310000000 1.0
END
