TITL C-883737-113-103 22.5775026737758 125000 -25810.8040953746 0 0 171 (C1) n - 1
REM
REM in /home/nfs/bkarasulu/CARBON/AIRSS/Generating-Clusters/ReaxFF-fromJPCA2015/Units_Real/with-SteepDescent/Only-C1/SD-CG/Try1-3A/FIRE-CG
REM
REM
REM
REM
REM
REM ./C.cell (11c1c37f851c82e70ff6c80c92926a4b)
REM
REM compiler GCC version 9.2.1 20190827 (Red Hat 9.2.1-1)
REM options -cpp -mtune=generic -march=x86-64 -g -O0 -fpre-include=/usr/include/finclude/math-vector-fortran.h
REM seed -1375540432 -832901298 188060769 1077977756 -738665542 -1931515360 -1225583957 -447869693 -1808646544 1524204392 -1485399897 -1685474814 -657162217 239779313 462927121 1840334783 -1062943339 -1013741143 -174109099 -394164476 -647993026 854365398 -1373096852 -1409703923 -98943415 702585300 -663794146 -2045356707 -670892144 1409429562 1232808607 -2116330761 126042660
REM
CELL 1.54180   50.00000   50.00000   50.00000   90.00000   90.00000   90.00000
LATT -1
SFAC C  
C      1  0.5360030000000  0.4114100000000  0.4978290000000 1.0
C      1  0.5048880000000  0.4888770000000  0.5095850000000 1.0
C      1  0.5573560000000  0.5837920000000  0.4473550000000 1.0
C      1  0.4016330000000  0.4504490000000  0.5215060000000 1.0
C      1  0.4472460000000  0.5127260000000  0.5423630000000 1.0
C      1  0.4766560000000  0.4118820000000  0.4622560000000 1.0
C      1  0.5515840000000  0.5866310000000  0.4979830000000 1.0
C      1  0.5190770000000  0.5457360000000  0.5876660000000 1.0
C      1  0.5057430000000  0.4650030000000  0.5549450000000 1.0
C      1  0.5197930000000  0.5105340000000  0.4416760000000 1.0
C      1  0.5473900000000  0.4925190000000  0.5936020000000 1.0
C      1  0.4646690000000  0.5219540000000  0.4153310000000 1.0
C      1  0.5648110000000  0.4484370000000  0.5671560000000 1.0
C      1  0.4467000000000  0.4485920000000  0.4092110000000 1.0
C      1  0.4926460000000  0.4218620000000  0.5892580000000 1.0
C      1  0.4616400000000  0.4996090000000  0.3952840000000 1.0
C      1  0.5175320000000  0.4959290000000  0.4863350000000 1.0
C      1  0.5198290000000  0.4222500000000  0.5813730000000 1.0
C      1  0.5031190000000  0.6047390000000  0.4960560000000 1.0
C      1  0.4607390000000  0.4088040000000  0.4863840000000 1.0
C      1  0.4458610000000  0.5655820000000  0.4413470000000 1.0
C      1  0.5869200000000  0.4546650000000  0.4985520000000 1.0
C      1  0.4500550000000  0.4388250000000  0.5160690000000 1.0
C      1  0.4694450000000  0.4281010000000  0.5532710000000 1.0
C      1  0.4154280000000  0.4829610000000  0.4900110000000 1.0
C      1  0.4235050000000  0.4724850000000  0.5705390000000 1.0
C      1  0.5681330000000  0.5945320000000  0.4716230000000 1.0
C      1  0.5354410000000  0.4548060000000  0.4788010000000 1.0
C      1  0.4679410000000  0.4340340000000  0.5847330000000 1.0
C      1  0.5582420000000  0.5531870000000  0.4360500000000 1.0
C      1  0.5215480000000  0.5118730000000  0.3913870000000 1.0
C      1  0.4263120000000  0.5434400000000  0.4361190000000 1.0
C      1  0.4056100000000  0.5148390000000  0.5602120000000 1.0
C      1  0.4978730000000  0.5430430000000  0.5142890000000 1.0
C      1  0.5180330000000  0.4517970000000  0.5806240000000 1.0
C      1  0.4840460000000  0.4725140000000  0.6122530000000 1.0
C      1  0.5063820000000  0.6058940000000  0.4660850000000 1.0
C      1  0.5239660000000  0.4869050000000  0.5321150000000 1.0
C      1  0.5638730000000  0.5153410000000  0.4846450000000 1.0
C      1  0.6007620000000  0.5126250000000  0.5546100000000 1.0
C      1  0.5178120000000  0.5617200000000  0.4112680000000 1.0
C      1  0.4843980000000  0.5344330000000  0.5369210000000 1.0
C      1  0.5477990000000  0.4144190000000  0.4424540000000 1.0
C      1  0.4290710000000  0.5359410000000  0.6048020000000 1.0
C      1  0.5258750000000  0.3964970000000  0.5180160000000 1.0
C      1  0.4695900000000  0.4044500000000  0.5112780000000 1.0
C      1  0.4005410000000  0.4866460000000  0.5579240000000 1.0
C      1  0.5663720000000  0.4884060000000  0.4775560000000 1.0
C      1  0.4031530000000  0.5007690000000  0.4450850000000 1.0
C      1  0.6087160000000  0.4870300000000  0.4730610000000 1.0
C      1  0.5628570000000  0.5042080000000  0.4109910000000 1.0
C      1  0.5215910000000  0.5091990000000  0.5522580000000 1.0
C      1  0.5187350000000  0.4287260000000  0.4059320000000 1.0
C      1  0.5252490000000  0.5994560000000  0.5128720000000 1.0
C      1  0.5448780000000  0.4808820000000  0.4111390000000 1.0
C      1  0.4619610000000  0.5001700000000  0.4876640000000 1.0
C      1  0.5580300000000  0.5194190000000  0.5883400000000 1.0
C      1  0.5689590000000  0.5633310000000  0.5128100000000 1.0
C      1  0.4466360000000  0.5119530000000  0.5928300000000 1.0
C      1  0.5464000000000  0.5252750000000  0.3974540000000 1.0
C      1  0.6156800000000  0.5126810000000  0.5108140000000 1.0
C      1  0.4120840000000  0.4727640000000  0.4440820000000 1.0
C      1  0.5966790000000  0.4392760000000  0.5187140000000 1.0
C      1  0.5238030000000  0.5505670000000  0.4680730000000 1.0
C      1  0.5293270000000  0.5925450000000  0.4532730000000 1.0
C      1  0.4715810000000  0.5777330000000  0.4358420000000 1.0
C      1  0.5171790000000  0.5750870000000  0.5835370000000 1.0
C      1  0.3854810000000  0.5152860000000  0.4961530000000 1.0
C      1  0.5565690000000  0.4562780000000  0.4230330000000 1.0
C      1  0.4350030000000  0.5178080000000  0.5647710000000 1.0
C      1  0.4904310000000  0.5669640000000  0.4139860000000 1.0
C      1  0.5982030000000  0.4818710000000  0.5447220000000 1.0
C      1  0.4531290000000  0.5531820000000  0.4875150000000 1.0
C      1  0.4973830000000  0.4412580000000  0.5113650000000 1.0
C      1  0.5263230000000  0.5360270000000  0.5113660000000 1.0
C      1  0.5446170000000  0.4293840000000  0.4178290000000 1.0
C      1  0.4757020000000  0.4847170000000  0.5087170000000 1.0
C      1  0.4207930000000  0.5763720000000  0.5165770000000 1.0
C      1  0.5799100000000  0.5075640000000  0.4339940000000 1.0
C      1  0.4934050000000  0.5004670000000  0.6099420000000 1.0
C      1  0.4311190000000  0.4362710000000  0.4782500000000 1.0
C      1  0.4231720000000  0.4339910000000  0.5077780000000 1.0
C      1  0.5594140000000  0.4694930000000  0.4975370000000 1.0
C      1  0.6107680000000  0.4696450000000  0.4956530000000 1.0
C      1  0.4892850000000  0.5724160000000  0.5755160000000 1.0
C      1  0.4419500000000  0.4662810000000  0.5489150000000 1.0
C      1  0.5867470000000  0.5301750000000  0.4724830000000 1.0
C      1  0.5199030000000  0.4361410000000  0.4946180000000 1.0
C      1  0.4671940000000  0.5872130000000  0.5306930000000 1.0
C      1  0.5955040000000  0.5572740000000  0.5234300000000 1.0
C      1  0.4074650000000  0.5539980000000  0.5028370000000 1.0
C      1  0.5552990000000  0.4239470000000  0.5454530000000 1.0
C      1  0.4456770000000  0.5752230000000  0.4695430000000 1.0
C      1  0.3903820000000  0.4881780000000  0.5051280000000 1.0
C      1  0.4650910000000  0.5047530000000  0.4393700000000 1.0
C      1  0.4949230000000  0.4418580000000  0.5401390000000 1.0
C      1  0.5354530000000  0.5340990000000  0.4477060000000 1.0
C      1  0.4339960000000  0.5051500000000  0.4908710000000 1.0
C      1  0.4163670000000  0.4604030000000  0.4696790000000 1.0
C      1  0.4226910000000  0.5554690000000  0.5845100000000 1.0
C      1  0.5353280000000  0.5168970000000  0.4922140000000 1.0
C      1  0.6077960000000  0.5310660000000  0.5318180000000 1.0
C      1  0.5595760000000  0.4346370000000  0.4633860000000 1.0
C      1  0.4966210000000  0.5260200000000  0.3801770000000 1.0
C      1  0.5309740000000  0.4100600000000  0.5565420000000 1.0
C      1  0.4745800000000  0.5115910000000  0.3684560000000 1.0
C      1  0.4721090000000  0.5128590000000  0.4640070000000 1.0
C      1  0.5173300000000  0.4929040000000  0.4139540000000 1.0
C      1  0.4894620000000  0.5435010000000  0.5861910000000 1.0
C      1  0.5462780000000  0.5670990000000  0.5470730000000 1.0
C      1  0.4744960000000  0.4519070000000  0.3986980000000 1.0
C      1  0.4963910000000  0.4638280000000  0.4523480000000 1.0
C      1  0.3893510000000  0.5365290000000  0.5167430000000 1.0
C      1  0.5010210000000  0.3997680000000  0.4567680000000 1.0
C      1  0.5442000000000  0.5528150000000  0.4084880000000 1.0
C      1  0.4800610000000  0.5981950000000  0.4553110000000 1.0
C      1  0.5725740000000  0.4556650000000  0.4464260000000 1.0
C      1  0.4106950000000  0.5401700000000  0.4602380000000 1.0
C      1  0.5682070000000  0.4874520000000  0.5452400000000 1.0
C      1  0.4290700000000  0.5356030000000  0.4867810000000 1.0
C      1  0.5160990000000  0.5964490000000  0.5398810000000 1.0
C      1  0.4606050000000  0.4874170000000  0.5395210000000 1.0
C      1  0.6097280000000  0.5140420000000  0.4818190000000 1.0
C      1  0.4613060000000  0.4610580000000  0.5974540000000 1.0
C      1  0.5098250000000  0.3968980000000  0.5405410000000 1.0
C      1  0.4860860000000  0.4882390000000  0.5553240000000 1.0
C      1  0.4409760000000  0.4805300000000  0.5923300000000 1.0
C      1  0.4969090000000  0.5436700000000  0.4687530000000 1.0
C      1  0.4206220000000  0.5157920000000  0.4259070000000 1.0
C      1  0.4950000000000  0.5139660000000  0.5523930000000 1.0
C      1  0.4624580000000  0.5976560000000  0.4784460000000 1.0
C      1  0.5561530000000  0.4760020000000  0.5701240000000 1.0
C      1  0.4452770000000  0.4393110000000  0.5409630000000 1.0
C      1  0.5354180000000  0.5271720000000  0.5712220000000 1.0
C      1  0.5344000000000  0.5873390000000  0.5619570000000 1.0
C      1  0.5896310000000  0.4270490000000  0.5429350000000 1.0
C      1  0.6133370000000  0.4855030000000  0.5192130000000 1.0
C      1  0.4781690000000  0.4410110000000  0.4542300000000 1.0
C      1  0.3901700000000  0.4744230000000  0.5324580000000 1.0
C      1  0.5246060000000  0.4014020000000  0.4498920000000 1.0
C      1  0.3990820000000  0.5387120000000  0.5446720000000 1.0
C      1  0.4276700000000  0.4694240000000  0.4180780000000 1.0
C      1  0.5815080000000  0.5339240000000  0.4438220000000 1.0
C      1  0.5484880000000  0.5468940000000  0.5277930000000 1.0
C      1  0.5918240000000  0.4517190000000  0.5581750000000 1.0
C      1  0.4800320000000  0.4028450000000  0.5370590000000 1.0
C      1  0.4582920000000  0.4468990000000  0.4748740000000 1.0
C      1  0.4562350000000  0.5371360000000  0.5358080000000 1.0
C      1  0.4325280000000  0.4964800000000  0.4074560000000 1.0
C      1  0.4969810000000  0.5195890000000  0.4572710000000 1.0
C      1  0.4706220000000  0.4524390000000  0.5015890000000 1.0
C      1  0.4427550000000  0.5672880000000  0.5368050000000 1.0
C      1  0.5542760000000  0.4258950000000  0.5159920000000 1.0
C      1  0.4819240000000  0.5414250000000  0.4020370000000 1.0
C      1  0.4888350000000  0.5858460000000  0.5487790000000 1.0
C      1  0.5509300000000  0.4809830000000  0.5236990000000 1.0
C      1  0.5313420000000  0.5763330000000  0.4780130000000 1.0
C      1  0.5860770000000  0.5223310000000  0.5776270000000 1.0
C      1  0.5628190000000  0.4196370000000  0.4893560000000 1.0
C      1  0.5222430000000  0.4898340000000  0.6086450000000 1.0
C      1  0.5193020000000  0.4766120000000  0.4658250000000 1.0
C      1  0.4973210000000  0.4341690000000  0.3998940000000 1.0
C      1  0.3931150000000  0.5182680000000  0.4668670000000 1.0
C      1  0.5118410000000  0.4626030000000  0.6072270000000 1.0
C      1  0.4815340000000  0.5487730000000  0.4916850000000 1.0
C      1  0.5844290000000  0.4826660000000  0.4551280000000 1.0
C      1  0.4752080000000  0.5986970000000  0.5050120000000 1.0
C      1  0.4766000000000  0.5200310000000  0.5967840000000 1.0
C      1  0.4777660000000  0.4785260000000  0.4348890000000 1.0
C      1  0.4850990000000  0.4792010000000  0.4062060000000 1.0
C      1  0.4176870000000  0.5593990000000  0.5551530000000 1.0
END
