TITL C-884135-4325-4 1354870.5169989 125000 -9318.04358128015 0 0 64 (C1) n - 1
REM
REM in /home/nfs/bkarasulu/CARBON/AIRSS/Generating-Clusters/ReaxFF-fromJPCA2015/Units_Real/with-SteepDescent/Only-C1/SD-CG/Try1-3A/FIRE-CG
REM
REM
REM
REM
REM
REM ./C.cell (11c1c37f851c82e70ff6c80c92926a4b)
REM
REM compiler GCC version 9.2.1 20190827 (Red Hat 9.2.1-1)
REM options -cpp -mtune=generic -march=x86-64 -g -O0 -fpre-include=/usr/include/finclude/math-vector-fortran.h
REM seed -887170832 1499886319 1921966241 2045390732 966519025 -782808944 -652434419 1266943974 1338732724 398899975 1674118615 617442482 1974427407 981241729 1970781798 1168143385 -2068220732 -1570964060 366454719 -651878206 -1285508504 -351084705 288610899 1634401914 552898958 -1550660187 -1511803115 808408966 966119812 1620936315 1714254522 -1576780568 465439622
REM
CELL 1.54180   50.00000   50.00000   50.00000   90.00000   90.00000   90.00000
LATT -1
SFAC C  
C      1  0.5603250000000  0.5060240000000  0.5526290000000 1.0
C      1  0.5504830000000  0.5459180000000  0.4866200000000 1.0
C      1  0.5124190000000  0.5508020000000  0.5544510000000 1.0
C      1  0.5628820000000  0.5187800000000  0.5004490000000 1.0
C      1  0.5630140000000  0.4606430000000  0.5330850000000 1.0
C      1  0.4658680000000  0.5189110000000  0.4997200000000 1.0
C      1  0.5781530000000  0.4764280000000  0.4773620000000 1.0
C      1  0.4325970000000  0.4672270000000  0.4770310000000 1.0
C      1  0.5094440000000  0.5043750000000  0.5658200000000 1.0
C      1  0.5266190000000  0.5392390000000  0.5321920000000 1.0
C      1  0.4412180000000  0.5157620000000  0.5159500000000 1.0
C      1  0.4876120000000  0.4450370000000  0.4725830000000 1.0
C      1  0.5177590000000  0.5097760000000  0.5205240000000 1.0
C      1  0.4996510000000  0.5855180000000  0.4631650000000 1.0
C      1  0.5387100000000  0.4655180000000  0.5492590000000 1.0
C      1  0.4340370000000  0.5359230000000  0.4594840000000 1.0
C      1  0.4598800000000  0.4949400000000  0.5484520000000 1.0
C      1  0.4173510000000  0.4901390000000  0.4872430000000 1.0
C      1  0.4504520000000  0.5217060000000  0.5432580000000 1.0
C      1  0.4861660000000  0.4977810000000  0.4921270000000 1.0
C      1  0.5699190000000  0.4612380000000  0.5041530000000 1.0
C      1  0.5705010000000  0.5185000000000  0.5291420000000 1.0
C      1  0.5145170000000  0.4490030000000  0.5466330000000 1.0
C      1  0.4743130000000  0.5450840000000  0.5102550000000 1.0
C      1  0.5003850000000  0.4866820000000  0.5166210000000 1.0
C      1  0.4854610000000  0.5504360000000  0.5604620000000 1.0
C      1  0.4518280000000  0.5507970000000  0.4745840000000 1.0
C      1  0.5555240000000  0.4779740000000  0.4577650000000 1.0
C      1  0.4441320000000  0.5415160000000  0.4296670000000 1.0
C      1  0.5330690000000  0.5078440000000  0.4970960000000 1.0
C      1  0.5204270000000  0.4356580000000  0.5013190000000 1.0
C      1  0.4737110000000  0.5640240000000  0.4868020000000 1.0
C      1  0.5433550000000  0.5331140000000  0.4604330000000 1.0
C      1  0.4404620000000  0.4846200000000  0.4525400000000 1.0
C      1  0.5350020000000  0.5576870000000  0.5065190000000 1.0
C      1  0.5792980000000  0.5057550000000  0.4779330000000 1.0
C      1  0.4662310000000  0.4520910000000  0.5364770000000 1.0
C      1  0.5161880000000  0.4419370000000  0.4726330000000 1.0
C      1  0.4458810000000  0.4733580000000  0.5317320000000 1.0
C      1  0.4857630000000  0.4893110000000  0.5593860000000 1.0
C      1  0.4833430000000  0.4739940000000  0.4663910000000 1.0
C      1  0.5098480000000  0.4850410000000  0.4529480000000 1.0
C      1  0.5063650000000  0.4302220000000  0.5260950000000 1.0
C      1  0.4477890000000  0.4573280000000  0.4995580000000 1.0
C      1  0.5355570000000  0.4942010000000  0.5580750000000 1.0
C      1  0.5515700000000  0.5297790000000  0.5467500000000 1.0
C      1  0.4990820000000  0.5612690000000  0.4688400000000 1.0
C      1  0.4666250000000  0.5456930000000  0.5388350000000 1.0
C      1  0.4900480000000  0.4639410000000  0.5481420000000 1.0
C      1  0.5301370000000  0.4634320000000  0.4573500000000 1.0
C      1  0.5117680000000  0.5087080000000  0.4765490000000 1.0
C      1  0.5138550000000  0.5342020000000  0.4566170000000 1.0
C      1  0.4908670000000  0.4960830000000  0.4311100000000 1.0
C      1  0.4266040000000  0.5074440000000  0.4643850000000 1.0
C      1  0.4675110000000  0.4825380000000  0.4423240000000 1.0
C      1  0.4268290000000  0.4907130000000  0.5150780000000 1.0
C      1  0.5196760000000  0.4647140000000  0.5072830000000 1.0
C      1  0.4711310000000  0.5325840000000  0.4287590000000 1.0
C      1  0.5441180000000  0.4674610000000  0.4966340000000 1.0
C      1  0.5595850000000  0.5087620000000  0.4567120000000 1.0
C      1  0.5042680000000  0.5319170000000  0.5717810000000 1.0
C      1  0.4777320000000  0.4308700000000  0.5206730000000 1.0
C      1  0.4969390000000  0.5244110000000  0.4318700000000 1.0
C      1  0.4681440000000  0.4376160000000  0.4936830000000 1.0
END
