TITL C-883731-9874-229 15.4457353736919 125000 -6759.14390772831 0 0 47 (C1) n - 1
REM
REM in /home/nfs/bkarasulu/CARBON/AIRSS/Generating-Clusters/ReaxFF-fromJPCA2015/Units_Real/with-SteepDescent/Only-C1/SD-CG/Try1-3A/FIRE-CG
REM
REM
REM
REM
REM
REM ./C.cell (11c1c37f851c82e70ff6c80c92926a4b)
REM
REM compiler GCC version 9.2.1 20190827 (Red Hat 9.2.1-1)
REM options -cpp -mtune=generic -march=x86-64 -g -O0 -fpre-include=/usr/include/finclude/math-vector-fortran.h
REM seed -386246003 199471165 2121749733 -1546879955 1176434993 1607532209 85818588 1548692466 -788176466 -706749694 -1148999859 582673032 -1546156008 1328063662 525575557 1012621350 -77994195 -2005564207 -612162583 572685566 -1842656128 1104265733 -1493305285 -1656565804 -680469693 -333343730 -1681710891 -1870594450 2037671078 634757080 -1468663903 1274170003 751227178
REM
CELL 1.54180   50.00000   50.00000   50.00000   90.00000   90.00000   90.00000
LATT -1
SFAC C  
C      1  0.5220860000000  0.4947910000000  0.5792100000000 1.0
C      1  0.5346640000000  0.4709380000000  0.4557360000000 1.0
C      1  0.4978750000000  0.4421640000000  0.4347560000000 1.0
C      1  0.5240080000000  0.4950930000000  0.4423690000000 1.0
C      1  0.4947230000000  0.4943840000000  0.4378770000000 1.0
C      1  0.5419070000000  0.5062890000000  0.5386420000000 1.0
C      1  0.5027030000000  0.5051220000000  0.4995830000000 1.0
C      1  0.4639950000000  0.5285220000000  0.5402370000000 1.0
C      1  0.5365440000000  0.4838650000000  0.5574140000000 1.0
C      1  0.4985470000000  0.5605760000000  0.5245220000000 1.0
C      1  0.4927450000000  0.5449720000000  0.4459660000000 1.0
C      1  0.5502700000000  0.4750830000000  0.4799500000000 1.0
C      1  0.5203910000000  0.4553770000000  0.5228390000000 1.0
C      1  0.4825210000000  0.4834640000000  0.5010420000000 1.0
C      1  0.5567860000000  0.5026440000000  0.4878240000000 1.0
C      1  0.4660020000000  0.4992630000000  0.5414390000000 1.0
C      1  0.5052670000000  0.4394850000000  0.5027350000000 1.0
C      1  0.5007010000000  0.5159930000000  0.4732090000000 1.0
C      1  0.5407020000000  0.5405690000000  0.4969810000000 1.0
C      1  0.5288430000000  0.5489970000000  0.5207630000000 1.0
C      1  0.4520490000000  0.5430790000000  0.5166410000000 1.0
C      1  0.4509620000000  0.5186200000000  0.4671210000000 1.0
C      1  0.4789700000000  0.5168130000000  0.4511510000000 1.0
C      1  0.5313300000000  0.5321750000000  0.5446360000000 1.0
C      1  0.4575940000000  0.4847320000000  0.5170930000000 1.0
C      1  0.4313960000000  0.4964350000000  0.4740550000000 1.0
C      1  0.4868240000000  0.5440160000000  0.5483310000000 1.0
C      1  0.4316820000000  0.4859820000000  0.5021130000000 1.0
C      1  0.4944420000000  0.5434750000000  0.5012590000000 1.0
C      1  0.4970010000000  0.5068730000000  0.5767070000000 1.0
C      1  0.5029540000000  0.5449520000000  0.4739210000000 1.0
C      1  0.4828300000000  0.4679960000000  0.4320440000000 1.0
C      1  0.5406870000000  0.4694530000000  0.5075290000000 1.0
C      1  0.4488650000000  0.5319440000000  0.4907230000000 1.0
C      1  0.4736120000000  0.5603340000000  0.5072630000000 1.0
C      1  0.5514500000000  0.5275820000000  0.4740380000000 1.0
C      1  0.5214200000000  0.4445760000000  0.4535070000000 1.0
C      1  0.5388220000000  0.5206170000000  0.4465430000000 1.0
C      1  0.5193930000000  0.4287720000000  0.4786710000000 1.0
C      1  0.5076980000000  0.5317960000000  0.5634650000000 1.0
C      1  0.5178600000000  0.5363540000000  0.4367390000000 1.0
C      1  0.4576450000000  0.4384210000000  0.5101460000000 1.0
C      1  0.4884930000000  0.4869980000000  0.5557840000000 1.0
C      1  0.5344710000000  0.4991840000000  0.5103900000000 1.0
C      1  0.4807860000000  0.4549950000000  0.4972350000000 1.0
C      1  0.5118590000000  0.4701360000000  0.5471210000000 1.0
C      1  0.4476250000000  0.4260980000000  0.5326780000000 1.0
END
