TITL C-883739-1268-219 3.34276771305361 125000 -2260.17139597775 0 0 17 (C1) n - 1
REM
REM in /home/nfs/bkarasulu/CARBON/AIRSS/Generating-Clusters/ReaxFF-fromJPCA2015/Units_Real/with-SteepDescent/Only-C1/SD-CG/Try1-3A/FIRE-CG
REM
REM
REM
REM
REM
REM ./C.cell (11c1c37f851c82e70ff6c80c92926a4b)
REM
REM compiler GCC version 9.2.1 20190827 (Red Hat 9.2.1-1)
REM options -cpp -mtune=generic -march=x86-64 -g -O0 -fpre-include=/usr/include/finclude/math-vector-fortran.h
REM seed -1009993908 -135885284 476110258 1310125951 236855477 564131333 -299401701 1014576326 -1884454504 -893445929 1829719874 1362092794 419807602 -1000369622 903602550 1408875322 -950392009 1599834903 -1080035070 1057984587 1544452592 66370918 -339908915 -1436256 -759441139 940376179 321514415 -1090908185 1422039339 -1403094897 -1378164143 1864978017 -1793779432
REM
CELL 1.54180   50.00000   50.00000   50.00000   90.00000   90.00000   90.00000
LATT -1
SFAC C  
C      1  0.5048130000000  0.4815050000000  0.5179080000000 1.0
C      1  0.5174790000000  0.5410500000000  0.4732000000000 1.0
C      1  0.5386410000000  0.5561580000000  0.5203480000000 1.0
C      1  0.5330000000000  0.4917110000000  0.4599500000000 1.0
C      1  0.5057830000000  0.4594920000000  0.4600600000000 1.0
C      1  0.5293760000000  0.5492100000000  0.4994510000000 1.0
C      1  0.4462820000000  0.5107700000000  0.5546420000000 1.0
C      1  0.4446450000000  0.4927090000000  0.5310460000000 1.0
C      1  0.4942610000000  0.5466070000000  0.4630760000000 1.0
C      1  0.5296760000000  0.4698510000000  0.4415660000000 1.0
C      1  0.4554070000000  0.4741070000000  0.5109980000000 1.0
C      1  0.4925160000000  0.4583850000000  0.4784400000000 1.0
C      1  0.4999280000000  0.4922670000000  0.5467250000000 1.0
C      1  0.4833130000000  0.4653340000000  0.5046520000000 1.0
C      1  0.5308810000000  0.5112800000000  0.4807560000000 1.0
C      1  0.5178660000000  0.4964150000000  0.4993210000000 1.0
C      1  0.4761320000000  0.5031490000000  0.5578620000000 1.0
END
