TITL C-883736-9678-386 40.6314132098587 125000 -12212.1035608726 0 0 84 (C1) n - 1
REM
REM in /home/nfs/bkarasulu/CARBON/AIRSS/Generating-Clusters/ReaxFF-fromJPCA2015/Units_Real/with-SteepDescent/Only-C1/SD-CG/Try1-3A/FIRE-CG
REM
REM
REM
REM
REM
REM ./C.cell (11c1c37f851c82e70ff6c80c92926a4b)
REM
REM compiler GCC version 9.2.1 20190827 (Red Hat 9.2.1-1)
REM options -cpp -mtune=generic -march=x86-64 -g -O0 -fpre-include=/usr/include/finclude/math-vector-fortran.h
REM seed -1061301859 258675255 -404644247 -1855906477 2066095189 1699691890 1300229053 824657754 -1087696943 -1032206743 -1054517476 430609315 2136715691 568292504 -681879025 -1751140116 -2105823084 1620007288 -1772629269 1150027709 -1527971651 -1105383235 -322379191 -720484366 -1851548638 1157365061 1781540877 -2048137269 104032787 -158063557 -1645587223 -990418721 181064758
REM
CELL 1.54180   50.00000   50.00000   50.00000   90.00000   90.00000   90.00000
LATT -1
SFAC C  
C      1  0.4845360000000  0.4155600000000  0.4969830000000 1.0
C      1  0.4328860000000  0.4641070000000  0.4566020000000 1.0
C      1  0.4180670000000  0.4746250000000  0.4801880000000 1.0
C      1  0.5639590000000  0.5143150000000  0.5057970000000 1.0
C      1  0.4403380000000  0.4621340000000  0.4842300000000 1.0
C      1  0.5281150000000  0.5247370000000  0.5732670000000 1.0
C      1  0.4578830000000  0.4586930000000  0.4427350000000 1.0
C      1  0.4898170000000  0.5377150000000  0.5184290000000 1.0
C      1  0.4415360000000  0.4959530000000  0.5594230000000 1.0
C      1  0.5519570000000  0.4836560000000  0.4346690000000 1.0
C      1  0.4751590000000  0.4785570000000  0.4279610000000 1.0
C      1  0.4656070000000  0.5019780000000  0.5131520000000 1.0
C      1  0.5505850000000  0.5367940000000  0.5585350000000 1.0
C      1  0.5253510000000  0.5629730000000  0.4648750000000 1.0
C      1  0.4812580000000  0.4412510000000  0.5115940000000 1.0
C      1  0.4541240000000  0.4327320000000  0.5195130000000 1.0
C      1  0.4996060000000  0.5476370000000  0.4526360000000 1.0
C      1  0.5783630000000  0.5025000000000  0.5275850000000 1.0
C      1  0.5329050000000  0.5134300000000  0.5165800000000 1.0
C      1  0.4362190000000  0.4474430000000  0.5041140000000 1.0
C      1  0.5146020000000  0.4182950000000  0.4996570000000 1.0
C      1  0.4738240000000  0.4566720000000  0.5602480000000 1.0
C      1  0.4662620000000  0.5043760000000  0.5716540000000 1.0
C      1  0.5279490000000  0.4669570000000  0.4351170000000 1.0
C      1  0.5613100000000  0.5088160000000  0.4745430000000 1.0
C      1  0.5777300000000  0.5314120000000  0.4553060000000 1.0
C      1  0.4372280000000  0.5399970000000  0.5142430000000 1.0
C      1  0.5424550000000  0.5527080000000  0.4456450000000 1.0
C      1  0.4584130000000  0.4999610000000  0.4319260000000 1.0
C      1  0.5227320000000  0.4321410000000  0.5250570000000 1.0
C      1  0.5736700000000  0.5272010000000  0.5431390000000 1.0
C      1  0.4628060000000  0.5394810000000  0.5247490000000 1.0
C      1  0.5206060000000  0.5287900000000  0.4940780000000 1.0
C      1  0.4523730000000  0.4531840000000  0.5412490000000 1.0
C      1  0.5314690000000  0.5094920000000  0.4741320000000 1.0
C      1  0.5698970000000  0.5418730000000  0.5179470000000 1.0
C      1  0.5464360000000  0.5094470000000  0.4217600000000 1.0
C      1  0.4464040000000  0.4809940000000  0.5321860000000 1.0
C      1  0.4991790000000  0.4345630000000  0.5350050000000 1.0
C      1  0.4901830000000  0.4863960000000  0.4800640000000 1.0
C      1  0.5378880000000  0.4742860000000  0.5713740000000 1.0
C      1  0.5562430000000  0.4613610000000  0.4778710000000 1.0
C      1  0.5710160000000  0.4748460000000  0.5293940000000 1.0
C      1  0.6002690000000  0.5418300000000  0.4603240000000 1.0
C      1  0.5400160000000  0.5595070000000  0.5437650000000 1.0
C      1  0.5491850000000  0.4672660000000  0.5464720000000 1.0
C      1  0.4527690000000  0.5397310000000  0.4336320000000 1.0
C      1  0.4787780000000  0.5369690000000  0.4741120000000 1.0
C      1  0.4563970000000  0.5467830000000  0.5500850000000 1.0
C      1  0.5166620000000  0.5079980000000  0.4175240000000 1.0
C      1  0.4638320000000  0.5615730000000  0.4451170000000 1.0
C      1  0.5057880000000  0.4806030000000  0.4235590000000 1.0
C      1  0.4270340000000  0.5230550000000  0.4696450000000 1.0
C      1  0.4593550000000  0.5587480000000  0.4735670000000 1.0
C      1  0.4986680000000  0.4467650000000  0.5554450000000 1.0
C      1  0.5175300000000  0.4856490000000  0.4737950000000 1.0
C      1  0.5075550000000  0.5279160000000  0.4347150000000 1.0
C      1  0.5298520000000  0.5570930000000  0.4931150000000 1.0
C      1  0.4676520000000  0.5746980000000  0.5451500000000 1.0
C      1  0.5327430000000  0.4624620000000  0.5237490000000 1.0
C      1  0.4190520000000  0.5030800000000  0.4877790000000 1.0
C      1  0.4739610000000  0.4445950000000  0.4629760000000 1.0
C      1  0.4795640000000  0.4600230000000  0.4864600000000 1.0
C      1  0.5032930000000  0.5397600000000  0.5701290000000 1.0
C      1  0.4828450000000  0.4796730000000  0.5740000000000 1.0
C      1  0.5288580000000  0.4566100000000  0.4647370000000 1.0
C      1  0.4355920000000  0.5456460000000  0.4850250000000 1.0
C      1  0.4888430000000  0.4221150000000  0.4686740000000 1.0
C      1  0.5108170000000  0.4758550000000  0.5809820000000 1.0
C      1  0.5653980000000  0.4824540000000  0.4610100000000 1.0
C      1  0.5155790000000  0.4295910000000  0.4732820000000 1.0
C      1  0.4240790000000  0.4977370000000  0.5372320000000 1.0
C      1  0.5486760000000  0.5614650000000  0.5154920000000 1.0
C      1  0.5127350000000  0.5620120000000  0.5534110000000 1.0
C      1  0.4925630000000  0.5641220000000  0.5322070000000 1.0
C      1  0.5574670000000  0.4622360000000  0.5066720000000 1.0
C      1  0.4727450000000  0.5102680000000  0.4857800000000 1.0
C      1  0.5165700000000  0.4920030000000  0.5226170000000 1.0
C      1  0.4377110000000  0.5174460000000  0.4408620000000 1.0
C      1  0.4268220000000  0.5126590000000  0.5138300000000 1.0
C      1  0.4919290000000  0.5078610000000  0.5249440000000 1.0
C      1  0.5286630000000  0.4977240000000  0.5838620000000 1.0
C      1  0.4751010000000  0.5316550000000  0.5680000000000 1.0
C      1  0.5581030000000  0.5347260000000  0.4310530000000 1.0
END
