TITL C-884134-5972-328 60.7144412140104 125000 -19129.7607936507 0 0 129 (C1) n - 1
REM
REM in /home/nfs/bkarasulu/CARBON/AIRSS/Generating-Clusters/ReaxFF-fromJPCA2015/Units_Real/with-SteepDescent/Only-C1/SD-CG/Try1-3A/FIRE-CG
REM
REM
REM
REM
REM
REM ./C.cell (11c1c37f851c82e70ff6c80c92926a4b)
REM
REM compiler GCC version 9.2.1 20190827 (Red Hat 9.2.1-1)
REM options -cpp -mtune=generic -march=x86-64 -g -O0 -fpre-include=/usr/include/finclude/math-vector-fortran.h
REM seed -511881230 -1422048394 392804188 2032028512 -470365950 -881799227 1269876378 -268301753 -2108323857 -1764098951 -883645812 1815265796 1989431076 342027061 950002088 -1654203658 1578324105 -67196022 -1830185881 124045767 -2003721171 392001236 -237931723 1745821256 -273417899 1736722109 -866882488 1852063821 -121484734 -134199804 789507690 -185066960 -544168127
REM
CELL 1.54180   50.00000   50.00000   50.00000   90.00000   90.00000   90.00000
LATT -1
SFAC C  
C      1  0.5734520000000  0.4559550000000  0.4758470000000 1.0
C      1  0.5087840000000  0.5350170000000  0.4053450000000 1.0
C      1  0.4599120000000  0.5045830000000  0.4681800000000 1.0
C      1  0.5335370000000  0.4246350000000  0.5297520000000 1.0
C      1  0.4998430000000  0.5445210000000  0.4324160000000 1.0
C      1  0.4613650000000  0.4615570000000  0.4966230000000 1.0
C      1  0.4723690000000  0.4513960000000  0.5201790000000 1.0
C      1  0.5035930000000  0.4995030000000  0.4555280000000 1.0
C      1  0.5484610000000  0.4698190000000  0.4835280000000 1.0
C      1  0.4837290000000  0.4122780000000  0.4836670000000 1.0
C      1  0.4869270000000  0.4092680000000  0.5346820000000 1.0
C      1  0.4617850000000  0.4262000000000  0.5333950000000 1.0
C      1  0.4241770000000  0.5351490000000  0.4560090000000 1.0
C      1  0.4743820000000  0.4264510000000  0.4454900000000 1.0
C      1  0.5755520000000  0.5284550000000  0.4485070000000 1.0
C      1  0.5377110000000  0.4745520000000  0.5362370000000 1.0
C      1  0.4874050000000  0.4513060000000  0.4538880000000 1.0
C      1  0.5897720000000  0.5476070000000  0.4681490000000 1.0
C      1  0.4974600000000  0.4332080000000  0.5789650000000 1.0
C      1  0.5317480000000  0.4195620000000  0.5594020000000 1.0
C      1  0.5244490000000  0.5581260000000  0.4963400000000 1.0
C      1  0.4459680000000  0.5010460000000  0.5343980000000 1.0
C      1  0.5449740000000  0.5630940000000  0.4322510000000 1.0
C      1  0.4182450000000  0.5333990000000  0.5646040000000 1.0
C      1  0.4164380000000  0.5087310000000  0.4671480000000 1.0
C      1  0.5846610000000  0.4813100000000  0.4630740000000 1.0
C      1  0.4512970000000  0.5379230000000  0.4421870000000 1.0
C      1  0.4479840000000  0.5119740000000  0.5088580000000 1.0
C      1  0.3985900000000  0.5333810000000  0.5131440000000 1.0
C      1  0.4409780000000  0.5803430000000  0.4816700000000 1.0
C      1  0.4792360000000  0.5270440000000  0.5859490000000 1.0
C      1  0.4958930000000  0.5178710000000  0.4994040000000 1.0
C      1  0.5974820000000  0.5062600000000  0.5083770000000 1.0
C      1  0.5722970000000  0.5250200000000  0.5174510000000 1.0
C      1  0.4824800000000  0.5917960000000  0.5030510000000 1.0
C      1  0.4585900000000  0.4792060000000  0.4273510000000 1.0
C      1  0.4559950000000  0.4317630000000  0.4838970000000 1.0
C      1  0.4968380000000  0.4958340000000  0.5393110000000 1.0
C      1  0.4976290000000  0.4041440000000  0.5081350000000 1.0
C      1  0.4897060000000  0.5719140000000  0.4333130000000 1.0
C      1  0.6070310000000  0.5265590000000  0.4747390000000 1.0
C      1  0.5698810000000  0.5192240000000  0.5472590000000 1.0
C      1  0.5434200000000  0.5153450000000  0.5037320000000 1.0
C      1  0.4180210000000  0.4973030000000  0.5369080000000 1.0
C      1  0.4230580000000  0.4801960000000  0.4682020000000 1.0
C      1  0.5624390000000  0.4231400000000  0.5196250000000 1.0
C      1  0.5061220000000  0.5870350000000  0.4535290000000 1.0
C      1  0.4648220000000  0.5487730000000  0.5704280000000 1.0
C      1  0.5195150000000  0.4898180000000  0.4123560000000 1.0
C      1  0.4841790000000  0.5478110000000  0.5268810000000 1.0
C      1  0.5547530000000  0.5851310000000  0.4747020000000 1.0
C      1  0.4220410000000  0.5573750000000  0.4767850000000 1.0
C      1  0.4591090000000  0.4896040000000  0.4916760000000 1.0
C      1  0.4976120000000  0.4647260000000  0.5239410000000 1.0
C      1  0.4616010000000  0.5656880000000  0.4390160000000 1.0
C      1  0.4101990000000  0.5019660000000  0.5647310000000 1.0
C      1  0.4617090000000  0.5325770000000  0.4695140000000 1.0
C      1  0.5444300000000  0.4434430000000  0.5696760000000 1.0
C      1  0.4031600000000  0.5361020000000  0.5413220000000 1.0
C      1  0.4859080000000  0.5932280000000  0.4732650000000 1.0
C      1  0.4404250000000  0.5495780000000  0.5551980000000 1.0
C      1  0.5049150000000  0.5350680000000  0.5740370000000 1.0
C      1  0.5117940000000  0.5473430000000  0.5217030000000 1.0
C      1  0.5765820000000  0.4458370000000  0.5298740000000 1.0
C      1  0.5505760000000  0.4284000000000  0.4690960000000 1.0
C      1  0.6037210000000  0.4986760000000  0.4793480000000 1.0
C      1  0.5656830000000  0.4937040000000  0.5619070000000 1.0
C      1  0.5496800000000  0.5410480000000  0.4524080000000 1.0
C      1  0.5314570000000  0.4478450000000  0.4375190000000 1.0
C      1  0.4724340000000  0.4484730000000  0.5789890000000 1.0
C      1  0.4490350000000  0.4386800000000  0.4555510000000 1.0
C      1  0.4876450000000  0.5380470000000  0.4806810000000 1.0
C      1  0.5099780000000  0.4775500000000  0.5825510000000 1.0
C      1  0.5678900000000  0.4754670000000  0.4111540000000 1.0
C      1  0.5186120000000  0.4905490000000  0.5578000000000 1.0
C      1  0.5354900000000  0.5842040000000  0.4515990000000 1.0
C      1  0.4867320000000  0.4706710000000  0.4337550000000 1.0
C      1  0.4692080000000  0.4993470000000  0.5506120000000 1.0
C      1  0.4301170000000  0.4554450000000  0.5486800000000 1.0
C      1  0.5504490000000  0.4141800000000  0.4939950000000 1.0
C      1  0.5052030000000  0.5904010000000  0.5213780000000 1.0
C      1  0.5330460000000  0.5848930000000  0.4928490000000 1.0
C      1  0.4603490000000  0.5860550000000  0.4602310000000 1.0
C      1  0.5030650000000  0.4133860000000  0.5585040000000 1.0
C      1  0.4610770000000  0.5396360000000  0.5118470000000 1.0
C      1  0.5509220000000  0.4912540000000  0.4206690000000 1.0
C      1  0.5057640000000  0.4535130000000  0.4754840000000 1.0
C      1  0.5442520000000  0.4870390000000  0.5068970000000 1.0
C      1  0.5074930000000  0.5304050000000  0.4591630000000 1.0
C      1  0.4151800000000  0.5561280000000  0.5047620000000 1.0
C      1  0.4420130000000  0.5600160000000  0.5227160000000 1.0
C      1  0.4411880000000  0.4662280000000  0.4482850000000 1.0
C      1  0.4038520000000  0.4923580000000  0.5115680000000 1.0
C      1  0.5125950000000  0.4635060000000  0.4201050000000 1.0
C      1  0.5938620000000  0.4799160000000  0.5153880000000 1.0
C      1  0.4692190000000  0.5068250000000  0.4226240000000 1.0
C      1  0.4401480000000  0.4282790000000  0.5096710000000 1.0
C      1  0.5713480000000  0.4989280000000  0.4444870000000 1.0
C      1  0.4160370000000  0.5134580000000  0.4970010000000 1.0
C      1  0.5212750000000  0.4504550000000  0.5853900000000 1.0
C      1  0.5292530000000  0.5821950000000  0.5323560000000 1.0
C      1  0.5151680000000  0.5188590000000  0.5206470000000 1.0
C      1  0.4200320000000  0.4742790000000  0.5702350000000 1.0
C      1  0.4971230000000  0.5078360000000  0.4094900000000 1.0
C      1  0.4152650000000  0.4704260000000  0.4963400000000 1.0
C      1  0.5615690000000  0.4625290000000  0.5530200000000 1.0
C      1  0.5344820000000  0.5319270000000  0.5767360000000 1.0
C      1  0.4682700000000  0.5003460000000  0.5800060000000 1.0
C      1  0.5531740000000  0.5416300000000  0.5560750000000 1.0
C      1  0.4521930000000  0.4412360000000  0.5591900000000 1.0
C      1  0.5323660000000  0.5499930000000  0.4104010000000 1.0
C      1  0.5342990000000  0.5357460000000  0.4769800000000 1.0
C      1  0.5692330000000  0.5549610000000  0.5135600000000 1.0
C      1  0.5219450000000  0.4518280000000  0.5289260000000 1.0
C      1  0.5517490000000  0.5637840000000  0.5357210000000 1.0
C      1  0.4774460000000  0.5049280000000  0.4481900000000 1.0
C      1  0.5476360000000  0.5064810000000  0.5795130000000 1.0
C      1  0.5736060000000  0.5650320000000  0.4867620000000 1.0
C      1  0.4900730000000  0.5523090000000  0.5549820000000 1.0
C      1  0.5023950000000  0.4708750000000  0.4966290000000 1.0
C      1  0.5870890000000  0.4558710000000  0.5047180000000 1.0
C      1  0.5024400000000  0.4950600000000  0.4849650000000 1.0
C      1  0.4249650000000  0.4516160000000  0.5169750000000 1.0
C      1  0.5290970000000  0.4627910000000  0.4630860000000 1.0
C      1  0.4548080000000  0.5829310000000  0.5072470000000 1.0
C      1  0.5267860000000  0.4043200000000  0.5082590000000 1.0
C      1  0.4976980000000  0.4127640000000  0.4588690000000 1.0
C      1  0.4811120000000  0.4753300000000  0.5878100000000 1.0
C      1  0.5277170000000  0.4230800000000  0.4528510000000 1.0
END
