TITL C-884128-4793-119 28.3674095585649 125000 -14053.1320029076 0 0 95 (C1) n - 1
REM
REM in /home/nfs/bkarasulu/CARBON/AIRSS/Generating-Clusters/ReaxFF-fromJPCA2015/Units_Real/with-SteepDescent/Only-C1/SD-CG/Try1-3A/FIRE-CG
REM
REM
REM
REM
REM
REM ./C.cell (11c1c37f851c82e70ff6c80c92926a4b)
REM
REM compiler GCC version 9.2.1 20190827 (Red Hat 9.2.1-1)
REM options -cpp -mtune=generic -march=x86-64 -g -O0 -fpre-include=/usr/include/finclude/math-vector-fortran.h
REM seed 682004301 -1006569743 1458502066 -329962842 465027917 -1490152031 -920502223 -1513526835 -420447466 1676786628 1645849923 1263508435 545121642 -1674201760 1447946076 -1753021785 481627168 -1112783631 600624767 1539209554 -218768518 328439032 1102608537 358930003 -1577425150 1050931063 1420676096 2014941911 369770577 1136773922 -1497465226 1931308774 -1009825559
REM
CELL 1.54180   50.00000   50.00000   50.00000   90.00000   90.00000   90.00000
LATT -1
SFAC C  
C      1  0.5186090000000  0.4170740000000  0.4662140000000 1.0
C      1  0.5102970000000  0.4261140000000  0.5177450000000 1.0
C      1  0.5226710000000  0.5287530000000  0.5892190000000 1.0
C      1  0.4978010000000  0.5362100000000  0.5066520000000 1.0
C      1  0.4865480000000  0.5824120000000  0.4943090000000 1.0
C      1  0.5112300000000  0.4483440000000  0.5398230000000 1.0
C      1  0.5216490000000  0.5237540000000  0.5476600000000 1.0
C      1  0.4836600000000  0.4184960000000  0.5185700000000 1.0
C      1  0.5040370000000  0.5754520000000  0.4498150000000 1.0
C      1  0.4502190000000  0.5262920000000  0.4495230000000 1.0
C      1  0.5612680000000  0.5058040000000  0.5583440000000 1.0
C      1  0.5241840000000  0.4301680000000  0.4917280000000 1.0
C      1  0.4379490000000  0.4329210000000  0.4694080000000 1.0
C      1  0.5283150000000  0.4729610000000  0.5337840000000 1.0
C      1  0.5277850000000  0.5736920000000  0.5353110000000 1.0
C      1  0.4700360000000  0.4860860000000  0.4178060000000 1.0
C      1  0.5613860000000  0.5523300000000  0.5183020000000 1.0
C      1  0.4308240000000  0.5071210000000  0.5496460000000 1.0
C      1  0.4810670000000  0.5687440000000  0.5409820000000 1.0
C      1  0.4988440000000  0.5130530000000  0.5870520000000 1.0
C      1  0.5697980000000  0.5487810000000  0.4732030000000 1.0
C      1  0.4577170000000  0.5015250000000  0.5637700000000 1.0
C      1  0.4760770000000  0.4531070000000  0.4826470000000 1.0
C      1  0.4171430000000  0.5009570000000  0.5241870000000 1.0
C      1  0.5000450000000  0.4787820000000  0.4517950000000 1.0
C      1  0.5552280000000  0.4379220000000  0.5479150000000 1.0
C      1  0.5155430000000  0.5183470000000  0.4183120000000 1.0
C      1  0.4322760000000  0.4916700000000  0.4789890000000 1.0
C      1  0.5117640000000  0.5445240000000  0.4028770000000 1.0
C      1  0.5181780000000  0.5191410000000  0.4855780000000 1.0
C      1  0.4389120000000  0.4338500000000  0.5360490000000 1.0
C      1  0.5362760000000  0.5875680000000  0.4903170000000 1.0
C      1  0.5421350000000  0.4527360000000  0.4375890000000 1.0
C      1  0.5436020000000  0.4827480000000  0.5576900000000 1.0
C      1  0.5037650000000  0.5593000000000  0.5257940000000 1.0
C      1  0.4674000000000  0.5762600000000  0.5140260000000 1.0
C      1  0.5026800000000  0.4862850000000  0.4226720000000 1.0
C      1  0.4600990000000  0.4397640000000  0.5532340000000 1.0
C      1  0.4497430000000  0.5540690000000  0.5036320000000 1.0
C      1  0.5722920000000  0.4433070000000  0.5251980000000 1.0
C      1  0.5443260000000  0.5316010000000  0.5645410000000 1.0
C      1  0.5389440000000  0.4546820000000  0.4881710000000 1.0
C      1  0.5790090000000  0.5063650000000  0.5357380000000 1.0
C      1  0.4123260000000  0.5154480000000  0.4764050000000 1.0
C      1  0.5298110000000  0.4426100000000  0.5630360000000 1.0
C      1  0.5074690000000  0.5867280000000  0.4760580000000 1.0
C      1  0.4504300000000  0.4701410000000  0.4307960000000 1.0
C      1  0.4997960000000  0.4948670000000  0.4750180000000 1.0
C      1  0.5573830000000  0.5666370000000  0.4932750000000 1.0
C      1  0.4300220000000  0.5351510000000  0.5435680000000 1.0
C      1  0.4708060000000  0.5505220000000  0.5619690000000 1.0
C      1  0.5033130000000  0.5346050000000  0.4422010000000 1.0
C      1  0.5345820000000  0.5984100000000  0.5171150000000 1.0
C      1  0.4783140000000  0.4573190000000  0.5481560000000 1.0
C      1  0.4672170000000  0.5319880000000  0.4956860000000 1.0
C      1  0.5025290000000  0.5168590000000  0.5296150000000 1.0
C      1  0.5554370000000  0.4570120000000  0.4638500000000 1.0
C      1  0.5313220000000  0.4749200000000  0.4219660000000 1.0
C      1  0.4366840000000  0.4595330000000  0.5216020000000 1.0
C      1  0.4555450000000  0.5137390000000  0.4760100000000 1.0
C      1  0.4558220000000  0.4174450000000  0.5178550000000 1.0
C      1  0.5495500000000  0.5568390000000  0.5436750000000 1.0
C      1  0.5252710000000  0.4690270000000  0.5767410000000 1.0
C      1  0.4103600000000  0.5231910000000  0.5052680000000 1.0
C      1  0.4203930000000  0.5331680000000  0.4542710000000 1.0
C      1  0.4990100000000  0.5600150000000  0.4269410000000 1.0
C      1  0.4623950000000  0.4697160000000  0.5263630000000 1.0
C      1  0.4882380000000  0.4522660000000  0.4569360000000 1.0
C      1  0.4578290000000  0.5374480000000  0.5419640000000 1.0
C      1  0.4720210000000  0.5126990000000  0.5350770000000 1.0
C      1  0.4596390000000  0.5094440000000  0.4288510000000 1.0
C      1  0.5411450000000  0.5069130000000  0.5005800000000 1.0
C      1  0.4825610000000  0.4803810000000  0.4924410000000 1.0
C      1  0.4997820000000  0.4825820000000  0.5812350000000 1.0
C      1  0.5001450000000  0.4277920000000  0.4482220000000 1.0
C      1  0.5834720000000  0.4825880000000  0.5231090000000 1.0
C      1  0.4732820000000  0.5246940000000  0.5754510000000 1.0
C      1  0.5762900000000  0.4729530000000  0.4760330000000 1.0
C      1  0.5364070000000  0.4789370000000  0.5065240000000 1.0
C      1  0.4326560000000  0.4711310000000  0.4519220000000 1.0
C      1  0.5615060000000  0.5118510000000  0.4429790000000 1.0
C      1  0.5664040000000  0.5219780000000  0.5101900000000 1.0
C      1  0.4231790000000  0.4795190000000  0.5052800000000 1.0
C      1  0.5807880000000  0.5237050000000  0.4830510000000 1.0
C      1  0.5422750000000  0.5014110000000  0.4238760000000 1.0
C      1  0.4276720000000  0.4435630000000  0.4512160000000 1.0
C      1  0.5247560000000  0.5367610000000  0.4617190000000 1.0
C      1  0.4747580000000  0.4746810000000  0.5696180000000 1.0
C      1  0.4569250000000  0.4309010000000  0.4891700000000 1.0
C      1  0.4666040000000  0.4944130000000  0.5124820000000 1.0
C      1  0.5267800000000  0.4280700000000  0.4405510000000 1.0
C      1  0.5834920000000  0.4635880000000  0.5044690000000 1.0
C      1  0.5522900000000  0.5385770000000  0.4519690000000 1.0
C      1  0.4245290000000  0.5455590000000  0.5161630000000 1.0
C      1  0.5774630000000  0.5006310000000  0.4656690000000 1.0
END
