TITL C-883733-4178-259 7.89386571878359 125000 -12827.2808290046 0 0 87 (C1) n - 1
REM
REM in /home/nfs/bkarasulu/CARBON/AIRSS/Generating-Clusters/ReaxFF-fromJPCA2015/Units_Real/with-SteepDescent/Only-C1/SD-CG/Try1-3A/FIRE-CG
REM
REM
REM
REM
REM
REM ./C.cell (11c1c37f851c82e70ff6c80c92926a4b)
REM
REM compiler GCC version 9.2.1 20190827 (Red Hat 9.2.1-1)
REM options -cpp -mtune=generic -march=x86-64 -g -O0 -fpre-include=/usr/include/finclude/math-vector-fortran.h
REM seed 700468483 -1959400361 1143419943 -2081110970 -244800268 1597946050 -906252105 2050688756 751461504 -1090699770 -519932716 -934645158 -1423237493 -1203166617 -50656281 1029800308 -178743549 914433646 -961609950 -726753904 1177629997 361950304 -621225651 42890486 -1947670198 518429858 1492053384 -99842117 1143889775 -1206435235 854541965 -1955539683 2075707525
REM
CELL 1.54180   50.00000   50.00000   50.00000   90.00000   90.00000   90.00000
LATT -1
SFAC C  
C      1  0.5361880000000  0.5253540000000  0.5707280000000 1.0
C      1  0.4356930000000  0.5184040000000  0.4477790000000 1.0
C      1  0.5697470000000  0.5483130000000  0.5177590000000 1.0
C      1  0.4955030000000  0.5451040000000  0.5830880000000 1.0
C      1  0.4796010000000  0.5509620000000  0.4346230000000 1.0
C      1  0.5814210000000  0.5200410000000  0.5133310000000 1.0
C      1  0.5107920000000  0.4165220000000  0.5142280000000 1.0
C      1  0.4641420000000  0.4925360000000  0.4733780000000 1.0
C      1  0.4654110000000  0.5425950000000  0.4938020000000 1.0
C      1  0.5357620000000  0.5522540000000  0.5565720000000 1.0
C      1  0.4783680000000  0.4578870000000  0.5095880000000 1.0
C      1  0.4502040000000  0.5354090000000  0.4310870000000 1.0
C      1  0.4889580000000  0.5165540000000  0.4061330000000 1.0
C      1  0.5022130000000  0.5220100000000  0.5121990000000 1.0
C      1  0.5487410000000  0.4624570000000  0.5617370000000 1.0
C      1  0.4540820000000  0.4449120000000  0.4712220000000 1.0
C      1  0.5503400000000  0.5037540000000  0.5614810000000 1.0
C      1  0.4812060000000  0.4710030000000  0.4303410000000 1.0
C      1  0.4665890000000  0.5398420000000  0.5770380000000 1.0
C      1  0.4820190000000  0.4925650000000  0.4506120000000 1.0
C      1  0.5827490000000  0.5072680000000  0.4868320000000 1.0
C      1  0.4742310000000  0.4771110000000  0.5745930000000 1.0
C      1  0.5358170000000  0.5006710000000  0.4880810000000 1.0
C      1  0.5095400000000  0.5199740000000  0.5838500000000 1.0
C      1  0.5579740000000  0.5051240000000  0.4683380000000 1.0
C      1  0.5437780000000  0.5578550000000  0.5291470000000 1.0
C      1  0.4993040000000  0.5826610000000  0.5190210000000 1.0
C      1  0.4770500000000  0.4260830000000  0.4717280000000 1.0
C      1  0.4264280000000  0.4764330000000  0.4767700000000 1.0
C      1  0.5197780000000  0.4544820000000  0.4281680000000 1.0
C      1  0.5487320000000  0.5558970000000  0.4679140000000 1.0
C      1  0.4551660000000  0.4937710000000  0.5551790000000 1.0
C      1  0.5199950000000  0.4634970000000  0.5637300000000 1.0
C      1  0.4961090000000  0.4988450000000  0.5247660000000 1.0
C      1  0.4483770000000  0.5263780000000  0.5590030000000 1.0
C      1  0.5271990000000  0.4756240000000  0.4986140000000 1.0
C      1  0.5121450000000  0.5645090000000  0.5672890000000 1.0
C      1  0.4119040000000  0.5119030000000  0.4965420000000 1.0
C      1  0.4921470000000  0.4865510000000  0.4081940000000 1.0
C      1  0.4965570000000  0.5795380000000  0.5478740000000 1.0
C      1  0.4924000000000  0.4554470000000  0.5674650000000 1.0
C      1  0.4883740000000  0.4293870000000  0.5532400000000 1.0
C      1  0.4923040000000  0.4453730000000  0.4385660000000 1.0
C      1  0.5422000000000  0.4601700000000  0.4445550000000 1.0
C      1  0.4521680000000  0.5682390000000  0.5295370000000 1.0
C      1  0.4481430000000  0.4620010000000  0.5162290000000 1.0
C      1  0.5150640000000  0.5222790000000  0.4853960000000 1.0
C      1  0.4700980000000  0.5190090000000  0.4791430000000 1.0
C      1  0.4925970000000  0.4992250000000  0.5722470000000 1.0
C      1  0.5705250000000  0.4609540000000  0.4837420000000 1.0
C      1  0.5044320000000  0.5079410000000  0.4575310000000 1.0
C      1  0.5654270000000  0.4852620000000  0.5503580000000 1.0
C      1  0.4798680000000  0.5049800000000  0.5462180000000 1.0
C      1  0.4832280000000  0.4237900000000  0.5059180000000 1.0
C      1  0.5148230000000  0.4242140000000  0.5414910000000 1.0
C      1  0.5452450000000  0.4516060000000  0.4955910000000 1.0
C      1  0.4819180000000  0.5409900000000  0.5191140000000 1.0
C      1  0.4161690000000  0.4997220000000  0.5222410000000 1.0
C      1  0.5334750000000  0.4448450000000  0.5466130000000 1.0
C      1  0.4754030000000  0.5636750000000  0.4587270000000 1.0
C      1  0.5823270000000  0.4935230000000  0.5258480000000 1.0
C      1  0.5612100000000  0.4741020000000  0.4589430000000 1.0
C      1  0.5027190000000  0.5381680000000  0.4216880000000 1.0
C      1  0.5241300000000  0.5532770000000  0.4841450000000 1.0
C      1  0.4702570000000  0.4663280000000  0.4823570000000 1.0
C      1  0.5198850000000  0.4812370000000  0.4162370000000 1.0
C      1  0.4379250000000  0.4820570000000  0.5327770000000 1.0
C      1  0.4764010000000  0.5585960000000  0.5423230000000 1.0
C      1  0.4333280000000  0.4531840000000  0.4915630000000 1.0
C      1  0.5640530000000  0.5582990000000  0.4921020000000 1.0
C      1  0.4634980000000  0.5155630000000  0.4171680000000 1.0
C      1  0.4983230000000  0.4359210000000  0.4631370000000 1.0
C      1  0.4650390000000  0.5719530000000  0.4826290000000 1.0
C      1  0.4711410000000  0.5815340000000  0.5097270000000 1.0
C      1  0.4382580000000  0.5425400000000  0.5357500000000 1.0
C      1  0.5244110000000  0.5024620000000  0.4374030000000 1.0
C      1  0.5233350000000  0.5681180000000  0.5091740000000 1.0
C      1  0.5025320000000  0.4745950000000  0.5138010000000 1.0
C      1  0.5168370000000  0.4161010000000  0.4689680000000 1.0
C      1  0.5865800000000  0.4808030000000  0.4992380000000 1.0
C      1  0.5302380000000  0.4136650000000  0.4939370000000 1.0
C      1  0.5504060000000  0.5319080000000  0.4505790000000 1.0
C      1  0.5305530000000  0.5307160000000  0.4297750000000 1.0
C      1  0.4178260000000  0.5293410000000  0.5195830000000 1.0
C      1  0.4688780000000  0.4204470000000  0.5324110000000 1.0
C      1  0.4213050000000  0.5027220000000  0.4678920000000 1.0
C      1  0.5427820000000  0.4310810000000  0.4745640000000 1.0
END
