TITL C-884135-4325-123 56.2424375933214 125000 -17791.6529024074 0 0 120 (C1) n - 1
REM
REM in /home/nfs/bkarasulu/CARBON/AIRSS/Generating-Clusters/ReaxFF-fromJPCA2015/Units_Real/with-SteepDescent/Only-C1/SD-CG/Try1-3A/FIRE-CG
REM
REM
REM
REM
REM
REM ./C.cell (11c1c37f851c82e70ff6c80c92926a4b)
REM
REM compiler GCC version 9.2.1 20190827 (Red Hat 9.2.1-1)
REM options -cpp -mtune=generic -march=x86-64 -g -O0 -fpre-include=/usr/include/finclude/math-vector-fortran.h
REM seed -1925006075 745913264 -90638114 371187418 -1838192528 546342236 1877732454 -1102442545 1080585298 1772769806 -247941921 -1629052897 -1512879 -6148056 1032696905 -1950815465 1607225719 -1696497518 -957720297 1752349344 -805199798 298290539 141019838 1177693021 -1627664251 -909863316 218363767 -280498820 -203271217 1987112496 233114419 -827886444 -2058808647
REM
CELL 1.54180   50.00000   50.00000   50.00000   90.00000   90.00000   90.00000
LATT -1
SFAC C  
C      1  0.4221910000000  0.4809340000000  0.4479840000000 1.0
C      1  0.4701840000000  0.5775340000000  0.4883080000000 1.0
C      1  0.4858590000000  0.4224780000000  0.4626100000000 1.0
C      1  0.4685560000000  0.5099300000000  0.4825420000000 1.0
C      1  0.5556410000000  0.5757260000000  0.4744220000000 1.0
C      1  0.5235620000000  0.4511300000000  0.5840650000000 1.0
C      1  0.5493970000000  0.5112560000000  0.5554980000000 1.0
C      1  0.5742360000000  0.4748800000000  0.5460270000000 1.0
C      1  0.5607830000000  0.4274450000000  0.5325180000000 1.0
C      1  0.4355800000000  0.4346120000000  0.4974280000000 1.0
C      1  0.4727630000000  0.5876990000000  0.5140730000000 1.0
C      1  0.4128420000000  0.4911290000000  0.4963010000000 1.0
C      1  0.5587030000000  0.4313110000000  0.5032480000000 1.0
C      1  0.4598460000000  0.4739350000000  0.5134830000000 1.0
C      1  0.4848290000000  0.4528160000000  0.4686740000000 1.0
C      1  0.5574560000000  0.5229290000000  0.4246890000000 1.0
C      1  0.5557000000000  0.5743830000000  0.5157840000000 1.0
C      1  0.5432480000000  0.4736240000000  0.5820320000000 1.0
C      1  0.4979410000000  0.4239010000000  0.4362680000000 1.0
C      1  0.5428270000000  0.4389980000000  0.4312070000000 1.0
C      1  0.5137940000000  0.4324900000000  0.5624620000000 1.0
C      1  0.4497880000000  0.5217510000000  0.4421960000000 1.0
C      1  0.5032020000000  0.4899810000000  0.5600350000000 1.0
C      1  0.5067400000000  0.5868120000000  0.4614730000000 1.0
C      1  0.5462740000000  0.5035400000000  0.4431850000000 1.0
C      1  0.5241930000000  0.5360830000000  0.4838910000000 1.0
C      1  0.5037820000000  0.5624150000000  0.4447640000000 1.0
C      1  0.5130500000000  0.4607870000000  0.4616060000000 1.0
C      1  0.5391370000000  0.5778300000000  0.5383920000000 1.0
C      1  0.5984650000000  0.4784520000000  0.4895010000000 1.0
C      1  0.5748820000000  0.5393220000000  0.4432320000000 1.0
C      1  0.4724580000000  0.4536320000000  0.4963920000000 1.0
C      1  0.5421350000000  0.4074850000000  0.4964290000000 1.0
C      1  0.4413490000000  0.4601590000000  0.4485030000000 1.0
C      1  0.5261220000000  0.5472890000000  0.4569520000000 1.0
C      1  0.5722950000000  0.5026820000000  0.5358530000000 1.0
C      1  0.5315310000000  0.5103330000000  0.4195090000000 1.0
C      1  0.5644460000000  0.4812300000000  0.4524630000000 1.0
C      1  0.5006430000000  0.5394580000000  0.5003870000000 1.0
C      1  0.5381060000000  0.4532650000000  0.5014700000000 1.0
C      1  0.5225000000000  0.5024040000000  0.5159840000000 1.0
C      1  0.4521500000000  0.5633580000000  0.4433450000000 1.0
C      1  0.5164700000000  0.5104070000000  0.5781850000000 1.0
C      1  0.4230350000000  0.5503750000000  0.5250920000000 1.0
C      1  0.5165250000000  0.5971220000000  0.4871920000000 1.0
C      1  0.4402450000000  0.4579960000000  0.5609910000000 1.0
C      1  0.4155200000000  0.5275980000000  0.5384210000000 1.0
C      1  0.4863220000000  0.5078870000000  0.5443990000000 1.0
C      1  0.5468640000000  0.4681190000000  0.5533620000000 1.0
C      1  0.4668700000000  0.5309200000000  0.4652440000000 1.0
C      1  0.5443100000000  0.5229890000000  0.5017150000000 1.0
C      1  0.5218220000000  0.4745060000000  0.5365640000000 1.0
C      1  0.5035570000000  0.4695020000000  0.4139720000000 1.0
C      1  0.4234480000000  0.5669080000000  0.4738470000000 1.0
C      1  0.4493110000000  0.5801910000000  0.4672330000000 1.0
C      1  0.5538320000000  0.5596280000000  0.4518630000000 1.0
C      1  0.5446500000000  0.5040230000000  0.5809260000000 1.0
C      1  0.5663900000000  0.5017740000000  0.5003990000000 1.0
C      1  0.5824870000000  0.4492370000000  0.5332610000000 1.0
C      1  0.4705370000000  0.4655770000000  0.4424190000000 1.0
C      1  0.5020700000000  0.4243180000000  0.5141340000000 1.0
C      1  0.4861350000000  0.4480050000000  0.4220300000000 1.0
C      1  0.5235960000000  0.4623780000000  0.4339340000000 1.0
C      1  0.5130610000000  0.5893570000000  0.5357390000000 1.0
C      1  0.4556470000000  0.5209250000000  0.4169270000000 1.0
C      1  0.5387170000000  0.5586020000000  0.5589900000000 1.0
C      1  0.4931820000000  0.5006810000000  0.4714660000000 1.0
C      1  0.5010690000000  0.4125170000000  0.4853260000000 1.0
C      1  0.4871430000000  0.4923120000000  0.4440340000000 1.0
C      1  0.4396770000000  0.4913910000000  0.5027330000000 1.0
C      1  0.4845780000000  0.4342320000000  0.5558930000000 1.0
C      1  0.5959910000000  0.5073270000000  0.4978110000000 1.0
C      1  0.5148410000000  0.4518120000000  0.5185560000000 1.0
C      1  0.5668340000000  0.4547690000000  0.4384400000000 1.0
C      1  0.4559880000000  0.5141470000000  0.5084920000000 1.0
C      1  0.4725950000000  0.4969680000000  0.5238720000000 1.0
C      1  0.4626190000000  0.4291850000000  0.5061430000000 1.0
C      1  0.4990750000000  0.5963870000000  0.5110060000000 1.0
C      1  0.5462460000000  0.5919910000000  0.4939760000000 1.0
C      1  0.5851880000000  0.5350040000000  0.4688590000000 1.0
C      1  0.5357460000000  0.4194660000000  0.5455620000000 1.0
C      1  0.4696540000000  0.5015470000000  0.5810590000000 1.0
C      1  0.4488910000000  0.5325940000000  0.5622070000000 1.0
C      1  0.5699310000000  0.4794980000000  0.4809830000000 1.0
C      1  0.5027960000000  0.5226700000000  0.5246460000000 1.0
C      1  0.4659640000000  0.4256400000000  0.5346800000000 1.0
C      1  0.4709960000000  0.5295570000000  0.5822850000000 1.0
C      1  0.5579040000000  0.5363930000000  0.5596630000000 1.0
C      1  0.4823840000000  0.4767550000000  0.5794170000000 1.0
C      1  0.4273290000000  0.5110370000000  0.5567030000000 1.0
C      1  0.4099220000000  0.5217230000000  0.4846470000000 1.0
C      1  0.5252690000000  0.4069340000000  0.5214350000000 1.0
C      1  0.4289840000000  0.4495670000000  0.4730810000000 1.0
C      1  0.5654410000000  0.5463050000000  0.5134870000000 1.0
C      1  0.4678650000000  0.4532300000000  0.5701730000000 1.0
C      1  0.5263940000000  0.4072990000000  0.4717480000000 1.0
C      1  0.4476390000000  0.5540280000000  0.5422960000000 1.0
C      1  0.4252170000000  0.4813330000000  0.5498910000000 1.0
C      1  0.5915780000000  0.4571180000000  0.5072010000000 1.0
C      1  0.4392320000000  0.4360140000000  0.5425650000000 1.0
C      1  0.5015310000000  0.5029520000000  0.4201000000000 1.0
C      1  0.4243200000000  0.5527570000000  0.4484950000000 1.0
C      1  0.4126260000000  0.5266120000000  0.4565690000000 1.0
C      1  0.4823240000000  0.5287390000000  0.4145360000000 1.0
C      1  0.5291190000000  0.4697630000000  0.4809480000000 1.0
C      1  0.4212820000000  0.4450640000000  0.5213780000000 1.0
C      1  0.5112740000000  0.5578750000000  0.5682600000000 1.0
C      1  0.4109320000000  0.4727150000000  0.4730290000000 1.0
C      1  0.5769160000000  0.5330030000000  0.5364690000000 1.0
C      1  0.4943720000000  0.5755930000000  0.5523230000000 1.0
C      1  0.4248520000000  0.5070880000000  0.4390550000000 1.0
C      1  0.5258240000000  0.4181830000000  0.4437370000000 1.0
C      1  0.4778180000000  0.5498150000000  0.4845480000000 1.0
C      1  0.4784390000000  0.5524590000000  0.4315350000000 1.0
C      1  0.4168990000000  0.5470040000000  0.4955320000000 1.0
C      1  0.4690400000000  0.5731980000000  0.5381110000000 1.0
C      1  0.4130550000000  0.4727900000000  0.5250990000000 1.0
C      1  0.5136270000000  0.4906300000000  0.4897820000000 1.0
C      1  0.5902220000000  0.5360280000000  0.4968380000000 1.0
C      1  0.5007570000000  0.5345500000000  0.5813020000000 1.0
END
