TITL C-884127-5181-44 -76316.2605343766 125000 -10538.8317388615 0 0 72 (C1) n - 1
REM
REM in /home/nfs/bkarasulu/CARBON/AIRSS/Generating-Clusters/ReaxFF-fromJPCA2015/Units_Real/with-SteepDescent/Only-C1/SD-CG/Try1-3A/FIRE-CG
REM
REM
REM
REM
REM
REM ./C.cell (11c1c37f851c82e70ff6c80c92926a4b)
REM
REM compiler GCC version 9.2.1 20190827 (Red Hat 9.2.1-1)
REM options -cpp -mtune=generic -march=x86-64 -g -O0 -fpre-include=/usr/include/finclude/math-vector-fortran.h
REM seed -1762693435 119192254 -2068656281 -1291324895 -1335984065 2065035937 -1744994600 -846397606 -20764758 -1904001381 -1752677080 -942611651 210912923 -1639623228 1478006438 -396045945 -1785481025 -978729761 675137263 1217809988 -1989609277 -1838422607 -1587227377 1554027493 1309721072 -405640872 1125146766 1296348561 122751430 -167967968 -1633381852 1487383419 -1337738193
REM
CELL 1.54180   50.00000   50.00000   50.00000   90.00000   90.00000   90.00000
LATT -1
SFAC C  
C      1  0.5437560000000  0.4640560000000  0.4510700000000 1.0
C      1  0.4717700000000  0.5052750000000  0.5076480000000 1.0
C      1  0.4705840000000  0.4881480000000  0.5527660000000 1.0
C      1  0.4237730000000  0.5314310000000  0.4723790000000 1.0
C      1  0.5412600000000  0.4706250000000  0.5342150000000 1.0
C      1  0.4866600000000  0.4628130000000  0.5589170000000 1.0
C      1  0.5579080000000  0.5710020000000  0.4902610000000 1.0
C      1  0.4792210000000  0.4777430000000  0.5006960000000 1.0
C      1  0.5441280000000  0.4196750000000  0.5112460000000 1.0
C      1  0.4382870000000  0.4685900000000  0.5191460000000 1.0
C      1  0.5065050000000  0.5275420000000  0.4233360000000 1.0
C      1  0.5215360000000  0.5380830000000  0.4474340000000 1.0
C      1  0.4838390000000  0.5264760000000  0.5705980000000 1.0
C      1  0.5020700000000  0.5618060000000  0.4877420000000 1.0
C      1  0.4716730000000  0.4618380000000  0.4366870000000 1.0
C      1  0.5419140000000  0.5023870000000  0.5726450000000 1.0
C      1  0.5432160000000  0.5303520000000  0.5617000000000 1.0
C      1  0.5028170000000  0.4345580000000  0.4550560000000 1.0
C      1  0.5138760000000  0.4463810000000  0.4995910000000 1.0
C      1  0.5076650000000  0.4790830000000  0.5719010000000 1.0
C      1  0.4540820000000  0.4820980000000  0.4481210000000 1.0
C      1  0.5315160000000  0.5568220000000  0.5644960000000 1.0
C      1  0.5219240000000  0.4041970000000  0.5271500000000 1.0
C      1  0.4603400000000  0.5453890000000  0.5416650000000 1.0
C      1  0.4733410000000  0.4372750000000  0.4523020000000 1.0
C      1  0.4863710000000  0.5002510000000  0.5779380000000 1.0
C      1  0.5451690000000  0.4915090000000  0.5142990000000 1.0
C      1  0.5444680000000  0.4906480000000  0.4653410000000 1.0
C      1  0.4536450000000  0.5629950000000  0.4938440000000 1.0
C      1  0.4680550000000  0.5074570000000  0.4431540000000 1.0
C      1  0.5460790000000  0.5672160000000  0.5100800000000 1.0
C      1  0.4865880000000  0.5031000000000  0.5329830000000 1.0
C      1  0.4791740000000  0.5779180000000  0.4982000000000 1.0
C      1  0.4809680000000  0.5514310000000  0.5592520000000 1.0
C      1  0.5161390000000  0.4246840000000  0.4792810000000 1.0
C      1  0.5672310000000  0.5105600000000  0.5178210000000 1.0
C      1  0.5290500000000  0.4909560000000  0.4897860000000 1.0
C      1  0.4241810000000  0.5085850000000  0.4955760000000 1.0
C      1  0.5733790000000  0.5001280000000  0.5687010000000 1.0
C      1  0.5504810000000  0.5384130000000  0.4529410000000 1.0
C      1  0.5049240000000  0.4736680000000  0.4915140000000 1.0
C      1  0.4421080000000  0.5188450000000  0.5146490000000 1.0
C      1  0.4968390000000  0.4724000000000  0.4276950000000 1.0
C      1  0.5620650000000  0.5144740000000  0.4651340000000 1.0
C      1  0.5069080000000  0.5680020000000  0.5465410000000 1.0
C      1  0.4712260000000  0.5363090000000  0.4538140000000 1.0
C      1  0.5114860000000  0.5406440000000  0.5048630000000 1.0
C      1  0.5167550000000  0.4556820000000  0.4411270000000 1.0
C      1  0.5343640000000  0.4459110000000  0.5200320000000 1.0
C      1  0.5000130000000  0.5427610000000  0.4660900000000 1.0
C      1  0.5635380000000  0.5647000000000  0.4624290000000 1.0
C      1  0.5009700000000  0.4221260000000  0.5352830000000 1.0
C      1  0.4149860000000  0.5348880000000  0.4487890000000 1.0
C      1  0.4664650000000  0.4536090000000  0.5125130000000 1.0
C      1  0.4622570000000  0.4379010000000  0.4905920000000 1.0
C      1  0.4479750000000  0.5501390000000  0.4688840000000 1.0
C      1  0.5325900000000  0.4799560000000  0.5598450000000 1.0
C      1  0.4912220000000  0.5015020000000  0.4271980000000 1.0
C      1  0.4937930000000  0.5824960000000  0.5230330000000 1.0
C      1  0.4391430000000  0.4810190000000  0.5438360000000 1.0
C      1  0.5270270000000  0.5542260000000  0.5242470000000 1.0
C      1  0.4820750000000  0.5431870000000  0.4232100000000 1.0
C      1  0.5701290000000  0.5200920000000  0.5474900000000 1.0
C      1  0.4923090000000  0.5240880000000  0.5163200000000 1.0
C      1  0.4443040000000  0.5477450000000  0.5187960000000 1.0
C      1  0.5572750000000  0.4411330000000  0.4641100000000 1.0
C      1  0.4832540000000  0.4425040000000  0.5389830000000 1.0
C      1  0.5452340000000  0.4199900000000  0.4813700000000 1.0
C      1  0.4512460000000  0.4416720000000  0.4705180000000 1.0
C      1  0.5760820000000  0.5196120000000  0.4914960000000 1.0
C      1  0.4279250000000  0.4802250000000  0.4929110000000 1.0
C      1  0.4388750000000  0.4689980000000  0.4687260000000 1.0
END
