TITL C-884133-6611-39 1481710.61599518 125000 -8013.89259747509 0 0 55 (C1) n - 1
REM
REM in /home/nfs/bkarasulu/CARBON/AIRSS/Generating-Clusters/ReaxFF-fromJPCA2015/Units_Real/with-SteepDescent/Only-C1/SD-CG/Try1-3A/FIRE-CG
REM
REM
REM
REM
REM
REM ./C.cell (11c1c37f851c82e70ff6c80c92926a4b)
REM
REM compiler GCC version 9.2.1 20190827 (Red Hat 9.2.1-1)
REM options -cpp -mtune=generic -march=x86-64 -g -O0 -fpre-include=/usr/include/finclude/math-vector-fortran.h
REM seed -1852397187 -1549933136 1973693918 -387044981 -1279428755 -1295207256 434978362 1435635704 1057684038 1013864938 445487019 -2060005651 -1075690811 1444769191 -522954555 1312282074 -1156063133 -870227933 -166646540 2126349615 -1554195072 -1344032656 1661292182 1811366981 -1784234109 -578941312 -435858631 -1647139373 -88478205 -745879029 1088471010 1469288955 869509030
REM
CELL 1.54180   50.00000   50.00000   50.00000   90.00000   90.00000   90.00000
LATT -1
SFAC C  
C      1  0.5099760000000  0.4522750000000  0.5541530000000 1.0
C      1  0.5651530000000  0.4903350000000  0.5395720000000 1.0
C      1  0.5331020000000  0.5597740000000  0.4635420000000 1.0
C      1  0.5493320000000  0.5364060000000  0.4562610000000 1.0
C      1  0.4857320000000  0.5343100000000  0.5524260000000 1.0
C      1  0.4377120000000  0.5074820000000  0.4641190000000 1.0
C      1  0.5056690000000  0.5499090000000  0.5503540000000 1.0
C      1  0.5306980000000  0.5661740000000  0.4923430000000 1.0
C      1  0.4333960000000  0.4883120000000  0.4872760000000 1.0
C      1  0.5607390000000  0.5104660000000  0.4645410000000 1.0
C      1  0.4904460000000  0.5366840000000  0.5043970000000 1.0
C      1  0.5056390000000  0.5088220000000  0.4665680000000 1.0
C      1  0.4657760000000  0.4419530000000  0.5300920000000 1.0
C      1  0.4851160000000  0.5025910000000  0.4868370000000 1.0
C      1  0.5545530000000  0.4685780000000  0.4846540000000 1.0
C      1  0.5014850000000  0.5596330000000  0.4913960000000 1.0
C      1  0.5581580000000  0.4501910000000  0.5072910000000 1.0
C      1  0.4469970000000  0.5331860000000  0.4741660000000 1.0
C      1  0.5564110000000  0.5326930000000  0.5154680000000 1.0
C      1  0.4939520000000  0.4456900000000  0.4902440000000 1.0
C      1  0.4676250000000  0.5243340000000  0.4942900000000 1.0
C      1  0.5375190000000  0.4291260000000  0.5158820000000 1.0
C      1  0.5678480000000  0.5078050000000  0.5144320000000 1.0
C      1  0.5019220000000  0.4957550000000  0.4406640000000 1.0
C      1  0.4560320000000  0.4746770000000  0.4448710000000 1.0
C      1  0.5576550000000  0.4618510000000  0.5340600000000 1.0
C      1  0.4270810000000  0.5363920000000  0.5316420000000 1.0
C      1  0.4568600000000  0.4520240000000  0.4605300000000 1.0
C      1  0.4849440000000  0.4437350000000  0.5435430000000 1.0
C      1  0.4414840000000  0.4587700000000  0.4860160000000 1.0
C      1  0.4516630000000  0.4485720000000  0.5092650000000 1.0
C      1  0.5324100000000  0.4942420000000  0.5649170000000 1.0
C      1  0.4402890000000  0.5120150000000  0.5366280000000 1.0
C      1  0.5331570000000  0.5175770000000  0.4715040000000 1.0
C      1  0.4566670000000  0.5529730000000  0.4536780000000 1.0
C      1  0.4866130000000  0.4504840000000  0.4613720000000 1.0
C      1  0.4834610000000  0.5434140000000  0.4441450000000 1.0
C      1  0.5038610000000  0.5574160000000  0.4609990000000 1.0
C      1  0.4899710000000  0.4951570000000  0.5390250000000 1.0
C      1  0.4535250000000  0.5017030000000  0.4392770000000 1.0
C      1  0.5075740000000  0.4814110000000  0.5588830000000 1.0
C      1  0.5073910000000  0.4689720000000  0.4523780000000 1.0
C      1  0.5090280000000  0.4706820000000  0.4995430000000 1.0
C      1  0.4692230000000  0.5129150000000  0.5493930000000 1.0
C      1  0.5680890000000  0.4943640000000  0.4876730000000 1.0
C      1  0.5262150000000  0.4709480000000  0.4755600000000 1.0
C      1  0.5289560000000  0.5630490000000  0.5437830000000 1.0
C      1  0.5358570000000  0.4440220000000  0.5421980000000 1.0
C      1  0.4986460000000  0.4965490000000  0.5105000000000 1.0
C      1  0.4352680000000  0.5008800000000  0.5118710000000 1.0
C      1  0.4188860000000  0.5591840000000  0.5309630000000 1.0
C      1  0.4806250000000  0.5148010000000  0.4343650000000 1.0
C      1  0.5140770000000  0.4302330000000  0.5005730000000 1.0
C      1  0.5543500000000  0.5015610000000  0.5634520000000 1.0
C      1  0.5451880000000  0.5569460000000  0.5164290000000 1.0
END
