TITL C-884132-5695-209 78.7334115089065 125000 -20188.1032255341 0 0 137 (C1) n - 1
REM
REM in /home/nfs/bkarasulu/CARBON/AIRSS/Generating-Clusters/ReaxFF-fromJPCA2015/Units_Real/with-SteepDescent/Only-C1/SD-CG/Try1-3A/FIRE-CG
REM
REM
REM
REM
REM
REM ./C.cell (11c1c37f851c82e70ff6c80c92926a4b)
REM
REM compiler GCC version 9.2.1 20190827 (Red Hat 9.2.1-1)
REM options -cpp -mtune=generic -march=x86-64 -g -O0 -fpre-include=/usr/include/finclude/math-vector-fortran.h
REM seed -764502330 -493941733 1813433646 -578221625 375539096 932483003 -2048835661 -1820309447 139620924 1935023799 1299416257 1604119994 1795274348 -201032307 1781115135 -933132786 1007729621 -595034109 -1499437225 669315596 -1168608224 -270764139 -411184580 981020179 1312449662 -1473025214 173125766 -638765137 887558308 462968796 1419582212 -1392895026 712017004
REM
CELL 1.54180   50.00000   50.00000   50.00000   90.00000   90.00000   90.00000
LATT -1
SFAC C  
C      1  0.5126990000000  0.4236520000000  0.5602650000000 1.0
C      1  0.4371210000000  0.4563190000000  0.4259500000000 1.0
C      1  0.4197080000000  0.5516760000000  0.4298920000000 1.0
C      1  0.4293120000000  0.4998420000000  0.5808830000000 1.0
C      1  0.5998690000000  0.5099580000000  0.4941890000000 1.0
C      1  0.4737140000000  0.4556900000000  0.4803050000000 1.0
C      1  0.6053300000000  0.4652910000000  0.5175730000000 1.0
C      1  0.5343570000000  0.4846960000000  0.5076710000000 1.0
C      1  0.4032770000000  0.5026940000000  0.5171940000000 1.0
C      1  0.6043470000000  0.5028890000000  0.5463540000000 1.0
C      1  0.5653110000000  0.5826940000000  0.4790500000000 1.0
C      1  0.5097090000000  0.5166060000000  0.5943990000000 1.0
C      1  0.5058030000000  0.5779010000000  0.5695190000000 1.0
C      1  0.4355000000000  0.5195860000000  0.4974310000000 1.0
C      1  0.4599480000000  0.4746490000000  0.4318210000000 1.0
C      1  0.5230100000000  0.5942560000000  0.5170080000000 1.0
C      1  0.4663230000000  0.4179380000000  0.5330080000000 1.0
C      1  0.5230500000000  0.4679870000000  0.3948150000000 1.0
C      1  0.6017180000000  0.4735300000000  0.5462510000000 1.0
C      1  0.5217910000000  0.4086800000000  0.4710860000000 1.0
C      1  0.5386440000000  0.5968740000000  0.4894250000000 1.0
C      1  0.4638560000000  0.5513530000000  0.5162290000000 1.0
C      1  0.5429330000000  0.4316000000000  0.5241250000000 1.0
C      1  0.4887850000000  0.5366410000000  0.6005340000000 1.0
C      1  0.4571350000000  0.4192460000000  0.5045390000000 1.0
C      1  0.4033770000000  0.5560220000000  0.4525520000000 1.0
C      1  0.5161200000000  0.5337430000000  0.4526170000000 1.0
C      1  0.5393060000000  0.4357330000000  0.5523050000000 1.0
C      1  0.5536610000000  0.5148960000000  0.4250650000000 1.0
C      1  0.5040680000000  0.4040820000000  0.5141440000000 1.0
C      1  0.5383570000000  0.4184810000000  0.4494180000000 1.0
C      1  0.5518490000000  0.4591230000000  0.5663990000000 1.0
C      1  0.5172000000000  0.5227490000000  0.4076680000000 1.0
C      1  0.5672720000000  0.5316290000000  0.5537190000000 1.0
C      1  0.5744650000000  0.4759860000000  0.5592280000000 1.0
C      1  0.5387830000000  0.5454740000000  0.4898700000000 1.0
C      1  0.4061690000000  0.5296180000000  0.5005390000000 1.0
C      1  0.5409520000000  0.5432840000000  0.5617990000000 1.0
C      1  0.4260370000000  0.4441580000000  0.4728300000000 1.0
C      1  0.4349800000000  0.5852760000000  0.4774670000000 1.0
C      1  0.5885830000000  0.4440340000000  0.5207580000000 1.0
C      1  0.4281070000000  0.4522050000000  0.5478370000000 1.0
C      1  0.5329450000000  0.5361880000000  0.4268360000000 1.0
C      1  0.4221800000000  0.5150620000000  0.4555910000000 1.0
C      1  0.5858020000000  0.5648080000000  0.4869250000000 1.0
C      1  0.4754770000000  0.5324010000000  0.4048140000000 1.0
C      1  0.4691850000000  0.4463360000000  0.5710630000000 1.0
C      1  0.5029210000000  0.4809810000000  0.4552730000000 1.0
C      1  0.4572330000000  0.5031170000000  0.5873350000000 1.0
C      1  0.5794410000000  0.5059420000000  0.5616830000000 1.0
C      1  0.4605290000000  0.5305400000000  0.5957180000000 1.0
C      1  0.5898690000000  0.5354940000000  0.4757080000000 1.0
C      1  0.5176590000000  0.3878390000000  0.4939690000000 1.0
C      1  0.5421550000000  0.5894310000000  0.5390390000000 1.0
C      1  0.4782940000000  0.4596260000000  0.4123640000000 1.0
C      1  0.5157470000000  0.4335500000000  0.5107070000000 1.0
C      1  0.5053890000000  0.4349430000000  0.5864250000000 1.0
C      1  0.4851840000000  0.5333650000000  0.5259240000000 1.0
C      1  0.5004900000000  0.5101680000000  0.4593360000000 1.0
C      1  0.4486350000000  0.5292090000000  0.4107340000000 1.0
C      1  0.4562900000000  0.5332730000000  0.4651210000000 1.0
C      1  0.5201860000000  0.4624820000000  0.4691650000000 1.0
C      1  0.4474980000000  0.4521830000000  0.3992050000000 1.0
C      1  0.4797480000000  0.5863530000000  0.4964120000000 1.0
C      1  0.5397140000000  0.4752670000000  0.4828120000000 1.0
C      1  0.5261170000000  0.4390460000000  0.3984810000000 1.0
C      1  0.4246130000000  0.5251180000000  0.4241780000000 1.0
C      1  0.5268660000000  0.4925440000000  0.5469340000000 1.0
C      1  0.5343070000000  0.6064650000000  0.4663680000000 1.0
C      1  0.5869330000000  0.5669890000000  0.5180080000000 1.0
C      1  0.4178330000000  0.4931640000000  0.4622930000000 1.0
C      1  0.4111530000000  0.5060300000000  0.5442930000000 1.0
C      1  0.4773710000000  0.5160960000000  0.4764030000000 1.0
C      1  0.4806930000000  0.4698920000000  0.5741680000000 1.0
C      1  0.5605510000000  0.5318690000000  0.4738840000000 1.0
C      1  0.4326150000000  0.4339750000000  0.4992140000000 1.0
C      1  0.4204210000000  0.5783110000000  0.4579950000000 1.0
C      1  0.4959500000000  0.5089670000000  0.3966460000000 1.0
C      1  0.4747390000000  0.4737150000000  0.4567630000000 1.0
C      1  0.4249910000000  0.4809060000000  0.5565200000000 1.0
C      1  0.5914320000000  0.4589330000000  0.4738500000000 1.0
C      1  0.4725060000000  0.5571460000000  0.4540010000000 1.0
C      1  0.4853650000000  0.5802310000000  0.5487920000000 1.0
C      1  0.4138160000000  0.5555490000000  0.5171540000000 1.0
C      1  0.5861720000000  0.5412040000000  0.5332040000000 1.0
C      1  0.4504530000000  0.4337460000000  0.5542830000000 1.0
C      1  0.5648980000000  0.5780500000000  0.5283770000000 1.0
C      1  0.5158590000000  0.4355400000000  0.4806480000000 1.0
C      1  0.5131480000000  0.4795130000000  0.5256210000000 1.0
C      1  0.5320950000000  0.4545270000000  0.4178430000000 1.0
C      1  0.4243320000000  0.4547280000000  0.5192680000000 1.0
C      1  0.4655680000000  0.5653190000000  0.5661190000000 1.0
C      1  0.5560590000000  0.5094820000000  0.4548420000000 1.0
C      1  0.5958760000000  0.5388890000000  0.4431460000000 1.0
C      1  0.4867240000000  0.5628970000000  0.5871400000000 1.0
C      1  0.4533600000000  0.4879610000000  0.5383860000000 1.0
C      1  0.5749300000000  0.5332630000000  0.4266830000000 1.0
C      1  0.4954680000000  0.5887340000000  0.5212320000000 1.0
C      1  0.6005200000000  0.4812760000000  0.4919350000000 1.0
C      1  0.4901960000000  0.5700110000000  0.4746970000000 1.0
C      1  0.4036500000000  0.5309200000000  0.4690830000000 1.0
C      1  0.5789270000000  0.4327230000000  0.4813390000000 1.0
C      1  0.4729890000000  0.4990760000000  0.5616850000000 1.0
C      1  0.4386140000000  0.5676120000000  0.5220610000000 1.0
C      1  0.4795370000000  0.5131850000000  0.5051190000000 1.0
C      1  0.4089510000000  0.4768000000000  0.5059690000000 1.0
C      1  0.4982010000000  0.4636520000000  0.5959560000000 1.0
C      1  0.5689890000000  0.4277940000000  0.5101490000000 1.0
C      1  0.4505100000000  0.5878230000000  0.4999230000000 1.0
C      1  0.4954280000000  0.4578210000000  0.5246970000000 1.0
C      1  0.4923270000000  0.5212940000000  0.5517190000000 1.0
C      1  0.5584000000000  0.4823150000000  0.4643720000000 1.0
C      1  0.5379980000000  0.5311740000000  0.5153260000000 1.0
C      1  0.4398180000000  0.4368380000000  0.4486680000000 1.0
C      1  0.4130240000000  0.4712810000000  0.4771130000000 1.0
C      1  0.4817460000000  0.4684590000000  0.5035760000000 1.0
C      1  0.5342650000000  0.4818410000000  0.5736410000000 1.0
C      1  0.5158990000000  0.4877060000000  0.5958360000000 1.0
C      1  0.4249700000000  0.5241140000000  0.5646890000000 1.0
C      1  0.4470440000000  0.5426690000000  0.5717890000000 1.0
C      1  0.5157490000000  0.5272880000000  0.5673490000000 1.0
C      1  0.4718080000000  0.4269460000000  0.4798870000000 1.0
C      1  0.4530750000000  0.5072060000000  0.5153860000000 1.0
C      1  0.4497650000000  0.5433790000000  0.4914820000000 1.0
C      1  0.5144840000000  0.5541600000000  0.4733440000000 1.0
C      1  0.4928150000000  0.4096750000000  0.5406900000000 1.0
C      1  0.5177550000000  0.4300170000000  0.4269000000000 1.0
C      1  0.4679500000000  0.4267600000000  0.4500790000000 1.0
C      1  0.4972830000000  0.4799000000000  0.3982280000000 1.0
C      1  0.5630450000000  0.4326400000000  0.4563490000000 1.0
C      1  0.5731320000000  0.4606920000000  0.4510820000000 1.0
C      1  0.6023270000000  0.5190750000000  0.5214170000000 1.0
C      1  0.4872730000000  0.4365440000000  0.4307120000000 1.0
C      1  0.4645590000000  0.4644760000000  0.5243880000000 1.0
C      1  0.4807960000000  0.5534020000000  0.4263100000000 1.0
C      1  0.5333060000000  0.5709090000000  0.5616000000000 1.0
C      1  0.5445530000000  0.5044520000000  0.5268250000000 1.0
END
