TITL C-883727-9645-210 73.7195661808801 125000 -29552.240498808 0 0 195 (C1) n - 1
REM
REM in /home/nfs/bkarasulu/CARBON/AIRSS/Generating-Clusters/ReaxFF-fromJPCA2015/Units_Real/with-SteepDescent/Only-C1/SD-CG/Try1-3A/FIRE-CG
REM
REM
REM
REM
REM
REM ./C.cell (11c1c37f851c82e70ff6c80c92926a4b)
REM
REM compiler GCC version 9.2.1 20190827 (Red Hat 9.2.1-1)
REM options -cpp -mtune=generic -march=x86-64 -g -O0 -fpre-include=/usr/include/finclude/math-vector-fortran.h
REM seed 1221693050 -1900128901 297420184 -801736535 1439297013 1622422787 1551056299 -1979295574 1634420367 -771775069 -1067120476 -1977539053 -1740131787 23873800 1810261998 -2142957443 895914471 1334267887 1002796041 1843637054 687680571 -1692475797 208571240 462727699 267986580 423342950 -1219372550 2088619052 -165670333 -647112184 893700640 -1447594269 -482053845
REM
CELL 1.54180   50.00000   50.00000   50.00000   90.00000   90.00000   90.00000
LATT -1
SFAC C  
C      1  0.5995240000000  0.4743030000000  0.4490980000000 1.0
C      1  0.4010660000000  0.4451500000000  0.4908820000000 1.0
C      1  0.5734010000000  0.4254130000000  0.4982880000000 1.0
C      1  0.3781560000000  0.4939730000000  0.5147520000000 1.0
C      1  0.3862720000000  0.5415490000000  0.5044910000000 1.0
C      1  0.5124140000000  0.4848600000000  0.6028790000000 1.0
C      1  0.4451160000000  0.5519190000000  0.4702150000000 1.0
C      1  0.4557740000000  0.4597210000000  0.4951550000000 1.0
C      1  0.6005280000000  0.4995000000000  0.4639090000000 1.0
C      1  0.4960800000000  0.5650670000000  0.5947570000000 1.0
C      1  0.4740450000000  0.5807610000000  0.5038810000000 1.0
C      1  0.5182490000000  0.5765770000000  0.5819360000000 1.0
C      1  0.4335300000000  0.4653930000000  0.5119430000000 1.0
C      1  0.4322220000000  0.4054690000000  0.5067650000000 1.0
C      1  0.4900370000000  0.5257430000000  0.4487110000000 1.0
C      1  0.4048090000000  0.4982730000000  0.4288140000000 1.0
C      1  0.4826730000000  0.4808070000000  0.5164680000000 1.0
C      1  0.3981560000000  0.4657190000000  0.4714690000000 1.0
C      1  0.4892200000000  0.5554930000000  0.4031750000000 1.0
C      1  0.4237100000000  0.4904080000000  0.4980300000000 1.0
C      1  0.3885530000000  0.4760820000000  0.5345370000000 1.0
C      1  0.5135210000000  0.4721140000000  0.3862900000000 1.0
C      1  0.4630200000000  0.5090480000000  0.4781550000000 1.0
C      1  0.4630840000000  0.5416900000000  0.4022310000000 1.0
C      1  0.5354900000000  0.5389650000000  0.4142730000000 1.0
C      1  0.5470010000000  0.5196720000000  0.4555850000000 1.0
C      1  0.4673870000000  0.4390580000000  0.4774720000000 1.0
C      1  0.5916830000000  0.4632950000000  0.5179830000000 1.0
C      1  0.4427280000000  0.5344000000000  0.5278700000000 1.0
C      1  0.5314990000000  0.4605890000000  0.5999300000000 1.0
C      1  0.3942660000000  0.4917640000000  0.4883890000000 1.0
C      1  0.5974100000000  0.4826880000000  0.5404450000000 1.0
C      1  0.5596880000000  0.5779470000000  0.5573190000000 1.0
C      1  0.3968360000000  0.5209350000000  0.5478410000000 1.0
C      1  0.4660910000000  0.4300850000000  0.5883330000000 1.0
C      1  0.5116170000000  0.5577230000000  0.4812330000000 1.0
C      1  0.4492760000000  0.4271340000000  0.4388780000000 1.0
C      1  0.5796420000000  0.5673640000000  0.4546170000000 1.0
C      1  0.5494210000000  0.5931600000000  0.5354710000000 1.0
C      1  0.4844760000000  0.4433540000000  0.4115550000000 1.0
C      1  0.4968040000000  0.4040330000000  0.5580700000000 1.0
C      1  0.5559870000000  0.5018830000000  0.5245030000000 1.0
C      1  0.4891690000000  0.5784220000000  0.4210810000000 1.0
C      1  0.5096670000000  0.5167100000000  0.3811540000000 1.0
C      1  0.4081280000000  0.5613420000000  0.5013850000000 1.0
C      1  0.4336130000000  0.4892170000000  0.4585650000000 1.0
C      1  0.5491110000000  0.5194060000000  0.6017210000000 1.0
C      1  0.5306980000000  0.5240640000000  0.5470270000000 1.0
C      1  0.4713750000000  0.5958470000000  0.5290360000000 1.0
C      1  0.5167880000000  0.4368600000000  0.5920470000000 1.0
C      1  0.4839320000000  0.5063640000000  0.3771740000000 1.0
C      1  0.3834930000000  0.5223550000000  0.4829430000000 1.0
C      1  0.6113220000000  0.5193490000000  0.5062980000000 1.0
C      1  0.4913730000000  0.5776700000000  0.4814130000000 1.0
C      1  0.4631970000000  0.5122360000000  0.3936080000000 1.0
C      1  0.5806400000000  0.4369070000000  0.5242190000000 1.0
C      1  0.4916860000000  0.4982670000000  0.5560030000000 1.0
C      1  0.4269840000000  0.5085660000000  0.4140950000000 1.0
C      1  0.5630360000000  0.5868550000000  0.5112680000000 1.0
C      1  0.4951720000000  0.4744900000000  0.4916390000000 1.0
C      1  0.5294830000000  0.4965240000000  0.3887480000000 1.0
C      1  0.5109660000000  0.5900110000000  0.4374350000000 1.0
C      1  0.5583880000000  0.5436490000000  0.5871310000000 1.0
C      1  0.4781980000000  0.4273700000000  0.5261560000000 1.0
C      1  0.4189970000000  0.4219080000000  0.4860480000000 1.0
C      1  0.5200610000000  0.4492120000000  0.5378870000000 1.0
C      1  0.4774610000000  0.4217050000000  0.4280730000000 1.0
C      1  0.5871570000000  0.4342920000000  0.4725090000000 1.0
C      1  0.4638150000000  0.4904350000000  0.4138310000000 1.0
C      1  0.4798780000000  0.5952180000000  0.5579120000000 1.0
C      1  0.5066960000000  0.4986130000000  0.4817140000000 1.0
C      1  0.4479720000000  0.4521810000000  0.5736480000000 1.0
C      1  0.5651980000000  0.4970270000000  0.5912370000000 1.0
C      1  0.5718180000000  0.4293790000000  0.4477820000000 1.0
C      1  0.5027220000000  0.5387690000000  0.6083080000000 1.0
C      1  0.4862500000000  0.5162920000000  0.4913160000000 1.0
C      1  0.5645460000000  0.4481430000000  0.4262070000000 1.0
C      1  0.5078230000000  0.4071260000000  0.4667530000000 1.0
C      1  0.4977170000000  0.5998100000000  0.4619560000000 1.0
C      1  0.4593800000000  0.4611000000000  0.4142540000000 1.0
C      1  0.4284890000000  0.4374670000000  0.5559000000000 1.0
C      1  0.4607260000000  0.5787490000000  0.4305110000000 1.0
C      1  0.5275800000000  0.4209040000000  0.5251300000000 1.0
C      1  0.4703690000000  0.4643900000000  0.5570460000000 1.0
C      1  0.3952740000000  0.5371920000000  0.4614800000000 1.0
C      1  0.5060460000000  0.5347180000000  0.5588100000000 1.0
C      1  0.5299240000000  0.4141090000000  0.4291620000000 1.0
C      1  0.5214520000000  0.5997790000000  0.5351930000000 1.0
C      1  0.5422820000000  0.4152360000000  0.5507980000000 1.0
C      1  0.4569960000000  0.4804380000000  0.4738100000000 1.0
C      1  0.5836320000000  0.5670340000000  0.5198550000000 1.0
C      1  0.4797050000000  0.3954610000000  0.5001580000000 1.0
C      1  0.5096010000000  0.5451390000000  0.4552430000000 1.0
C      1  0.5856090000000  0.5261830000000  0.4272770000000 1.0
C      1  0.4395540000000  0.5103360000000  0.5118770000000 1.0
C      1  0.5937450000000  0.5487340000000  0.4710950000000 1.0
C      1  0.4617610000000  0.4856830000000  0.6022410000000 1.0
C      1  0.5793890000000  0.5595010000000  0.5480190000000 1.0
C      1  0.6181950000000  0.5008470000000  0.5271340000000 1.0
C      1  0.5722730000000  0.4916130000000  0.5464510000000 1.0
C      1  0.5703130000000  0.5023460000000  0.4995470000000 1.0
C      1  0.5370830000000  0.4967540000000  0.4428580000000 1.0
C      1  0.3785260000000  0.5217460000000  0.5249340000000 1.0
C      1  0.4210140000000  0.4489360000000  0.5316890000000 1.0
C      1  0.4922110000000  0.5251550000000  0.5846230000000 1.0
C      1  0.5388790000000  0.5396700000000  0.5229270000000 1.0
C      1  0.4371070000000  0.4770300000000  0.5896370000000 1.0
C      1  0.4469860000000  0.5029990000000  0.4354520000000 1.0
C      1  0.4378530000000  0.4517130000000  0.4311960000000 1.0
C      1  0.6183420000000  0.5011040000000  0.4855100000000 1.0
C      1  0.4422290000000  0.4172930000000  0.4674970000000 1.0
C      1  0.4528100000000  0.3959160000000  0.4887210000000 1.0
C      1  0.4889560000000  0.4428770000000  0.6007180000000 1.0
C      1  0.4276270000000  0.5504140000000  0.5711070000000 1.0
C      1  0.5579840000000  0.5409810000000  0.5013620000000 1.0
C      1  0.5348480000000  0.4965140000000  0.5583150000000 1.0
C      1  0.5357740000000  0.4667080000000  0.4997960000000 1.0
C      1  0.5202360000000  0.4556960000000  0.4574750000000 1.0
C      1  0.6296640000000  0.4766150000000  0.5159210000000 1.0
C      1  0.5218390000000  0.5165290000000  0.6109640000000 1.0
C      1  0.4194980000000  0.5367560000000  0.4178940000000 1.0
C      1  0.5084150000000  0.6046190000000  0.5121150000000 1.0
C      1  0.4612610000000  0.5281740000000  0.4556080000000 1.0
C      1  0.5576930000000  0.4671390000000  0.4810030000000 1.0
C      1  0.5578550000000  0.4685310000000  0.5909840000000 1.0
C      1  0.5022700000000  0.4093040000000  0.4384390000000 1.0
C      1  0.5444650000000  0.4712830000000  0.4557420000000 1.0
C      1  0.5044390000000  0.4908140000000  0.5321250000000 1.0
C      1  0.5460130000000  0.5056000000000  0.4111970000000 1.0
C      1  0.4736830000000  0.4610640000000  0.4587440000000 1.0
C      1  0.4729600000000  0.5768920000000  0.5795900000000 1.0
C      1  0.5503380000000  0.4096530000000  0.4496080000000 1.0
C      1  0.4704230000000  0.4079720000000  0.5709680000000 1.0
C      1  0.5396500000000  0.5843920000000  0.4366760000000 1.0
C      1  0.4898160000000  0.5374920000000  0.5097110000000 1.0
C      1  0.5455130000000  0.5685670000000  0.5802420000000 1.0
C      1  0.5821350000000  0.4775180000000  0.4927100000000 1.0
C      1  0.4876360000000  0.4823150000000  0.3821950000000 1.0
C      1  0.6074960000000  0.4548060000000  0.4692620000000 1.0
C      1  0.5482040000000  0.5944220000000  0.4867760000000 1.0
C      1  0.5909190000000  0.5441670000000  0.5010480000000 1.0
C      1  0.5624150000000  0.4556100000000  0.5644250000000 1.0
C      1  0.4194670000000  0.4964780000000  0.5786700000000 1.0
C      1  0.4171220000000  0.5539780000000  0.4740480000000 1.0
C      1  0.5113210000000  0.4901090000000  0.5718530000000 1.0
C      1  0.5294390000000  0.4912360000000  0.5152710000000 1.0
C      1  0.4903090000000  0.4488760000000  0.5426550000000 1.0
C      1  0.5339660000000  0.5398560000000  0.4431240000000 1.0
C      1  0.5171380000000  0.5472540000000  0.5071630000000 1.0
C      1  0.4658680000000  0.5959250000000  0.4518230000000 1.0
C      1  0.5364910000000  0.4056160000000  0.4751720000000 1.0
C      1  0.5745780000000  0.5007480000000  0.4168420000000 1.0
C      1  0.4505820000000  0.4154550000000  0.5284720000000 1.0
C      1  0.4443340000000  0.4125190000000  0.5567680000000 1.0
C      1  0.5800320000000  0.5076530000000  0.5682790000000 1.0
C      1  0.5142630000000  0.4537660000000  0.4862070000000 1.0
C      1  0.4007040000000  0.4934920000000  0.5563490000000 1.0
C      1  0.5123920000000  0.5405830000000  0.3967130000000 1.0
C      1  0.4431050000000  0.5540780000000  0.4175250000000 1.0
C      1  0.4905960000000  0.5554300000000  0.5461630000000 1.0
C      1  0.4244370000000  0.5261460000000  0.5888540000000 1.0
C      1  0.5052950000000  0.4992960000000  0.4510750000000 1.0
C      1  0.5767190000000  0.5544860000000  0.4282850000000 1.0
C      1  0.5774370000000  0.5371090000000  0.5669720000000 1.0
C      1  0.5518750000000  0.5651390000000  0.4177900000000 1.0
C      1  0.4201470000000  0.5394190000000  0.5456070000000 1.0
C      1  0.4888860000000  0.4184420000000  0.4855900000000 1.0
C      1  0.5673560000000  0.4306550000000  0.5501680000000 1.0
C      1  0.5407410000000  0.4677300000000  0.5485250000000 1.0
C      1  0.4980260000000  0.4052540000000  0.5278790000000 1.0
C      1  0.4860880000000  0.4710130000000  0.6079120000000 1.0
C      1  0.4654870000000  0.5133240000000  0.5908430000000 1.0
C      1  0.5568610000000  0.5855180000000  0.4605940000000 1.0
C      1  0.4308210000000  0.5734390000000  0.5148750000000 1.0
C      1  0.4458290000000  0.5299670000000  0.6085200000000 1.0
C      1  0.3962370000000  0.5257370000000  0.4346560000000 1.0
C      1  0.4506240000000  0.5683750000000  0.4935170000000 1.0
C      1  0.5203040000000  0.4159160000000  0.5707980000000 1.0
C      1  0.5060450000000  0.5847730000000  0.5561640000000 1.0
C      1  0.4697600000000  0.5470760000000  0.5278890000000 1.0
C      1  0.4974320000000  0.4700240000000  0.4467620000000 1.0
C      1  0.4138510000000  0.4712670000000  0.4457220000000 1.0
C      1  0.3962920000000  0.4510000000000  0.5212730000000 1.0
C      1  0.5203030000000  0.6059380000000  0.4876500000000 1.0
C      1  0.5127440000000  0.4494080000000  0.4048260000000 1.0
C      1  0.5799670000000  0.4734150000000  0.4271220000000 1.0
C      1  0.4631840000000  0.4923060000000  0.5555030000000 1.0
C      1  0.4606070000000  0.4972580000000  0.5266450000000 1.0
C      1  0.4458710000000  0.5840960000000  0.5382320000000 1.0
C      1  0.5969810000000  0.5258580000000  0.4536290000000 1.0
C      1  0.5549660000000  0.5197720000000  0.4821970000000 1.0
C      1  0.5377920000000  0.4387950000000  0.4159180000000 1.0
C      1  0.6248070000000  0.4718270000000  0.4882880000000 1.0
C      1  0.4477300000000  0.5712220000000  0.5658800000000 1.0
C      1  0.5464430000000  0.4155800000000  0.5000600000000 1.0
END
