TITL C-884138-6203-325 0.597511142891989 125000 -7414.33733060862 0 0 51 (C1) n - 1
REM
REM in /home/nfs/bkarasulu/CARBON/AIRSS/Generating-Clusters/ReaxFF-fromJPCA2015/Units_Real/with-SteepDescent/Only-C1/SD-CG/Try1-3A/FIRE-CG
REM
REM
REM
REM
REM
REM ./C.cell (11c1c37f851c82e70ff6c80c92926a4b)
REM
REM compiler GCC version 9.2.1 20190827 (Red Hat 9.2.1-1)
REM options -cpp -mtune=generic -march=x86-64 -g -O0 -fpre-include=/usr/include/finclude/math-vector-fortran.h
REM seed 829829130 1501334605 -1644825669 -228368296 409614702 1569298480 2054267180 1801729313 -464135188 1606652163 -76607662 -1728792062 -1773849580 -2072949749 342242127 252082427 -1653780391 -140061312 257880288 2127865400 -1258375999 1332239706 1883361712 -194746175 1812519867 -549472731 1509090614 826959510 -1988235618 -2106919188 -1751056938 472962777 -1542809446
REM
CELL 1.54180   50.00000   50.00000   50.00000   90.00000   90.00000   90.00000
LATT -1
SFAC C  
C      1  0.5301750000000  0.5076410000000  0.5447940000000 1.0
C      1  0.5646450000000  0.5495050000000  0.4714370000000 1.0
C      1  0.4644860000000  0.4805310000000  0.4736260000000 1.0
C      1  0.4938710000000  0.5084690000000  0.4486410000000 1.0
C      1  0.5545600000000  0.5061620000000  0.5315750000000 1.0
C      1  0.5105010000000  0.4914980000000  0.4302940000000 1.0
C      1  0.5353070000000  0.4382530000000  0.5168850000000 1.0
C      1  0.5286260000000  0.5512010000000  0.4457490000000 1.0
C      1  0.5582580000000  0.5288500000000  0.5118490000000 1.0
C      1  0.4334520000000  0.5435300000000  0.5198710000000 1.0
C      1  0.4666370000000  0.5060160000000  0.4604670000000 1.0
C      1  0.5405410000000  0.5016970000000  0.4697960000000 1.0
C      1  0.4623390000000  0.4850840000000  0.5250040000000 1.0
C      1  0.5298030000000  0.5601370000000  0.5422470000000 1.0
C      1  0.4471680000000  0.5406500000000  0.5459750000000 1.0
C      1  0.4927970000000  0.4552570000000  0.5466200000000 1.0
C      1  0.4744380000000  0.5552110000000  0.4901240000000 1.0
C      1  0.5011020000000  0.5555630000000  0.5348290000000 1.0
C      1  0.4890760000000  0.4177990000000  0.5134560000000 1.0
C      1  0.5089600000000  0.4356140000000  0.5274060000000 1.0
C      1  0.5249760000000  0.5294770000000  0.4311930000000 1.0
C      1  0.4656340000000  0.4525820000000  0.4601500000000 1.0
C      1  0.4647460000000  0.5247950000000  0.4852390000000 1.0
C      1  0.4909610000000  0.4458900000000  0.4491760000000 1.0
C      1  0.4682930000000  0.4323880000000  0.4798280000000 1.0
C      1  0.5549940000000  0.4588720000000  0.5044560000000 1.0
C      1  0.4621770000000  0.5375480000000  0.5631170000000 1.0
C      1  0.4990810000000  0.5609840000000  0.5052830000000 1.0
C      1  0.4879650000000  0.5349620000000  0.5521270000000 1.0
C      1  0.4386080000000  0.5198930000000  0.5030650000000 1.0
C      1  0.5442130000000  0.5543360000000  0.5163720000000 1.0
C      1  0.5115390000000  0.4612540000000  0.4371030000000 1.0
C      1  0.4609110000000  0.4243680000000  0.5053420000000 1.0
C      1  0.4642300000000  0.4601930000000  0.5409580000000 1.0
C      1  0.5106140000000  0.5105300000000  0.4729410000000 1.0
C      1  0.5424610000000  0.4722630000000  0.4778420000000 1.0
C      1  0.4503560000000  0.5593200000000  0.5033380000000 1.0
C      1  0.5258520000000  0.5639290000000  0.4950030000000 1.0
C      1  0.5061270000000  0.5087000000000  0.5576800000000 1.0
C      1  0.5612300000000  0.4780000000000  0.5255780000000 1.0
C      1  0.4781870000000  0.4847850000000  0.4993320000000 1.0
C      1  0.4353250000000  0.4943710000000  0.5168750000000 1.0
C      1  0.4917160000000  0.5101610000000  0.4946090000000 1.0
C      1  0.5263530000000  0.4585310000000  0.4610660000000 1.0
C      1  0.4262900000000  0.4652740000000  0.5124770000000 1.0
C      1  0.4988480000000  0.4810410000000  0.5539900000000 1.0
C      1  0.5354140000000  0.5040140000000  0.4382810000000 1.0
C      1  0.4456200000000  0.4454720000000  0.5232070000000 1.0
C      1  0.5607430000000  0.5231380000000  0.4835050000000 1.0
C      1  0.5419320000000  0.4592490000000  0.5321400000000 1.0
C      1  0.5378600000000  0.5650150000000  0.4680820000000 1.0
END
