TITL C-883738-3659-111 33.253802196293 125000 -22304.0732743034 0 0 150 (C1) n - 1
REM
REM in /home/nfs/bkarasulu/CARBON/AIRSS/Generating-Clusters/ReaxFF-fromJPCA2015/Units_Real/with-SteepDescent/Only-C1/SD-CG/Try1-3A/FIRE-CG
REM
REM
REM
REM
REM
REM ./C.cell (11c1c37f851c82e70ff6c80c92926a4b)
REM
REM compiler GCC version 9.2.1 20190827 (Red Hat 9.2.1-1)
REM options -cpp -mtune=generic -march=x86-64 -g -O0 -fpre-include=/usr/include/finclude/math-vector-fortran.h
REM seed -1674449815 346178351 2001217076 691916538 837353442 1681874526 1922187048 -465729044 -746972578 -539889536 1313274060 1423880122 -1906324502 -430806430 1911214384 -1117232602 -340470177 1619801734 -1925807952 502289844 -409990368 -556632382 -602895836 -1432800726 655762234 -1901739597 -1564890978 1370212085 508367071 -91723837 -1109437978 758051029 225317733
REM
CELL 1.54180   50.00000   50.00000   50.00000   90.00000   90.00000   90.00000
LATT -1
SFAC C  
C      1  0.5450260000000  0.5214190000000  0.5854470000000 1.0
C      1  0.5316830000000  0.4939900000000  0.5344140000000 1.0
C      1  0.5161410000000  0.5216470000000  0.5790150000000 1.0
C      1  0.4118590000000  0.4955240000000  0.5645300000000 1.0
C      1  0.4861080000000  0.4323000000000  0.5994540000000 1.0
C      1  0.5044480000000  0.4710270000000  0.5009450000000 1.0
C      1  0.5912550000000  0.5559510000000  0.5083140000000 1.0
C      1  0.3997120000000  0.5354390000000  0.5039750000000 1.0
C      1  0.4114900000000  0.4457060000000  0.5365000000000 1.0
C      1  0.5691490000000  0.5265980000000  0.4819460000000 1.0
C      1  0.4433440000000  0.4567380000000  0.5155280000000 1.0
C      1  0.4612740000000  0.4964330000000  0.4606030000000 1.0
C      1  0.4450130000000  0.4134890000000  0.5023450000000 1.0
C      1  0.5265820000000  0.4926670000000  0.4623140000000 1.0
C      1  0.4986090000000  0.4207440000000  0.4819440000000 1.0
C      1  0.4295430000000  0.4291150000000  0.5221760000000 1.0
C      1  0.5543890000000  0.4745830000000  0.4191530000000 1.0
C      1  0.4704860000000  0.4530020000000  0.5121560000000 1.0
C      1  0.5340460000000  0.4825390000000  0.5986130000000 1.0
C      1  0.4832380000000  0.4936510000000  0.6055810000000 1.0
C      1  0.4044370000000  0.5225760000000  0.5568520000000 1.0
C      1  0.4945800000000  0.5182650000000  0.3921190000000 1.0
C      1  0.5545840000000  0.5297810000000  0.4125050000000 1.0
C      1  0.4675990000000  0.4243120000000  0.5884570000000 1.0
C      1  0.5285530000000  0.5071860000000  0.5103830000000 1.0
C      1  0.5034770000000  0.5490300000000  0.5114590000000 1.0
C      1  0.4632900000000  0.4890920000000  0.5848050000000 1.0
C      1  0.5749230000000  0.5494000000000  0.4236600000000 1.0
C      1  0.4362950000000  0.4444610000000  0.4652410000000 1.0
C      1  0.4802360000000  0.5358020000000  0.5040890000000 1.0
C      1  0.4602770000000  0.5155850000000  0.5735950000000 1.0
C      1  0.4707930000000  0.5022600000000  0.3945260000000 1.0
C      1  0.5971850000000  0.4909240000000  0.4682570000000 1.0
C      1  0.4917430000000  0.4679640000000  0.5273280000000 1.0
C      1  0.4517440000000  0.5417060000000  0.4445430000000 1.0
C      1  0.5353590000000  0.5665840000000  0.5446360000000 1.0
C      1  0.4190350000000  0.5583560000000  0.5047300000000 1.0
C      1  0.5321820000000  0.5694460000000  0.5761950000000 1.0
C      1  0.4776560000000  0.5879930000000  0.5350320000000 1.0
C      1  0.5877630000000  0.4634470000000  0.4672590000000 1.0
C      1  0.4461310000000  0.5146250000000  0.4038950000000 1.0
C      1  0.4731810000000  0.4735550000000  0.4057450000000 1.0
C      1  0.4568640000000  0.5277360000000  0.5201600000000 1.0
C      1  0.5621890000000  0.4619140000000  0.4494760000000 1.0
C      1  0.5773210000000  0.4489710000000  0.4912450000000 1.0
C      1  0.4991880000000  0.4119160000000  0.4542350000000 1.0
C      1  0.4850340000000  0.4454460000000  0.4113860000000 1.0
C      1  0.4678500000000  0.5604660000000  0.4127790000000 1.0
C      1  0.5631800000000  0.5728180000000  0.4734750000000 1.0
C      1  0.5946940000000  0.5333610000000  0.5264090000000 1.0
C      1  0.4743530000000  0.5140090000000  0.5465440000000 1.0
C      1  0.4959630000000  0.5323490000000  0.4581540000000 1.0
C      1  0.5410300000000  0.4158410000000  0.4990590000000 1.0
C      1  0.5259420000000  0.6161930000000  0.4850080000000 1.0
C      1  0.5227130000000  0.5201640000000  0.4528240000000 1.0
C      1  0.4262870000000  0.4719500000000  0.5526350000000 1.0
C      1  0.5045570000000  0.4491320000000  0.4827820000000 1.0
C      1  0.5426130000000  0.4396090000000  0.5131820000000 1.0
C      1  0.5096830000000  0.4114300000000  0.5383670000000 1.0
C      1  0.5238200000000  0.5989200000000  0.5088930000000 1.0
C      1  0.5086860000000  0.4778070000000  0.6084870000000 1.0
C      1  0.5103730000000  0.4975270000000  0.4910410000000 1.0
C      1  0.4794760000000  0.5640570000000  0.5826260000000 1.0
C      1  0.5017950000000  0.4832930000000  0.4177360000000 1.0
C      1  0.5114090000000  0.4468400000000  0.6059710000000 1.0
C      1  0.5452430000000  0.5834650000000  0.5188910000000 1.0
C      1  0.5607170000000  0.5005290000000  0.5394010000000 1.0
C      1  0.5269440000000  0.5490320000000  0.4953340000000 1.0
C      1  0.5586370000000  0.4257940000000  0.4774580000000 1.0
C      1  0.5355390000000  0.4555630000000  0.4148670000000 1.0
C      1  0.5788640000000  0.5630350000000  0.4501670000000 1.0
C      1  0.3961130000000  0.4628650000000  0.4917730000000 1.0
C      1  0.4698600000000  0.4144480000000  0.4522070000000 1.0
C      1  0.5475270000000  0.5288250000000  0.5034250000000 1.0
C      1  0.4514300000000  0.4899930000000  0.4857730000000 1.0
C      1  0.4923190000000  0.3988270000000  0.5015540000000 1.0
C      1  0.4749690000000  0.4844770000000  0.5442180000000 1.0
C      1  0.4242330000000  0.5371860000000  0.4629030000000 1.0
C      1  0.5144490000000  0.6095720000000  0.4581110000000 1.0
C      1  0.4763830000000  0.4738870000000  0.4584230000000 1.0
C      1  0.5075720000000  0.5371790000000  0.6030570000000 1.0
C      1  0.5318210000000  0.4414710000000  0.5867650000000 1.0
C      1  0.5781680000000  0.5119740000000  0.4588220000000 1.0
C      1  0.4981580000000  0.4578260000000  0.4566860000000 1.0
C      1  0.4305710000000  0.4972330000000  0.4227350000000 1.0
C      1  0.4909430000000  0.5946750000000  0.5126250000000 1.0
C      1  0.4436980000000  0.4485380000000  0.4358760000000 1.0
C      1  0.4671890000000  0.5676510000000  0.4464030000000 1.0
C      1  0.4592670000000  0.4684630000000  0.5624160000000 1.0
C      1  0.4255770000000  0.4827460000000  0.5236090000000 1.0
C      1  0.5141700000000  0.5792110000000  0.4570060000000 1.0
C      1  0.5201000000000  0.4710230000000  0.5435910000000 1.0
C      1  0.4669200000000  0.5381400000000  0.5913480000000 1.0
C      1  0.5136460000000  0.4378240000000  0.4144290000000 1.0
C      1  0.5346370000000  0.5658870000000  0.4737380000000 1.0
C      1  0.5683940000000  0.5744140000000  0.5025450000000 1.0
C      1  0.5176360000000  0.5008610000000  0.4014270000000 1.0
C      1  0.5074420000000  0.5643850000000  0.5909160000000 1.0
C      1  0.5662810000000  0.5305490000000  0.5339030000000 1.0
C      1  0.4486470000000  0.4189790000000  0.4732940000000 1.0
C      1  0.5487670000000  0.4767010000000  0.4711590000000 1.0
C      1  0.6083860000000  0.5105750000000  0.4874610000000 1.0
C      1  0.4542960000000  0.5774770000000  0.4732060000000 1.0
C      1  0.3990980000000  0.4662780000000  0.5192600000000 1.0
C      1  0.4369520000000  0.5064130000000  0.5040450000000 1.0
C      1  0.5587710000000  0.5515760000000  0.5510160000000 1.0
C      1  0.4166150000000  0.5196680000000  0.4852870000000 1.0
C      1  0.4709280000000  0.5861650000000  0.4941220000000 1.0
C      1  0.4062620000000  0.4572670000000  0.4669950000000 1.0
C      1  0.4292000000000  0.5621720000000  0.4781170000000 1.0
C      1  0.5382270000000  0.5311220000000  0.4336120000000 1.0
C      1  0.4463880000000  0.5417610000000  0.4138350000000 1.0
C      1  0.4069830000000  0.4843260000000  0.4596730000000 1.0
C      1  0.4456280000000  0.4727500000000  0.4211180000000 1.0
C      1  0.5025170000000  0.5272550000000  0.5538190000000 1.0
C      1  0.5570650000000  0.4938440000000  0.5864110000000 1.0
C      1  0.5726080000000  0.4574900000000  0.5491400000000 1.0
C      1  0.5873420000000  0.4532270000000  0.5239920000000 1.0
C      1  0.5950260000000  0.5374830000000  0.4856350000000 1.0
C      1  0.4685230000000  0.4361880000000  0.5625500000000 1.0
C      1  0.4806020000000  0.4184930000000  0.5419300000000 1.0
C      1  0.5526690000000  0.5490180000000  0.5788030000000 1.0
C      1  0.5561810000000  0.4679470000000  0.4982420000000 1.0
C      1  0.5891190000000  0.5361910000000  0.4450240000000 1.0
C      1  0.5707290000000  0.4888370000000  0.5138530000000 1.0
C      1  0.4665140000000  0.5810440000000  0.5609190000000 1.0
C      1  0.5117480000000  0.5477210000000  0.5378660000000 1.0
C      1  0.4703450000000  0.5208820000000  0.4496210000000 1.0
C      1  0.4423420000000  0.5659370000000  0.5640660000000 1.0
C      1  0.3971510000000  0.5266290000000  0.5305730000000 1.0
C      1  0.5326860000000  0.4301440000000  0.5383060000000 1.0
C      1  0.4657720000000  0.4312370000000  0.4279900000000 1.0
C      1  0.5224130000000  0.4239710000000  0.4394910000000 1.0
C      1  0.4896660000000  0.5474620000000  0.3985390000000 1.0
C      1  0.4236760000000  0.5498390000000  0.5520500000000 1.0
C      1  0.4381460000000  0.5509530000000  0.5259720000000 1.0
C      1  0.5132510000000  0.4753580000000  0.4425590000000 1.0
C      1  0.5187980000000  0.3996210000000  0.5133570000000 1.0
C      1  0.5971170000000  0.4808720000000  0.5243910000000 1.0
C      1  0.4933160000000  0.5616910000000  0.4531380000000 1.0
C      1  0.6072910000000  0.5083110000000  0.5165870000000 1.0
C      1  0.4689090000000  0.4059170000000  0.5180600000000 1.0
C      1  0.4915380000000  0.5188840000000  0.4838360000000 1.0
C      1  0.4832590000000  0.5226960000000  0.6104220000000 1.0
C      1  0.4541000000000  0.4623580000000  0.4896230000000 1.0
C      1  0.5466740000000  0.5001690000000  0.4067070000000 1.0
C      1  0.4151420000000  0.5063360000000  0.4465790000000 1.0
C      1  0.5477780000000  0.4331340000000  0.4519820000000 1.0
C      1  0.5388080000000  0.4525340000000  0.5580210000000 1.0
C      1  0.5711710000000  0.4828860000000  0.5626060000000 1.0
END
