TITL C-883729-9652-313 -7.35944325099801 125000 -28259.3350891931 0 0 188 (C1) n - 1
REM
REM in /home/nfs/bkarasulu/CARBON/AIRSS/Generating-Clusters/ReaxFF-fromJPCA2015/Units_Real/with-SteepDescent/Only-C1/SD-CG/Try1-3A/FIRE-CG
REM
REM
REM
REM
REM
REM ./C.cell (11c1c37f851c82e70ff6c80c92926a4b)
REM
REM compiler GCC version 9.2.1 20190827 (Red Hat 9.2.1-1)
REM options -cpp -mtune=generic -march=x86-64 -g -O0 -fpre-include=/usr/include/finclude/math-vector-fortran.h
REM seed 1288252966 -631218965 -896540346 -55308647 -767433871 854372793 -1223572163 -640469281 -707779937 1616573272 2102040993 597045437 -1285124871 -810638644 1150964657 1868318807 -1163731397 38599188 -888698516 -1273557162 -805447255 736197845 -579418037 386154512 656921040 -1661781468 -547236284 1851335424 -969225299 -1096486086 635385086 -241105724 20673062
REM
CELL 1.54180   50.00000   50.00000   50.00000   90.00000   90.00000   90.00000
LATT -1
SFAC C  
C      1  0.5682740000000  0.5606780000000  0.5556080000000 1.0
C      1  0.4707470000000  0.4344040000000  0.5999680000000 1.0
C      1  0.4880480000000  0.5047310000000  0.5263460000000 1.0
C      1  0.4900970000000  0.6048780000000  0.4314260000000 1.0
C      1  0.6185700000000  0.4797190000000  0.5140960000000 1.0
C      1  0.4796630000000  0.4373700000000  0.4843230000000 1.0
C      1  0.4834600000000  0.5135540000000  0.5550720000000 1.0
C      1  0.4924540000000  0.4446080000000  0.4111490000000 1.0
C      1  0.5334490000000  0.3907260000000  0.5339230000000 1.0
C      1  0.4788580000000  0.5840900000000  0.4135380000000 1.0
C      1  0.4756310000000  0.5010980000000  0.3902380000000 1.0
C      1  0.5552360000000  0.5288170000000  0.5130110000000 1.0
C      1  0.5164380000000  0.5020410000000  0.6094370000000 1.0
C      1  0.4843020000000  0.3928590000000  0.5279410000000 1.0
C      1  0.4580020000000  0.5038540000000  0.4452780000000 1.0
C      1  0.5410650000000  0.4273150000000  0.5745350000000 1.0
C      1  0.4627700000000  0.4818690000000  0.4644550000000 1.0
C      1  0.5070370000000  0.5002420000000  0.5657190000000 1.0
C      1  0.3889590000000  0.4680210000000  0.5156380000000 1.0
C      1  0.4926970000000  0.5544960000000  0.4110070000000 1.0
C      1  0.5103660000000  0.3900680000000  0.5151230000000 1.0
C      1  0.4055730000000  0.5622410000000  0.4979620000000 1.0
C      1  0.5785940000000  0.5673470000000  0.5063900000000 1.0
C      1  0.5421960000000  0.4699220000000  0.4402750000000 1.0
C      1  0.4133580000000  0.4633630000000  0.4738000000000 1.0
C      1  0.5293530000000  0.4214900000000  0.4457180000000 1.0
C      1  0.4568780000000  0.5168850000000  0.5974980000000 1.0
C      1  0.4256980000000  0.5545540000000  0.5448620000000 1.0
C      1  0.4186460000000  0.4190290000000  0.4859110000000 1.0
C      1  0.3945520000000  0.4790200000000  0.4895960000000 1.0
C      1  0.5882700000000  0.5224520000000  0.4455590000000 1.0
C      1  0.4833280000000  0.5433540000000  0.4626900000000 1.0
C      1  0.4100350000000  0.5875830000000  0.5146570000000 1.0
C      1  0.5355430000000  0.4114670000000  0.4721620000000 1.0
C      1  0.4906840000000  0.4334740000000  0.5339690000000 1.0
C      1  0.4919930000000  0.5865770000000  0.4849380000000 1.0
C      1  0.5764940000000  0.4785380000000  0.4197320000000 1.0
C      1  0.5437470000000  0.4956870000000  0.6026060000000 1.0
C      1  0.4017800000000  0.5105110000000  0.4566750000000 1.0
C      1  0.3967270000000  0.5363800000000  0.5072850000000 1.0
C      1  0.4511800000000  0.5712310000000  0.4145250000000 1.0
C      1  0.4750540000000  0.4468420000000  0.5127490000000 1.0
C      1  0.4983090000000  0.5556530000000  0.5204630000000 1.0
C      1  0.4389090000000  0.4061500000000  0.4690730000000 1.0
C      1  0.5554350000000  0.4926850000000  0.3994310000000 1.0
C      1  0.5775840000000  0.5442600000000  0.4001540000000 1.0
C      1  0.4181740000000  0.5032710000000  0.5744570000000 1.0
C      1  0.4489330000000  0.4204990000000  0.4444430000000 1.0
C      1  0.4810380000000  0.6199100000000  0.5188600000000 1.0
C      1  0.5021990000000  0.4235330000000  0.4304530000000 1.0
C      1  0.6060530000000  0.4557190000000  0.5211780000000 1.0
C      1  0.4441700000000  0.5436640000000  0.5961660000000 1.0
C      1  0.4520670000000  0.5409640000000  0.5046520000000 1.0
C      1  0.3984300000000  0.5106660000000  0.5539560000000 1.0
C      1  0.5884980000000  0.5149760000000  0.5761790000000 1.0
C      1  0.5152190000000  0.4788750000000  0.4355550000000 1.0
C      1  0.4766670000000  0.4164640000000  0.4385210000000 1.0
C      1  0.4865690000000  0.5416780000000  0.5624840000000 1.0
C      1  0.4643560000000  0.5454870000000  0.4036880000000 1.0
C      1  0.4161520000000  0.5584020000000  0.4496410000000 1.0
C      1  0.5699240000000  0.5781320000000  0.4662110000000 1.0
C      1  0.4602410000000  0.3941650000000  0.5126540000000 1.0
C      1  0.5223480000000  0.5525320000000  0.5341230000000 1.0
C      1  0.5987790000000  0.4743260000000  0.5689970000000 1.0
C      1  0.4236240000000  0.4913370000000  0.5239500000000 1.0
C      1  0.3992330000000  0.4419820000000  0.5266780000000 1.0
C      1  0.4661080000000  0.4781950000000  0.4019900000000 1.0
C      1  0.5882650000000  0.5595070000000  0.4801990000000 1.0
C      1  0.5701900000000  0.5377310000000  0.5738360000000 1.0
C      1  0.5101750000000  0.5151900000000  0.5138440000000 1.0
C      1  0.5321940000000  0.5252730000000  0.5302820000000 1.0
C      1  0.5661750000000  0.5192850000000  0.3920480000000 1.0
C      1  0.4866960000000  0.4096050000000  0.4776590000000 1.0
C      1  0.4935100000000  0.5833320000000  0.4516620000000 1.0
C      1  0.4760720000000  0.4559460000000  0.4627120000000 1.0
C      1  0.4275250000000  0.5183070000000  0.5975630000000 1.0
C      1  0.5318060000000  0.5609420000000  0.4834380000000 1.0
C      1  0.5455140000000  0.5225540000000  0.5849350000000 1.0
C      1  0.4159710000000  0.4499810000000  0.5490150000000 1.0
C      1  0.4765220000000  0.5589020000000  0.5411860000000 1.0
C      1  0.5457010000000  0.5807890000000  0.5518680000000 1.0
C      1  0.5095510000000  0.5386280000000  0.3904820000000 1.0
C      1  0.5133180000000  0.4006280000000  0.4874950000000 1.0
C      1  0.5605640000000  0.4727560000000  0.5954260000000 1.0
C      1  0.5721100000000  0.4657830000000  0.4829730000000 1.0
C      1  0.5460710000000  0.4422710000000  0.4329330000000 1.0
C      1  0.5331290000000  0.4681960000000  0.5466810000000 1.0
C      1  0.4769080000000  0.5912600000000  0.5485260000000 1.0
C      1  0.5000560000000  0.6058450000000  0.5362690000000 1.0
C      1  0.5490590000000  0.5160430000000  0.4135030000000 1.0
C      1  0.4995380000000  0.4771590000000  0.6098040000000 1.0
C      1  0.5018600000000  0.5560200000000  0.4420750000000 1.0
C      1  0.5888980000000  0.4933790000000  0.4402120000000 1.0
C      1  0.4019120000000  0.5096660000000  0.4874930000000 1.0
C      1  0.5094290000000  0.6094300000000  0.4535450000000 1.0
C      1  0.5646130000000  0.4144850000000  0.4840790000000 1.0
C      1  0.5293410000000  0.5966730000000  0.5310670000000 1.0
C      1  0.3968170000000  0.4927130000000  0.5307210000000 1.0
C      1  0.4483710000000  0.4149770000000  0.5520970000000 1.0
C      1  0.4113120000000  0.4178810000000  0.5141800000000 1.0
C      1  0.5900460000000  0.4367260000000  0.5323210000000 1.0
C      1  0.5888970000000  0.5575550000000  0.5334140000000 1.0
C      1  0.5576650000000  0.3971030000000  0.5212420000000 1.0
C      1  0.4850610000000  0.4804230000000  0.5106300000000 1.0
C      1  0.4413130000000  0.4466770000000  0.4332510000000 1.0
C      1  0.5757220000000  0.4161380000000  0.5129620000000 1.0
C      1  0.5433080000000  0.5034610000000  0.4790270000000 1.0
C      1  0.4308270000000  0.4458120000000  0.4898510000000 1.0
C      1  0.4625670000000  0.4538300000000  0.4131020000000 1.0
C      1  0.4509930000000  0.5473400000000  0.5326650000000 1.0
C      1  0.5170170000000  0.5120960000000  0.4863140000000 1.0
C      1  0.5657620000000  0.5168630000000  0.4897180000000 1.0
C      1  0.5337310000000  0.5097860000000  0.5573220000000 1.0
C      1  0.4775720000000  0.4144230000000  0.5533790000000 1.0
C      1  0.4670780000000  0.5008780000000  0.5755160000000 1.0
C      1  0.4731910000000  0.4640380000000  0.6082490000000 1.0
C      1  0.5507700000000  0.4891110000000  0.5481440000000 1.0
C      1  0.5331800000000  0.4169670000000  0.5479780000000 1.0
C      1  0.5233920000000  0.4877980000000  0.3920860000000 1.0
C      1  0.5848080000000  0.4881660000000  0.5905870000000 1.0
C      1  0.5103990000000  0.4715420000000  0.5650230000000 1.0
C      1  0.4543260000000  0.5185210000000  0.3999340000000 1.0
C      1  0.4361940000000  0.5513970000000  0.5712090000000 1.0
C      1  0.5998350000000  0.5015410000000  0.5285970000000 1.0
C      1  0.4567370000000  0.6106730000000  0.5019480000000 1.0
C      1  0.5334020000000  0.5515400000000  0.4488550000000 1.0
C      1  0.4641040000000  0.5867190000000  0.4883980000000 1.0
C      1  0.5135160000000  0.4594620000000  0.5913040000000 1.0
C      1  0.5054070000000  0.5094670000000  0.3879260000000 1.0
C      1  0.5732850000000  0.4498040000000  0.4245120000000 1.0
C      1  0.4007080000000  0.5332860000000  0.5353050000000 1.0
C      1  0.5132720000000  0.5081690000000  0.4421040000000 1.0
C      1  0.5621810000000  0.4684570000000  0.5094920000000 1.0
C      1  0.5792940000000  0.5456760000000  0.4292690000000 1.0
C      1  0.5334840000000  0.6042610000000  0.5018930000000 1.0
C      1  0.4423700000000  0.4402160000000  0.5921140000000 1.0
C      1  0.4474670000000  0.4687910000000  0.5948430000000 1.0
C      1  0.5115580000000  0.4658660000000  0.4060090000000 1.0
C      1  0.5599700000000  0.5633330000000  0.4428270000000 1.0
C      1  0.4267240000000  0.6110690000000  0.5068170000000 1.0
C      1  0.5217680000000  0.5668650000000  0.5603120000000 1.0
C      1  0.4302760000000  0.4312860000000  0.5666710000000 1.0
C      1  0.5184210000000  0.4338670000000  0.5314080000000 1.0
C      1  0.4699080000000  0.4913930000000  0.4893770000000 1.0
C      1  0.4398360000000  0.4144220000000  0.5250420000000 1.0
C      1  0.5513700000000  0.5560050000000  0.5066020000000 1.0
C      1  0.6119940000000  0.4784240000000  0.4868900000000 1.0
C      1  0.4011910000000  0.5362910000000  0.4428980000000 1.0
C      1  0.5313330000000  0.4572290000000  0.5204630000000 1.0
C      1  0.4361540000000  0.5133130000000  0.4247700000000 1.0
C      1  0.5606780000000  0.5640670000000  0.3844550000000 1.0
C      1  0.5942050000000  0.4764920000000  0.4666270000000 1.0
C      1  0.5856390000000  0.5309650000000  0.4732990000000 1.0
C      1  0.5117990000000  0.6114790000000  0.4825470000000 1.0
C      1  0.4288030000000  0.5071840000000  0.5022810000000 1.0
C      1  0.4589500000000  0.5278130000000  0.4602630000000 1.0
C      1  0.6025460000000  0.5326030000000  0.5308880000000 1.0
C      1  0.6052680000000  0.5006640000000  0.5568590000000 1.0
C      1  0.4355430000000  0.4699550000000  0.5375100000000 1.0
C      1  0.5116460000000  0.4703330000000  0.5038460000000 1.0
C      1  0.4611940000000  0.3947370000000  0.4836930000000 1.0
C      1  0.4247090000000  0.5630130000000  0.4758900000000 1.0
C      1  0.4456970000000  0.4471970000000  0.5158980000000 1.0
C      1  0.5804120000000  0.4222500000000  0.4640560000000 1.0
C      1  0.5457730000000  0.4763220000000  0.4684020000000 1.0
C      1  0.4487020000000  0.5991550000000  0.5482090000000 1.0
C      1  0.4544860000000  0.5156200000000  0.4911370000000 1.0
C      1  0.5329980000000  0.5532440000000  0.3826190000000 1.0
C      1  0.4228050000000  0.5862890000000  0.5406420000000 1.0
C      1  0.4996090000000  0.5187560000000  0.4648770000000 1.0
C      1  0.4155060000000  0.4930490000000  0.4384020000000 1.0
C      1  0.5154420000000  0.4298270000000  0.5889130000000 1.0
C      1  0.5841950000000  0.4503370000000  0.5587840000000 1.0
C      1  0.5937450000000  0.4314800000000  0.4408080000000 1.0
C      1  0.5048270000000  0.5634670000000  0.4951710000000 1.0
C      1  0.5028530000000  0.4634160000000  0.4570300000000 1.0
C      1  0.5071170000000  0.5491750000000  0.5802280000000 1.0
C      1  0.5197830000000  0.4656940000000  0.4780660000000 1.0
C      1  0.4252210000000  0.5420640000000  0.4284530000000 1.0
C      1  0.5455200000000  0.5878200000000  0.4805380000000 1.0
C      1  0.4529850000000  0.5609360000000  0.4831620000000 1.0
C      1  0.5196600000000  0.5299280000000  0.5984440000000 1.0
C      1  0.5613820000000  0.4482610000000  0.5771440000000 1.0
C      1  0.4219530000000  0.4655420000000  0.4451080000000 1.0
C      1  0.5333540000000  0.5250900000000  0.4352180000000 1.0
C      1  0.5704430000000  0.4879500000000  0.5272750000000 1.0
C      1  0.4423630000000  0.4852630000000  0.5692980000000 1.0
C      1  0.4888070000000  0.4204410000000  0.5822330000000 1.0
END
