TITL C-883731-9874-290 195.959097720611 125000 -27970.2352465106 0 0 190 (C1) n - 1
REM
REM in /home/nfs/bkarasulu/CARBON/AIRSS/Generating-Clusters/ReaxFF-fromJPCA2015/Units_Real/with-SteepDescent/Only-C1/SD-CG/Try1-3A/FIRE-CG
REM
REM
REM
REM
REM
REM ./C.cell (11c1c37f851c82e70ff6c80c92926a4b)
REM
REM compiler GCC version 9.2.1 20190827 (Red Hat 9.2.1-1)
REM options -cpp -mtune=generic -march=x86-64 -g -O0 -fpre-include=/usr/include/finclude/math-vector-fortran.h
REM seed 1600309077 -1302671340 -644027924 -1149699058 1825439030 791569250 1486382298 429532172 1338960672 953298728 -1543590609 122597919 737528850 -524532841 1267585270 153793728 -1456259383 1145696351 1693108076 -1296505114 391198277 -990409001 678809961 -1630117624 -1431576282 -303917935 -303008781 -1752662236 -1364952072 -1991609165 -1564427564 2026885881 753979966
REM
CELL 1.54180   50.00000   50.00000   50.00000   90.00000   90.00000   90.00000
LATT -1
SFAC C  
C      1  0.4650500000000  0.4768640000000  0.5101890000000 1.0
C      1  0.4479560000000  0.5495720000000  0.5791770000000 1.0
C      1  0.6014140000000  0.5144510000000  0.4788500000000 1.0
C      1  0.5273280000000  0.4070910000000  0.5745470000000 1.0
C      1  0.4644670000000  0.5316130000000  0.5974110000000 1.0
C      1  0.5668430000000  0.5745290000000  0.5468460000000 1.0
C      1  0.4880440000000  0.4093260000000  0.4802730000000 1.0
C      1  0.5956830000000  0.5449410000000  0.5192860000000 1.0
C      1  0.4542530000000  0.6083450000000  0.5282140000000 1.0
C      1  0.5363940000000  0.4710170000000  0.5359990000000 1.0
C      1  0.4621130000000  0.4141080000000  0.4365340000000 1.0
C      1  0.4454060000000  0.4256750000000  0.4592610000000 1.0
C      1  0.4215480000000  0.5893660000000  0.4902720000000 1.0
C      1  0.5351820000000  0.6056660000000  0.5195230000000 1.0
C      1  0.6019790000000  0.5188920000000  0.5075500000000 1.0
C      1  0.4936890000000  0.5532400000000  0.4448290000000 1.0
C      1  0.5863310000000  0.5278490000000  0.4319380000000 1.0
C      1  0.5372630000000  0.4097970000000  0.5140600000000 1.0
C      1  0.4044310000000  0.4885160000000  0.5551820000000 1.0
C      1  0.4580220000000  0.5915500000000  0.4518770000000 1.0
C      1  0.4877400000000  0.5636610000000  0.4056190000000 1.0
C      1  0.4269080000000  0.4939460000000  0.4170020000000 1.0
C      1  0.4236570000000  0.4509820000000  0.4163360000000 1.0
C      1  0.5096110000000  0.5175160000000  0.5126290000000 1.0
C      1  0.4683540000000  0.4580990000000  0.4512100000000 1.0
C      1  0.4705460000000  0.5554550000000  0.4876700000000 1.0
C      1  0.4873140000000  0.4258800000000  0.4234290000000 1.0
C      1  0.4360430000000  0.4368450000000  0.5173020000000 1.0
C      1  0.5462190000000  0.5421240000000  0.4267570000000 1.0
C      1  0.5423930000000  0.5551710000000  0.5879180000000 1.0
C      1  0.5603660000000  0.5764520000000  0.4994960000000 1.0
C      1  0.5731560000000  0.5764100000000  0.4594670000000 1.0
C      1  0.5747770000000  0.4668480000000  0.5820160000000 1.0
C      1  0.4955370000000  0.4475420000000  0.4481030000000 1.0
C      1  0.4807560000000  0.4922860000000  0.4816040000000 1.0
C      1  0.5081930000000  0.4248500000000  0.5898370000000 1.0
C      1  0.4839320000000  0.5726430000000  0.5785500000000 1.0
C      1  0.5401540000000  0.4640240000000  0.6144410000000 1.0
C      1  0.5857410000000  0.4962360000000  0.5183460000000 1.0
C      1  0.4821580000000  0.5792420000000  0.4310850000000 1.0
C      1  0.5627920000000  0.4824910000000  0.6040830000000 1.0
C      1  0.4887240000000  0.4766660000000  0.5290160000000 1.0
C      1  0.5950150000000  0.4472940000000  0.5239150000000 1.0
C      1  0.5486950000000  0.4465080000000  0.4282910000000 1.0
C      1  0.4395450000000  0.4114880000000  0.4842950000000 1.0
C      1  0.4114810000000  0.4677630000000  0.4629020000000 1.0
C      1  0.4368110000000  0.4980080000000  0.5799500000000 1.0
C      1  0.4581870000000  0.4603400000000  0.3948410000000 1.0
C      1  0.4447120000000  0.5404290000000  0.4168530000000 1.0
C      1  0.4833260000000  0.5687160000000  0.5106480000000 1.0
C      1  0.3767800000000  0.5164920000000  0.5102960000000 1.0
C      1  0.4268180000000  0.4883140000000  0.4761760000000 1.0
C      1  0.4107420000000  0.5355290000000  0.4466390000000 1.0
C      1  0.5371330000000  0.4475720000000  0.5515760000000 1.0
C      1  0.5521530000000  0.4625830000000  0.4028350000000 1.0
C      1  0.3858070000000  0.4935830000000  0.4981050000000 1.0
C      1  0.5382540000000  0.4208980000000  0.4371690000000 1.0
C      1  0.5274200000000  0.5967040000000  0.4529190000000 1.0
C      1  0.5165620000000  0.5125330000000  0.4449010000000 1.0
C      1  0.4677110000000  0.5401700000000  0.3998110000000 1.0
C      1  0.5286220000000  0.5105740000000  0.4949700000000 1.0
C      1  0.4024560000000  0.4615660000000  0.5708780000000 1.0
C      1  0.5226270000000  0.4445750000000  0.6040350000000 1.0
C      1  0.5938760000000  0.4795530000000  0.5641940000000 1.0
C      1  0.5568440000000  0.5112240000000  0.6029330000000 1.0
C      1  0.5324280000000  0.5146570000000  0.5644980000000 1.0
C      1  0.5651160000000  0.5367170000000  0.5911460000000 1.0
C      1  0.4942420000000  0.4960860000000  0.3919540000000 1.0
C      1  0.5647340000000  0.4030570000000  0.5218410000000 1.0
C      1  0.5708180000000  0.5468690000000  0.4170620000000 1.0
C      1  0.5983040000000  0.4251920000000  0.5433870000000 1.0
C      1  0.5486880000000  0.5097680000000  0.5144990000000 1.0
C      1  0.4402120000000  0.5653190000000  0.5315660000000 1.0
C      1  0.5078310000000  0.4899970000000  0.4582250000000 1.0
C      1  0.5083130000000  0.4354510000000  0.4724540000000 1.0
C      1  0.5365570000000  0.5319630000000  0.4524360000000 1.0
C      1  0.5321120000000  0.4883090000000  0.4735120000000 1.0
C      1  0.5834440000000  0.4923220000000  0.4710050000000 1.0
C      1  0.4823070000000  0.5013640000000  0.5464740000000 1.0
C      1  0.4212590000000  0.4422340000000  0.5608120000000 1.0
C      1  0.5833930000000  0.4407180000000  0.4939070000000 1.0
C      1  0.4962900000000  0.5499550000000  0.5687450000000 1.0
C      1  0.5960940000000  0.5089850000000  0.5645040000000 1.0
C      1  0.4328640000000  0.5272220000000  0.4924300000000 1.0
C      1  0.5949990000000  0.4533220000000  0.4482470000000 1.0
C      1  0.5863730000000  0.5359400000000  0.5710720000000 1.0
C      1  0.5241800000000  0.4247580000000  0.5358940000000 1.0
C      1  0.4661640000000  0.5498370000000  0.5282670000000 1.0
C      1  0.4853000000000  0.5304730000000  0.5472210000000 1.0
C      1  0.3967610000000  0.5538790000000  0.5160960000000 1.0
C      1  0.5997320000000  0.5336110000000  0.4567550000000 1.0
C      1  0.4627810000000  0.4848840000000  0.4423990000000 1.0
C      1  0.5642220000000  0.4492050000000  0.4533360000000 1.0
C      1  0.5073270000000  0.4707250000000  0.4366930000000 1.0
C      1  0.5560120000000  0.4153510000000  0.5721390000000 1.0
C      1  0.5572320000000  0.4445470000000  0.5728690000000 1.0
C      1  0.4324720000000  0.5282350000000  0.4642870000000 1.0
C      1  0.5935910000000  0.4827730000000  0.4451740000000 1.0
C      1  0.5381630000000  0.5110620000000  0.3937680000000 1.0
C      1  0.3685130000000  0.5420170000000  0.5217620000000 1.0
C      1  0.5129410000000  0.4067960000000  0.4309640000000 1.0
C      1  0.5104040000000  0.5190060000000  0.3976940000000 1.0
C      1  0.5324010000000  0.5400730000000  0.5514860000000 1.0
C      1  0.4998690000000  0.4719850000000  0.4091580000000 1.0
C      1  0.4437730000000  0.4852140000000  0.5284830000000 1.0
C      1  0.4936610000000  0.6118820000000  0.4878210000000 1.0
C      1  0.4662850000000  0.4528630000000  0.5901720000000 1.0
C      1  0.5483010000000  0.5009370000000  0.5432130000000 1.0
C      1  0.5410410000000  0.5674060000000  0.5606580000000 1.0
C      1  0.5128370000000  0.5391050000000  0.5309270000000 1.0
C      1  0.5459370000000  0.4116810000000  0.4862150000000 1.0
C      1  0.5151310000000  0.4007530000000  0.5489540000000 1.0
C      1  0.4495030000000  0.4886480000000  0.3993020000000 1.0
C      1  0.4566000000000  0.4914130000000  0.5543790000000 1.0
C      1  0.5285210000000  0.4579280000000  0.4891390000000 1.0
C      1  0.4104890000000  0.5620330000000  0.4606300000000 1.0
C      1  0.5098950000000  0.5919980000000  0.4287840000000 1.0
C      1  0.4726170000000  0.3941240000000  0.4544240000000 1.0
C      1  0.4154780000000  0.4709260000000  0.4332740000000 1.0
C      1  0.4318940000000  0.5827940000000  0.4627780000000 1.0
C      1  0.5854660000000  0.5608920000000  0.4969360000000 1.0
C      1  0.4704620000000  0.4260760000000  0.5498740000000 1.0
C      1  0.4540340000000  0.4483640000000  0.4733240000000 1.0
C      1  0.4759200000000  0.6018100000000  0.4685970000000 1.0
C      1  0.5155080000000  0.5729890000000  0.4080300000000 1.0
C      1  0.4690500000000  0.5106280000000  0.3925730000000 1.0
C      1  0.4178350000000  0.4266350000000  0.4966100000000 1.0
C      1  0.4240620000000  0.5396380000000  0.5646710000000 1.0
C      1  0.5482820000000  0.5681730000000  0.4179440000000 1.0
C      1  0.4161350000000  0.4794100000000  0.5296460000000 1.0
C      1  0.4971600000000  0.5245310000000  0.4277280000000 1.0
C      1  0.5174370000000  0.4680790000000  0.5149280000000 1.0
C      1  0.5958230000000  0.4730490000000  0.5352910000000 1.0
C      1  0.5190240000000  0.5896170000000  0.5386400000000 1.0
C      1  0.5765360000000  0.5089950000000  0.5429540000000 1.0
C      1  0.4548040000000  0.4523260000000  0.5013430000000 1.0
C      1  0.5125210000000  0.3835150000000  0.4489460000000 1.0
C      1  0.5238890000000  0.6122060000000  0.4913450000000 1.0
C      1  0.4532980000000  0.5046250000000  0.6025460000000 1.0
C      1  0.5742860000000  0.4080820000000  0.5493930000000 1.0
C      1  0.5056110000000  0.3845260000000  0.4795090000000 1.0
C      1  0.4220730000000  0.5231440000000  0.4216530000000 1.0
C      1  0.4037740000000  0.4506110000000  0.4861090000000 1.0
C      1  0.5134490000000  0.5485600000000  0.5926240000000 1.0
C      1  0.4739860000000  0.4042440000000  0.5271110000000 1.0
C      1  0.5944140000000  0.5605160000000  0.4685130000000 1.0
C      1  0.5579800000000  0.4913450000000  0.4044420000000 1.0
C      1  0.4156970000000  0.5525210000000  0.5392120000000 1.0
C      1  0.4134380000000  0.5055520000000  0.4950950000000 1.0
C      1  0.4572150000000  0.5780280000000  0.5741180000000 1.0
C      1  0.5126650000000  0.5659910000000  0.5174780000000 1.0
C      1  0.4958110000000  0.3858690000000  0.5307000000000 1.0
C      1  0.4658870000000  0.4655610000000  0.5646790000000 1.0
C      1  0.4545100000000  0.4940170000000  0.4685430000000 1.0
C      1  0.4363960000000  0.4371150000000  0.3946480000000 1.0
C      1  0.4807510000000  0.4299340000000  0.5804190000000 1.0
C      1  0.4029890000000  0.5669760000000  0.4897100000000 1.0
C      1  0.4553170000000  0.5331330000000  0.4468000000000 1.0
C      1  0.5573600000000  0.4528470000000  0.4810500000000 1.0
C      1  0.5204610000000  0.5772130000000  0.4723090000000 1.0
C      1  0.4878020000000  0.5154750000000  0.4969220000000 1.0
C      1  0.4923640000000  0.5339940000000  0.6070860000000 1.0
C      1  0.4834690000000  0.4488550000000  0.4039080000000 1.0
C      1  0.5534620000000  0.5868780000000  0.4431280000000 1.0
C      1  0.5322040000000  0.5678340000000  0.4951460000000 1.0
C      1  0.3978330000000  0.4687170000000  0.5082510000000 1.0
C      1  0.4660390000000  0.5998510000000  0.5538720000000 1.0
C      1  0.6068760000000  0.4425680000000  0.4717120000000 1.0
C      1  0.5093640000000  0.5100680000000  0.6099910000000 1.0
C      1  0.4822640000000  0.4532920000000  0.5462110000000 1.0
C      1  0.5738900000000  0.4117500000000  0.4950830000000 1.0
C      1  0.4343770000000  0.5903280000000  0.5171670000000 1.0
C      1  0.5610710000000  0.5921830000000  0.5241170000000 1.0
C      1  0.5305200000000  0.4204230000000  0.4644640000000 1.0
C      1  0.5166180000000  0.5531390000000  0.4610280000000 1.0
C      1  0.4932660000000  0.6032370000000  0.5425360000000 1.0
C      1  0.5571410000000  0.4984950000000  0.4602420000000 1.0
C      1  0.5326860000000  0.5065840000000  0.5913870000000 1.0
C      1  0.4910600000000  0.4896380000000  0.6104160000000 1.0
C      1  0.4617200000000  0.5315290000000  0.5039520000000 1.0
C      1  0.5860490000000  0.5528280000000  0.5465100000000 1.0
C      1  0.4809270000000  0.6019680000000  0.5146520000000 1.0
C      1  0.5734170000000  0.5000630000000  0.4308140000000 1.0
C      1  0.4393740000000  0.4285570000000  0.5457890000000 1.0
C      1  0.5062420000000  0.3717440000000  0.5061480000000 1.0
C      1  0.4139680000000  0.5123570000000  0.5702540000000 1.0
C      1  0.4679240000000  0.4772840000000  0.6087980000000 1.0
C      1  0.4652050000000  0.4076660000000  0.4996230000000 1.0
C      1  0.4724720000000  0.5501960000000  0.4607400000000 1.0
C      1  0.4726350000000  0.5105970000000  0.4362550000000 1.0
END
