TITL C-883727-9645-414 -0.000142480132247094 125000 -2392.63068057167 0 0 18 (C1) n - 1
REM
REM in /home/nfs/bkarasulu/CARBON/AIRSS/Generating-Clusters/ReaxFF-fromJPCA2015/Units_Real/with-SteepDescent/Only-C1/SD-CG/Try1-3A/FIRE-CG
REM
REM
REM
REM
REM
REM ./C.cell (11c1c37f851c82e70ff6c80c92926a4b)
REM
REM compiler GCC version 9.2.1 20190827 (Red Hat 9.2.1-1)
REM options -cpp -mtune=generic -march=x86-64 -g -O0 -fpre-include=/usr/include/finclude/math-vector-fortran.h
REM seed 1821606021 -2015799043 -721415024 -808807247 -2025783625 -558640264 -1232829248 -1021396833 1761249709 1654416476 -785554114 2041251009 57484618 1074134447 -1027829048 885060993 202732425 -1328090015 -820696575 -1625025209 1215486235 348117797 -1043714412 -779773895 1994668260 439360406 574194983 907754914 1580815604 1077614864 -942459831 551887923 -336762804
REM
CELL 1.54180   50.00000   50.00000   50.00000   90.00000   90.00000   90.00000
LATT -1
SFAC C  
C      1  0.5514320000000  0.5231060000000  0.5033910000000 1.0
C      1  0.4174790000000  0.4502860000000  0.5601340000000 1.0
C      1  0.4409640000000  0.4635470000000  0.5294440000000 1.0
C      1  0.4922170000000  0.4965100000000  0.4638250000000 1.0
C      1  0.5259660000000  0.5389490000000  0.5057820000000 1.0
C      1  0.4551170000000  0.4830640000000  0.5226560000000 1.0
C      1  0.5193560000000  0.4975430000000  0.4526110000000 1.0
C      1  0.5045570000000  0.5221520000000  0.4599220000000 1.0
C      1  0.4316200000000  0.4692660000000  0.5528180000000 1.0
C      1  0.5533780000000  0.4949440000000  0.5150710000000 1.0
C      1  0.5467820000000  0.4929530000000  0.4612740000000 1.0
C      1  0.5598520000000  0.4848280000000  0.4869460000000 1.0
C      1  0.5614230000000  0.5126730000000  0.4772970000000 1.0
C      1  0.5048270000000  0.5379140000000  0.4850340000000 1.0
C      1  0.4794240000000  0.4970140000000  0.4912570000000 1.0
C      1  0.5049860000000  0.5311480000000  0.5272810000000 1.0
C      1  0.4642140000000  0.4784580000000  0.5008280000000 1.0
C      1  0.4864060000000  0.5256440000000  0.5044290000000 1.0
END
