TITL C-884129-4740-12 480547.227767246 125000 -13354.9180431313 0 0 90 (C1) n - 1
REM
REM in /home/nfs/bkarasulu/CARBON/AIRSS/Generating-Clusters/ReaxFF-fromJPCA2015/Units_Real/with-SteepDescent/Only-C1/SD-CG/Try1-3A/FIRE-CG
REM
REM
REM
REM
REM
REM ./C.cell (11c1c37f851c82e70ff6c80c92926a4b)
REM
REM compiler GCC version 9.2.1 20190827 (Red Hat 9.2.1-1)
REM options -cpp -mtune=generic -march=x86-64 -g -O0 -fpre-include=/usr/include/finclude/math-vector-fortran.h
REM seed -1440243456 -831033374 -225730484 -2131942903 -617935674 -561273493 598183684 -887819094 -1840250983 -1785357096 83223307 -569168791 -1250262139 1087841869 -1503218965 -1910600984 -767505212 -1057879415 -1439400410 637266482 1197501810 -1798224638 -1689777968 605912097 -191268206 -1444105886 -74350981 1049243654 -679452355 -1308342275 -238874682 836831106 147268653
REM
CELL 1.54180   50.00000   50.00000   50.00000   90.00000   90.00000   90.00000
LATT -1
SFAC C  
C      1  0.5247820000000  0.4071780000000  0.5023250000000 1.0
C      1  0.5476520000000  0.5245450000000  0.4379780000000 1.0
C      1  0.5734890000000  0.4874470000000  0.4495250000000 1.0
C      1  0.5321300000000  0.4938890000000  0.5108270000000 1.0
C      1  0.4864260000000  0.5410800000000  0.5803570000000 1.0
C      1  0.4668580000000  0.5408280000000  0.4301250000000 1.0
C      1  0.5338000000000  0.5010010000000  0.4270620000000 1.0
C      1  0.5052590000000  0.5000770000000  0.5782450000000 1.0
C      1  0.5523240000000  0.4760920000000  0.5256690000000 1.0
C      1  0.4395550000000  0.5524470000000  0.4751610000000 1.0
C      1  0.5662240000000  0.4330350000000  0.4861010000000 1.0
C      1  0.4917920000000  0.5666190000000  0.5679110000000 1.0
C      1  0.4852840000000  0.4727840000000  0.5191300000000 1.0
C      1  0.5326140000000  0.4194930000000  0.5279730000000 1.0
C      1  0.5104020000000  0.4744390000000  0.4791030000000 1.0
C      1  0.4486110000000  0.5351370000000  0.4528760000000 1.0
C      1  0.4827110000000  0.5282150000000  0.5296410000000 1.0
C      1  0.4691640000000  0.4721140000000  0.4490730000000 1.0
C      1  0.4919670000000  0.4738480000000  0.4309730000000 1.0
C      1  0.5601750000000  0.5450730000000  0.4869760000000 1.0
C      1  0.5796430000000  0.4773970000000  0.5150890000000 1.0
C      1  0.5133300000000  0.5269010000000  0.5874720000000 1.0
C      1  0.5212840000000  0.4930390000000  0.5544410000000 1.0
C      1  0.5859920000000  0.5060250000000  0.5096590000000 1.0
C      1  0.4835120000000  0.5110310000000  0.5060310000000 1.0
C      1  0.4407360000000  0.4781170000000  0.4551410000000 1.0
C      1  0.4650630000000  0.5080280000000  0.5258400000000 1.0
C      1  0.5116780000000  0.4706650000000  0.5074480000000 1.0
C      1  0.4304430000000  0.5398260000000  0.5003500000000 1.0
C      1  0.5485860000000  0.5643220000000  0.5082350000000 1.0
C      1  0.5798970000000  0.4714690000000  0.4713240000000 1.0
C      1  0.4959330000000  0.4293520000000  0.4598640000000 1.0
C      1  0.5687420000000  0.5159500000000  0.4576480000000 1.0
C      1  0.4615100000000  0.4248140000000  0.5049110000000 1.0
C      1  0.4347300000000  0.4375240000000  0.5088800000000 1.0
C      1  0.5847080000000  0.4569300000000  0.4932560000000 1.0
C      1  0.5051170000000  0.4103930000000  0.4801450000000 1.0
C      1  0.4630420000000  0.5256720000000  0.5720250000000 1.0
C      1  0.5211870000000  0.4410740000000  0.5438670000000 1.0
C      1  0.4754130000000  0.4998560000000  0.5786510000000 1.0
C      1  0.4428490000000  0.4461860000000  0.5364040000000 1.0
C      1  0.4105320000000  0.4736060000000  0.5041680000000 1.0
C      1  0.4771050000000  0.4188790000000  0.4804020000000 1.0
C      1  0.4128590000000  0.4975740000000  0.5177020000000 1.0
C      1  0.4223830000000  0.4567060000000  0.4604340000000 1.0
C      1  0.4922880000000  0.4382280000000  0.5481140000000 1.0
C      1  0.5330200000000  0.5495440000000  0.4340530000000 1.0
C      1  0.4658340000000  0.4763590000000  0.4975890000000 1.0
C      1  0.5309150000000  0.5654820000000  0.4584100000000 1.0
C      1  0.5353400000000  0.5426180000000  0.4727960000000 1.0
C      1  0.5097640000000  0.5738550000000  0.4766970000000 1.0
C      1  0.4641380000000  0.4749810000000  0.5671730000000 1.0
C      1  0.4678590000000  0.4295020000000  0.5335350000000 1.0
C      1  0.5727000000000  0.5246870000000  0.5586140000000 1.0
C      1  0.4903510000000  0.5249840000000  0.4195360000000 1.0
C      1  0.4605430000000  0.5728860000000  0.4775000000000 1.0
C      1  0.4863600000000  0.5309600000000  0.4845220000000 1.0
C      1  0.5195910000000  0.5657080000000  0.5049670000000 1.0
C      1  0.5374800000000  0.4524160000000  0.4410480000000 1.0
C      1  0.5391230000000  0.5318280000000  0.5769570000000 1.0
C      1  0.4406940000000  0.4718390000000  0.5507890000000 1.0
C      1  0.5085810000000  0.5418880000000  0.5278060000000 1.0
C      1  0.4761800000000  0.5603370000000  0.4981240000000 1.0
C      1  0.5761030000000  0.5215570000000  0.4854460000000 1.0
C      1  0.4405580000000  0.5455300000000  0.5283950000000 1.0
C      1  0.4354430000000  0.4998200000000  0.5397930000000 1.0
C      1  0.5524100000000  0.4359830000000  0.4605040000000 1.0
C      1  0.5825420000000  0.5155520000000  0.5361340000000 1.0
C      1  0.5476590000000  0.5338200000000  0.5505700000000 1.0
C      1  0.4850140000000  0.5765890000000  0.4608060000000 1.0
C      1  0.5149700000000  0.5245630000000  0.4764200000000 1.0
C      1  0.4841060000000  0.5642860000000  0.4335340000000 1.0
C      1  0.4641110000000  0.5177070000000  0.4694860000000 1.0
C      1  0.5067660000000  0.5496660000000  0.4207650000000 1.0
C      1  0.4406950000000  0.5277070000000  0.5519520000000 1.0
C      1  0.5496760000000  0.4780250000000  0.4338390000000 1.0
C      1  0.5063210000000  0.5664120000000  0.5434620000000 1.0
C      1  0.5042000000000  0.4993530000000  0.4236400000000 1.0
C      1  0.4467840000000  0.4967570000000  0.4806380000000 1.0
C      1  0.4842380000000  0.4660970000000  0.5476720000000 1.0
C      1  0.4627560000000  0.5642170000000  0.5238400000000 1.0
C      1  0.4801550000000  0.5765770000000  0.5439900000000 1.0
C      1  0.5350190000000  0.4674510000000  0.5475550000000 1.0
C      1  0.5521080000000  0.4159980000000  0.5060390000000 1.0
C      1  0.5258060000000  0.4984460000000  0.4810540000000 1.0
C      1  0.4151410000000  0.4501670000000  0.4900320000000 1.0
C      1  0.5076100000000  0.4528010000000  0.4452230000000 1.0
C      1  0.4229980000000  0.5124960000000  0.4950930000000 1.0
C      1  0.5260690000000  0.5152510000000  0.5349480000000 1.0
C      1  0.4824890000000  0.4723910000000  0.4745230000000 1.0
END
