TITL C-883732-77-242 32.13779831415 125000 -16174.8825279177 0 0 109 (C1) n - 1
REM
REM in /home/nfs/bkarasulu/CARBON/AIRSS/Generating-Clusters/ReaxFF-fromJPCA2015/Units_Real/with-SteepDescent/Only-C1/SD-CG/Try1-3A/FIRE-CG
REM
REM
REM
REM
REM
REM ./C.cell (11c1c37f851c82e70ff6c80c92926a4b)
REM
REM compiler GCC version 9.2.1 20190827 (Red Hat 9.2.1-1)
REM options -cpp -mtune=generic -march=x86-64 -g -O0 -fpre-include=/usr/include/finclude/math-vector-fortran.h
REM seed 1314997210 168811230 1771223521 -911333771 -219645834 1142572650 1361952501 -403231363 1884280812 1752925634 983012436 -1314186216 -182263298 -532879783 -209239612 -249607626 402414843 -946413168 1121626303 1307591153 64723964 -1864472007 -276589257 1901902703 85878680 -1145280484 921677031 1192499049 93714103 -398093870 957652394 886605363 251100220
REM
CELL 1.54180   50.00000   50.00000   50.00000   90.00000   90.00000   90.00000
LATT -1
SFAC C  
C      1  0.4996490000000  0.4831490000000  0.5598210000000 1.0
C      1  0.5429020000000  0.5686990000000  0.4933880000000 1.0
C      1  0.4362090000000  0.4247910000000  0.4764520000000 1.0
C      1  0.5013880000000  0.5943890000000  0.5071890000000 1.0
C      1  0.5743830000000  0.4587280000000  0.4737640000000 1.0
C      1  0.5216600000000  0.4657990000000  0.5105810000000 1.0
C      1  0.5530970000000  0.5315250000000  0.5650020000000 1.0
C      1  0.4387670000000  0.5630730000000  0.5118500000000 1.0
C      1  0.4377010000000  0.4435270000000  0.4402230000000 1.0
C      1  0.4879900000000  0.5549100000000  0.4092500000000 1.0
C      1  0.4273030000000  0.4889500000000  0.5409330000000 1.0
C      1  0.4790820000000  0.4175360000000  0.4567640000000 1.0
C      1  0.4969670000000  0.5268240000000  0.4725220000000 1.0
C      1  0.5840460000000  0.5284540000000  0.4937360000000 1.0
C      1  0.4804330000000  0.5114360000000  0.5975030000000 1.0
C      1  0.4522970000000  0.4284090000000  0.5432800000000 1.0
C      1  0.4717000000000  0.5211450000000  0.4621070000000 1.0
C      1  0.4572430000000  0.5137300000000  0.5801880000000 1.0
C      1  0.4256440000000  0.5120610000000  0.5227070000000 1.0
C      1  0.5718310000000  0.4895870000000  0.5521790000000 1.0
C      1  0.5023050000000  0.4696900000000  0.4719360000000 1.0
C      1  0.4529280000000  0.5099110000000  0.4065840000000 1.0
C      1  0.4857700000000  0.5491930000000  0.5499890000000 1.0
C      1  0.5870350000000  0.4719810000000  0.4968240000000 1.0
C      1  0.5757150000000  0.4621280000000  0.5220770000000 1.0
C      1  0.5097580000000  0.5746940000000  0.4593090000000 1.0
C      1  0.5590070000000  0.5777470000000  0.5203920000000 1.0
C      1  0.5245810000000  0.4505270000000  0.4688360000000 1.0
C      1  0.5383500000000  0.5179250000000  0.4781650000000 1.0
C      1  0.4809820000000  0.5709400000000  0.4565560000000 1.0
C      1  0.5024880000000  0.4264960000000  0.5556450000000 1.0
C      1  0.4309130000000  0.5159550000000  0.4236080000000 1.0
C      1  0.5135800000000  0.4693880000000  0.5941040000000 1.0
C      1  0.5432740000000  0.5400800000000  0.4308200000000 1.0
C      1  0.4506510000000  0.4196490000000  0.4508980000000 1.0
C      1  0.4804430000000  0.5072940000000  0.4108530000000 1.0
C      1  0.4780890000000  0.4148860000000  0.4865660000000 1.0
C      1  0.4883540000000  0.5536000000000  0.5210750000000 1.0
C      1  0.5362160000000  0.4607920000000  0.5785890000000 1.0
C      1  0.5492710000000  0.5105730000000  0.5864060000000 1.0
C      1  0.4991170000000  0.5058130000000  0.5125150000000 1.0
C      1  0.4760550000000  0.5771240000000  0.5084200000000 1.0
C      1  0.5097230000000  0.4234050000000  0.5265800000000 1.0
C      1  0.5571200000000  0.5633670000000  0.4667090000000 1.0
C      1  0.4998430000000  0.4496650000000  0.5160220000000 1.0
C      1  0.5260850000000  0.5207800000000  0.4165010000000 1.0
C      1  0.5501100000000  0.4457410000000  0.4837980000000 1.0
C      1  0.4248210000000  0.4342980000000  0.5394820000000 1.0
C      1  0.4233090000000  0.4644580000000  0.5252180000000 1.0
C      1  0.5050140000000  0.5351040000000  0.5030110000000 1.0
C      1  0.5118550000000  0.5000350000000  0.5406300000000 1.0
C      1  0.5551230000000  0.4837390000000  0.5763430000000 1.0
C      1  0.4963680000000  0.4319660000000  0.4378210000000 1.0
C      1  0.5238930000000  0.4433520000000  0.4404620000000 1.0
C      1  0.4780320000000  0.4740040000000  0.4517290000000 1.0
C      1  0.5656650000000  0.5320720000000  0.5174880000000 1.0
C      1  0.5302320000000  0.4785380000000  0.5334600000000 1.0
C      1  0.4085230000000  0.4902710000000  0.4826890000000 1.0
C      1  0.5196610000000  0.5893140000000  0.5279160000000 1.0
C      1  0.4646710000000  0.5298100000000  0.5572640000000 1.0
C      1  0.4016940000000  0.4716810000000  0.5017110000000 1.0
C      1  0.4242030000000  0.4948590000000  0.4440220000000 1.0
C      1  0.5284990000000  0.4388570000000  0.5597930000000 1.0
C      1  0.4189160000000  0.5102590000000  0.4673910000000 1.0
C      1  0.4500140000000  0.4531660000000  0.5111240000000 1.0
C      1  0.4493860000000  0.4901990000000  0.5611820000000 1.0
C      1  0.5379560000000  0.4300900000000  0.5338400000000 1.0
C      1  0.5857880000000  0.4998810000000  0.4885270000000 1.0
C      1  0.4531860000000  0.4260220000000  0.5003140000000 1.0
C      1  0.4255580000000  0.4495030000000  0.4642020000000 1.0
C      1  0.5657860000000  0.4792710000000  0.4532900000000 1.0
C      1  0.4753800000000  0.4371030000000  0.5580170000000 1.0
C      1  0.4946480000000  0.4866580000000  0.5996860000000 1.0
C      1  0.4700760000000  0.4988440000000  0.5162440000000 1.0
C      1  0.5220530000000  0.4968000000000  0.4328000000000 1.0
C      1  0.5666770000000  0.5181940000000  0.5442230000000 1.0
C      1  0.5186630000000  0.5849990000000  0.4849570000000 1.0
C      1  0.5004710000000  0.5288480000000  0.4041570000000 1.0
C      1  0.4643970000000  0.5738270000000  0.4807930000000 1.0
C      1  0.5816380000000  0.5601180000000  0.5223450000000 1.0
C      1  0.5282640000000  0.5203300000000  0.6055920000000 1.0
C      1  0.4679390000000  0.5596670000000  0.4314980000000 1.0
C      1  0.5356380000000  0.5376950000000  0.5005070000000 1.0
C      1  0.5541930000000  0.4434730000000  0.5129140000000 1.0
C      1  0.5767230000000  0.5418920000000  0.4679900000000 1.0
C      1  0.4747400000000  0.4651800000000  0.5219070000000 1.0
C      1  0.5072440000000  0.5482040000000  0.5698550000000 1.0
C      1  0.4750030000000  0.4674080000000  0.5552500000000 1.0
C      1  0.4438470000000  0.5426060000000  0.4296720000000 1.0
C      1  0.5393610000000  0.5778090000000  0.5440410000000 1.0
C      1  0.5590950000000  0.4973870000000  0.4759300000000 1.0
C      1  0.4452250000000  0.5248590000000  0.4783750000000 1.0
C      1  0.4471850000000  0.5100920000000  0.5031030000000 1.0
C      1  0.5094330000000  0.4845330000000  0.4942510000000 1.0
C      1  0.4414380000000  0.4699650000000  0.4500950000000 1.0
C      1  0.5348960000000  0.5622480000000  0.4475730000000 1.0
C      1  0.5768760000000  0.5008120000000  0.4362720000000 1.0
C      1  0.4751460000000  0.5015430000000  0.4404050000000 1.0
C      1  0.5173580000000  0.5116860000000  0.4590400000000 1.0
C      1  0.5692240000000  0.5294230000000  0.4419830000000 1.0
C      1  0.4878280000000  0.4586600000000  0.4279030000000 1.0
C      1  0.4282230000000  0.5404850000000  0.5224600000000 1.0
C      1  0.5580160000000  0.4732640000000  0.5385960000000 1.0
C      1  0.5156980000000  0.4685840000000  0.4260930000000 1.0
C      1  0.4990580000000  0.4121990000000  0.5043320000000 1.0
C      1  0.5030580000000  0.5310370000000  0.5940900000000 1.0
C      1  0.5344500000000  0.5543130000000  0.5618000000000 1.0
C      1  0.4419160000000  0.5557710000000  0.4851710000000 1.0
C      1  0.4627090000000  0.5066710000000  0.5419570000000 1.0
END
