TITL C-883726-8501-438 -12.9531652927809 125000 -8773.54403026009 0 0 60 (C1) n - 1
REM
REM in /home/nfs/bkarasulu/CARBON/AIRSS/Generating-Clusters/ReaxFF-fromJPCA2015/Units_Real/with-SteepDescent/Only-C1/SD-CG/Try1-3A/FIRE-CG
REM
REM
REM
REM
REM
REM ./C.cell (11c1c37f851c82e70ff6c80c92926a4b)
REM
REM compiler GCC version 9.2.1 20190827 (Red Hat 9.2.1-1)
REM options -cpp -mtune=generic -march=x86-64 -g -O0 -fpre-include=/usr/include/finclude/math-vector-fortran.h
REM seed 949396395 -1079519546 -1693686912 -589537445 -285329021 2113139265 -1184642750 1906189353 1060541158 1563488664 2145454448 -1875247008 -746369756 869240413 -641308388 -982789324 1725390037 856863928 -206608228 1337071936 333527849 1175130904 -286056948 120217594 927277912 -844261017 -159056334 -2142499632 -640582045 -971121923 -1958885065 1195539447 -58470504
REM
CELL 1.54180   50.00000   50.00000   50.00000   90.00000   90.00000   90.00000
LATT -1
SFAC C  
C      1  0.4279050000000  0.5112840000000  0.5340890000000 1.0
C      1  0.4381090000000  0.5224380000000  0.4641420000000 1.0
C      1  0.4614190000000  0.5199320000000  0.4831030000000 1.0
C      1  0.4474350000000  0.5161190000000  0.4375720000000 1.0
C      1  0.4859970000000  0.4763320000000  0.5612600000000 1.0
C      1  0.4282260000000  0.5356310000000  0.5309700000000 1.0
C      1  0.5202570000000  0.4239020000000  0.4854970000000 1.0
C      1  0.4891480000000  0.5190940000000  0.4340890000000 1.0
C      1  0.4385270000000  0.4864060000000  0.5406500000000 1.0
C      1  0.4912160000000  0.5790710000000  0.5133090000000 1.0
C      1  0.4298750000000  0.4955950000000  0.4681080000000 1.0
C      1  0.5192360000000  0.4277000000000  0.5163340000000 1.0
C      1  0.5121090000000  0.5183910000000  0.5738360000000 1.0
C      1  0.4897630000000  0.4766210000000  0.4953350000000 1.0
C      1  0.4558890000000  0.4474980000000  0.5405930000000 1.0
C      1  0.4930690000000  0.5617640000000  0.4682150000000 1.0
C      1  0.4676160000000  0.5163660000000  0.4221080000000 1.0
C      1  0.4983890000000  0.5222410000000  0.5486840000000 1.0
C      1  0.5491120000000  0.5251030000000  0.4812760000000 1.0
C      1  0.4705930000000  0.5589120000000  0.5137450000000 1.0
C      1  0.5156600000000  0.4830930000000  0.4835290000000 1.0
C      1  0.5333810000000  0.5495230000000  0.5438710000000 1.0
C      1  0.4786040000000  0.5738340000000  0.4507630000000 1.0
C      1  0.5204090000000  0.5145380000000  0.4812040000000 1.0
C      1  0.5133930000000  0.5117460000000  0.5270620000000 1.0
C      1  0.5647680000000  0.5024720000000  0.4711090000000 1.0
C      1  0.5059070000000  0.4477150000000  0.4507410000000 1.0
C      1  0.5388990000000  0.5267100000000  0.4408540000000 1.0
C      1  0.4482340000000  0.4534260000000  0.4993110000000 1.0
C      1  0.4359380000000  0.4595640000000  0.5249520000000 1.0
C      1  0.5359580000000  0.4464700000000  0.4457780000000 1.0
C      1  0.5097700000000  0.5286570000000  0.5046460000000 1.0
C      1  0.5655810000000  0.4826620000000  0.4928450000000 1.0
C      1  0.5644830000000  0.4933450000000  0.5195550000000 1.0
C      1  0.4435290000000  0.4730960000000  0.4782400000000 1.0
C      1  0.5307090000000  0.5379720000000  0.5667740000000 1.0
C      1  0.5519090000000  0.5001170000000  0.4448170000000 1.0
C      1  0.4960670000000  0.4340320000000  0.4744260000000 1.0
C      1  0.4807750000000  0.5408240000000  0.4921740000000 1.0
C      1  0.5280620000000  0.5523320000000  0.5167850000000 1.0
C      1  0.5102950000000  0.4882410000000  0.5734810000000 1.0
C      1  0.5096500000000  0.4767510000000  0.4540840000000 1.0
C      1  0.5415030000000  0.5052890000000  0.5319880000000 1.0
C      1  0.4924620000000  0.4364890000000  0.5244640000000 1.0
C      1  0.5414030000000  0.4460600000000  0.5197030000000 1.0
C      1  0.5113880000000  0.5219950000000  0.4494760000000 1.0
C      1  0.4549290000000  0.5425350000000  0.5359540000000 1.0
C      1  0.5230460000000  0.5662090000000  0.4727810000000 1.0
C      1  0.5355200000000  0.4800210000000  0.5637330000000 1.0
C      1  0.4643180000000  0.4937300000000  0.5533620000000 1.0
C      1  0.5422270000000  0.4385550000000  0.4730560000000 1.0
C      1  0.5190560000000  0.5747930000000  0.5004500000000 1.0
C      1  0.4704690000000  0.5213920000000  0.5488990000000 1.0
C      1  0.4796800000000  0.4476230000000  0.4980730000000 1.0
C      1  0.5433270000000  0.4621110000000  0.4925640000000 1.0
C      1  0.4828700000000  0.4486120000000  0.5499400000000 1.0
C      1  0.5556620000000  0.4819740000000  0.5472250000000 1.0
C      1  0.4676800000000  0.4918440000000  0.4857350000000 1.0
C      1  0.5353140000000  0.4761120000000  0.4398520000000 1.0
C      1  0.5432730000000  0.5471370000000  0.4628290000000 1.0
END
