TITL C-884128-4793-175 -6.66871705342945 125000 -10957.6348344403 0 0 74 (C1) n - 1
REM
REM in /home/nfs/bkarasulu/CARBON/AIRSS/Generating-Clusters/ReaxFF-fromJPCA2015/Units_Real/with-SteepDescent/Only-C1/SD-CG/Try1-3A/FIRE-CG
REM
REM
REM
REM
REM
REM ./C.cell (11c1c37f851c82e70ff6c80c92926a4b)
REM
REM compiler GCC version 9.2.1 20190827 (Red Hat 9.2.1-1)
REM options -cpp -mtune=generic -march=x86-64 -g -O0 -fpre-include=/usr/include/finclude/math-vector-fortran.h
REM seed -1077302454 932441216 238070535 259245723 741982831 -1165329236 6275601 -1918786323 -1561394784 628493359 -1061848130 1399478006 -2016932903 1425667060 1097455071 -1212254571 453056577 2034166667 -295821664 887338452 -1304701144 -84563172 -777209510 1869167031 1132501298 723225239 -2130109604 -567394224 -411928219 -2138601033 1344914571 -1005525537 -737277096
REM
CELL 1.54180   50.00000   50.00000   50.00000   90.00000   90.00000   90.00000
LATT -1
SFAC C  
C      1  0.4543010000000  0.5254540000000  0.5560090000000 1.0
C      1  0.4156440000000  0.4988060000000  0.4889820000000 1.0
C      1  0.4835630000000  0.4883940000000  0.4973490000000 1.0
C      1  0.5245750000000  0.4989670000000  0.4270500000000 1.0
C      1  0.4665030000000  0.4391900000000  0.5211060000000 1.0
C      1  0.4226260000000  0.5453440000000  0.5002680000000 1.0
C      1  0.4907010000000  0.5536130000000  0.4408630000000 1.0
C      1  0.4924940000000  0.4527520000000  0.5512570000000 1.0
C      1  0.4673170000000  0.5365620000000  0.4342090000000 1.0
C      1  0.5195920000000  0.5498270000000  0.4428170000000 1.0
C      1  0.5256090000000  0.5593890000000  0.4967410000000 1.0
C      1  0.4936080000000  0.5315680000000  0.4830300000000 1.0
C      1  0.4511710000000  0.4838210000000  0.5503640000000 1.0
C      1  0.5400220000000  0.4219680000000  0.4909330000000 1.0
C      1  0.5176570000000  0.4262280000000  0.4403710000000 1.0
C      1  0.4614730000000  0.5016820000000  0.5706600000000 1.0
C      1  0.4453320000000  0.4616070000000  0.4782050000000 1.0
C      1  0.5339260000000  0.5369770000000  0.5308210000000 1.0
C      1  0.5242470000000  0.4907310000000  0.4787610000000 1.0
C      1  0.5104700000000  0.5204810000000  0.5267240000000 1.0
C      1  0.5579340000000  0.4792260000000  0.5103880000000 1.0
C      1  0.5594430000000  0.4850780000000  0.5838230000000 1.0
C      1  0.4206490000000  0.5181810000000  0.5111540000000 1.0
C      1  0.4364620000000  0.4844170000000  0.4662910000000 1.0
C      1  0.5474510000000  0.4618500000000  0.5521180000000 1.0
C      1  0.4967740000000  0.4935250000000  0.4189910000000 1.0
C      1  0.4378250000000  0.5560680000000  0.5199330000000 1.0
C      1  0.5107620000000  0.4876550000000  0.5671070000000 1.0
C      1  0.4705200000000  0.5071870000000  0.4295980000000 1.0
C      1  0.5191990000000  0.5610400000000  0.5382560000000 1.0
C      1  0.5673240000000  0.5059460000000  0.5173390000000 1.0
C      1  0.4698000000000  0.4290910000000  0.4712880000000 1.0
C      1  0.5577340000000  0.5196470000000  0.5421550000000 1.0
C      1  0.4983440000000  0.5031690000000  0.4768100000000 1.0
C      1  0.4536150000000  0.4394010000000  0.4922430000000 1.0
C      1  0.4897420000000  0.5029970000000  0.5818280000000 1.0
C      1  0.5215250000000  0.4523400000000  0.4259900000000 1.0
C      1  0.5183550000000  0.4399120000000  0.5014970000000 1.0
C      1  0.4776720000000  0.5767240000000  0.5108360000000 1.0
C      1  0.5502210000000  0.4998790000000  0.4700620000000 1.0
C      1  0.4877090000000  0.5573590000000  0.4698010000000 1.0
C      1  0.5077130000000  0.5730260000000  0.5142150000000 1.0
C      1  0.4973980000000  0.4648190000000  0.4120730000000 1.0
C      1  0.5088270000000  0.4936780000000  0.5380500000000 1.0
C      1  0.4667870000000  0.5079870000000  0.5104650000000 1.0
C      1  0.5637110000000  0.4389720000000  0.5003140000000 1.0
C      1  0.3953600000000  0.4886860000000  0.5009400000000 1.0
C      1  0.5506090000000  0.5273350000000  0.4602580000000 1.0
C      1  0.5271940000000  0.4716540000000  0.5001130000000 1.0
C      1  0.5384310000000  0.4741910000000  0.4341450000000 1.0
C      1  0.4986770000000  0.5521400000000  0.5598780000000 1.0
C      1  0.4665510000000  0.5715330000000  0.4849390000000 1.0
C      1  0.4444150000000  0.5456480000000  0.4512740000000 1.0
C      1  0.4592540000000  0.5688760000000  0.5326540000000 1.0
C      1  0.4992290000000  0.5278230000000  0.5734780000000 1.0
C      1  0.5340250000000  0.5502580000000  0.4709310000000 1.0
C      1  0.5033240000000  0.4758820000000  0.5152220000000 1.0
C      1  0.4938960000000  0.4295040000000  0.5147540000000 1.0
C      1  0.4692910000000  0.5505880000000  0.5546630000000 1.0
C      1  0.4538680000000  0.4960540000000  0.4475390000000 1.0
C      1  0.5863800000000  0.5341840000000  0.5422840000000 1.0
C      1  0.4865910000000  0.5291600000000  0.5112340000000 1.0
C      1  0.5304610000000  0.4218270000000  0.4643590000000 1.0
C      1  0.4658320000000  0.4582620000000  0.5440800000000 1.0
C      1  0.5345900000000  0.5258060000000  0.4355300000000 1.0
C      1  0.5607270000000  0.4557110000000  0.5265960000000 1.0
C      1  0.5958870000000  0.5179860000000  0.5194620000000 1.0
C      1  0.4408600000000  0.5580740000000  0.4774440000000 1.0
C      1  0.5633060000000  0.4542530000000  0.4764450000000 1.0
C      1  0.5560470000000  0.4899700000000  0.5595800000000 1.0
C      1  0.5585680000000  0.4743980000000  0.4568030000000 1.0
C      1  0.5179040000000  0.4590380000000  0.5620880000000 1.0
C      1  0.4894630000000  0.4212580000000  0.4525910000000 1.0
C      1  0.4449370000000  0.5073650000000  0.5315720000000 1.0
END
