TITL C-883728-9229-436 0.754589954281465 125000 -2287.01703117764 0 0 17 (C1) n - 1
REM
REM in /home/nfs/bkarasulu/CARBON/AIRSS/Generating-Clusters/ReaxFF-fromJPCA2015/Units_Real/with-SteepDescent/Only-C1/SD-CG/Try1-3A/FIRE-CG
REM
REM
REM
REM
REM
REM ./C.cell (11c1c37f851c82e70ff6c80c92926a4b)
REM
REM compiler GCC version 9.2.1 20190827 (Red Hat 9.2.1-1)
REM options -cpp -mtune=generic -march=x86-64 -g -O0 -fpre-include=/usr/include/finclude/math-vector-fortran.h
REM seed -945132865 1433971078 -1202197894 830689523 -982300205 2116579563 930161804 -1020966093 371434462 643074397 -1081376042 -1801453033 -160160745 51004891 -1121193256 244290963 -1080901571 -569836101 -943768622 -1530676365 1676317277 -1402775064 813591279 7549765 1240940466 -537857127 2125576817 1789238234 1553962847 -740250302 -166000050 -958428123 1167620028
REM
CELL 1.54180   50.00000   50.00000   50.00000   90.00000   90.00000   90.00000
LATT -1
SFAC C  
C      1  0.5071220000000  0.5534520000000  0.5750950000000 1.0
C      1  0.4550180000000  0.4830200000000  0.4806310000000 1.0
C      1  0.5340840000000  0.5319510000000  0.5213590000000 1.0
C      1  0.4587240000000  0.4619740000000  0.4995200000000 1.0
C      1  0.4519290000000  0.4787870000000  0.4490700000000 1.0
C      1  0.5176570000000  0.5251080000000  0.4819070000000 1.0
C      1  0.5024700000000  0.4837330000000  0.4545230000000 1.0
C      1  0.5218980000000  0.4864560000000  0.5451060000000 1.0
C      1  0.4793300000000  0.4969840000000  0.4902730000000 1.0
C      1  0.5073370000000  0.4772760000000  0.5239490000000 1.0
C      1  0.5182590000000  0.5382540000000  0.5595610000000 1.0
C      1  0.4978350000000  0.5095740000000  0.4712210000000 1.0
C      1  0.5096320000000  0.4638970000000  0.4730550000000 1.0
C      1  0.5394830000000  0.5422130000000  0.4936740000000 1.0
C      1  0.4773770000000  0.4780560000000  0.4362220000000 1.0
C      1  0.5295840000000  0.5185040000000  0.5444340000000 1.0
C      1  0.4922620000000  0.4707630000000  0.5004000000000 1.0
END
