TITL C-883741-3679-218 1.55821518996864 125000 -19339.2489835672 0 0 130 (C1) n - 1
REM
REM in /home/nfs/bkarasulu/CARBON/AIRSS/Generating-Clusters/ReaxFF-fromJPCA2015/Units_Real/with-SteepDescent/Only-C1/SD-CG/Try1-3A/FIRE-CG
REM
REM
REM
REM
REM
REM ./C.cell (11c1c37f851c82e70ff6c80c92926a4b)
REM
REM compiler GCC version 9.2.1 20190827 (Red Hat 9.2.1-1)
REM options -cpp -mtune=generic -march=x86-64 -g -O0 -fpre-include=/usr/include/finclude/math-vector-fortran.h
REM seed -145119529 1391924580 1528005134 438314661 680569511 -715137054 373817668 -1179601259 250434007 1200862406 961216084 909252180 -1665941719 -545544194 -1013862288 1931466254 -1556017979 -99928666 1823146617 1030824239 -91286384 1701215502 -316106258 -1178598747 -723376675 1569800173 -1829825786 1612033148 -1573932763 -721598861 1721103765 -903176278 90003869
REM
CELL 1.54180   50.00000   50.00000   50.00000   90.00000   90.00000   90.00000
LATT -1
SFAC C  
C      1  0.5289160000000  0.4918030000000  0.5380410000000 1.0
C      1  0.3995250000000  0.4705630000000  0.5393460000000 1.0
C      1  0.5394420000000  0.5953600000000  0.4776850000000 1.0
C      1  0.5043260000000  0.5348240000000  0.4273040000000 1.0
C      1  0.5855660000000  0.5354180000000  0.5244260000000 1.0
C      1  0.5476430000000  0.6110860000000  0.5282490000000 1.0
C      1  0.3937910000000  0.5100200000000  0.5126860000000 1.0
C      1  0.5090990000000  0.4874040000000  0.4003590000000 1.0
C      1  0.4874900000000  0.5899240000000  0.5001770000000 1.0
C      1  0.5041760000000  0.4587900000000  0.5064820000000 1.0
C      1  0.5309760000000  0.5085090000000  0.4493910000000 1.0
C      1  0.4720530000000  0.5538120000000  0.4871500000000 1.0
C      1  0.5152410000000  0.4165670000000  0.4529570000000 1.0
C      1  0.5497780000000  0.5570010000000  0.5626490000000 1.0
C      1  0.5408620000000  0.3994820000000  0.5178770000000 1.0
C      1  0.4928710000000  0.4350510000000  0.5605470000000 1.0
C      1  0.5578630000000  0.4840160000000  0.5447180000000 1.0
C      1  0.4695340000000  0.4277550000000  0.5233210000000 1.0
C      1  0.5212490000000  0.5607490000000  0.5573720000000 1.0
C      1  0.4622550000000  0.4840740000000  0.5911970000000 1.0
C      1  0.5123560000000  0.4579430000000  0.4113750000000 1.0
C      1  0.5172430000000  0.4034680000000  0.5015470000000 1.0
C      1  0.4926160000000  0.4261820000000  0.5047210000000 1.0
C      1  0.5665240000000  0.4882380000000  0.5158190000000 1.0
C      1  0.5938740000000  0.5237270000000  0.4503220000000 1.0
C      1  0.4302980000000  0.4368630000000  0.4628470000000 1.0
C      1  0.5562720000000  0.5014660000000  0.4367790000000 1.0
C      1  0.5086470000000  0.5787670000000  0.5387880000000 1.0
C      1  0.4098440000000  0.4993850000000  0.4756150000000 1.0
C      1  0.5294590000000  0.6297230000000  0.5130900000000 1.0
C      1  0.4519690000000  0.4394150000000  0.5692010000000 1.0
C      1  0.5619360000000  0.4931130000000  0.4086180000000 1.0
C      1  0.5513130000000  0.4089150000000  0.5438480000000 1.0
C      1  0.4318610000000  0.4990970000000  0.4536030000000 1.0
C      1  0.4452120000000  0.4925380000000  0.4034140000000 1.0
C      1  0.4426960000000  0.4640850000000  0.5806940000000 1.0
C      1  0.5269230000000  0.5902170000000  0.5219320000000 1.0
C      1  0.5736620000000  0.4430960000000  0.5158850000000 1.0
C      1  0.4191740000000  0.5471000000000  0.4890350000000 1.0
C      1  0.4587990000000  0.5650670000000  0.5399670000000 1.0
C      1  0.5049880000000  0.4259400000000  0.5831290000000 1.0
C      1  0.4954330000000  0.5118350000000  0.4112330000000 1.0
C      1  0.4291750000000  0.5258320000000  0.5414670000000 1.0
C      1  0.4478200000000  0.4324890000000  0.5391850000000 1.0
C      1  0.5258710000000  0.5200080000000  0.5840770000000 1.0
C      1  0.5688610000000  0.5574230000000  0.4807370000000 1.0
C      1  0.4440040000000  0.5050520000000  0.5528090000000 1.0
C      1  0.4027020000000  0.5160280000000  0.5396280000000 1.0
C      1  0.5792830000000  0.5457790000000  0.4369350000000 1.0
C      1  0.5474870000000  0.4922610000000  0.4941160000000 1.0
C      1  0.5564530000000  0.4526960000000  0.4728990000000 1.0
C      1  0.5693690000000  0.5986070000000  0.5149420000000 1.0
C      1  0.5264730000000  0.5358180000000  0.4499480000000 1.0
C      1  0.4936780000000  0.4623700000000  0.5542500000000 1.0
C      1  0.4760010000000  0.4984750000000  0.5149360000000 1.0
C      1  0.5555050000000  0.5552460000000  0.4538080000000 1.0
C      1  0.5742560000000  0.5471650000000  0.5488140000000 1.0
C      1  0.4238760000000  0.4924190000000  0.4240140000000 1.0
C      1  0.5155690000000  0.4924650000000  0.5857160000000 1.0
C      1  0.4539920000000  0.4785660000000  0.4586020000000 1.0
C      1  0.5050000000000  0.4953970000000  0.4565980000000 1.0
C      1  0.4831270000000  0.4142460000000  0.4784480000000 1.0
C      1  0.5124400000000  0.4683080000000  0.5331650000000 1.0
C      1  0.5364650000000  0.4892590000000  0.3978340000000 1.0
C      1  0.4414190000000  0.4455930000000  0.4890870000000 1.0
C      1  0.5194850000000  0.5352780000000  0.4783540000000 1.0
C      1  0.5269070000000  0.4681840000000  0.5858070000000 1.0
C      1  0.4471470000000  0.5406880000000  0.4979870000000 1.0
C      1  0.4235780000000  0.5523900000000  0.4491920000000 1.0
C      1  0.5772280000000  0.5261320000000  0.5701060000000 1.0
C      1  0.4157530000000  0.5629370000000  0.4677210000000 1.0
C      1  0.4541880000000  0.5112680000000  0.5980940000000 1.0
C      1  0.4436070000000  0.5451110000000  0.5267530000000 1.0
C      1  0.5649400000000  0.5858210000000  0.4901450000000 1.0
C      1  0.4853090000000  0.5781770000000  0.4475640000000 1.0
C      1  0.5367110000000  0.4561760000000  0.4247310000000 1.0
C      1  0.5628250000000  0.4519930000000  0.5410500000000 1.0
C      1  0.5133610000000  0.4683920000000  0.4626850000000 1.0
C      1  0.5665290000000  0.4148180000000  0.5190900000000 1.0
C      1  0.5305720000000  0.4408650000000  0.5819140000000 1.0
C      1  0.4017570000000  0.4845130000000  0.4993610000000 1.0
C      1  0.4747320000000  0.5804450000000  0.4760900000000 1.0
C      1  0.4609020000000  0.4668340000000  0.4842100000000 1.0
C      1  0.5121610000000  0.5816650000000  0.4484190000000 1.0
C      1  0.5224860000000  0.5153240000000  0.5226500000000 1.0
C      1  0.5355820000000  0.5185690000000  0.4965090000000 1.0
C      1  0.4755890000000  0.4275670000000  0.5814520000000 1.0
C      1  0.4360010000000  0.4678790000000  0.4156010000000 1.0
C      1  0.5949070000000  0.4848590000000  0.4862460000000 1.0
C      1  0.5793050000000  0.4582740000000  0.4894260000000 1.0
C      1  0.4868590000000  0.4844850000000  0.5716490000000 1.0
C      1  0.4624150000000  0.5377260000000  0.5858090000000 1.0
C      1  0.4480020000000  0.4542990000000  0.4404590000000 1.0
C      1  0.4810130000000  0.4738410000000  0.5027300000000 1.0
C      1  0.5813230000000  0.5012960000000  0.5562630000000 1.0
C      1  0.5971800000000  0.5101990000000  0.5340370000000 1.0
C      1  0.5319530000000  0.4664580000000  0.4856060000000 1.0
C      1  0.5084680000000  0.5383210000000  0.5700870000000 1.0
C      1  0.4655150000000  0.4139900000000  0.4555820000000 1.0
C      1  0.4828030000000  0.5527280000000  0.4306100000000 1.0
C      1  0.4274890000000  0.4855480000000  0.5668650000000 1.0
C      1  0.5392070000000  0.5830560000000  0.4518070000000 1.0
C      1  0.4952460000000  0.5212790000000  0.5141550000000 1.0
C      1  0.4625260000000  0.5117740000000  0.4911690000000 1.0
C      1  0.4338330000000  0.4086480000000  0.4597140000000 1.0
C      1  0.5513060000000  0.5345670000000  0.5818370000000 1.0
C      1  0.4666780000000  0.5128040000000  0.4073590000000 1.0
C      1  0.4301670000000  0.4415090000000  0.5158270000000 1.0
C      1  0.4808180000000  0.5305540000000  0.5634520000000 1.0
C      1  0.4054920000000  0.4581960000000  0.5152360000000 1.0
C      1  0.3996060000000  0.4922060000000  0.5568540000000 1.0
C      1  0.4824100000000  0.5791000000000  0.5267390000000 1.0
C      1  0.5962730000000  0.4872080000000  0.5150650000000 1.0
C      1  0.4363870000000  0.5287800000000  0.4391720000000 1.0
C      1  0.4949810000000  0.5376830000000  0.4914460000000 1.0
C      1  0.4028140000000  0.5245140000000  0.4886640000000 1.0
C      1  0.5820340000000  0.5362900000000  0.4949620000000 1.0
C      1  0.5494550000000  0.4339790000000  0.5586290000000 1.0
C      1  0.5584230000000  0.4534540000000  0.4428370000000 1.0
C      1  0.5174980000000  0.6022240000000  0.4981230000000 1.0
C      1  0.5034010000000  0.4429440000000  0.4518170000000 1.0
C      1  0.4943800000000  0.4390160000000  0.4267520000000 1.0
C      1  0.5721370000000  0.4777020000000  0.4324010000000 1.0
C      1  0.4682670000000  0.4337110000000  0.4338500000000 1.0
C      1  0.5219850000000  0.4036740000000  0.4747060000000 1.0
C      1  0.4736430000000  0.5042470000000  0.5511790000000 1.0
C      1  0.4536100000000  0.5617040000000  0.5696420000000 1.0
C      1  0.4811000000000  0.5070460000000  0.4696860000000 1.0
C      1  0.5904090000000  0.5130000000000  0.4779090000000 1.0
C      1  0.4587530000000  0.5361960000000  0.4227450000000 1.0
END
