TITL C-883729-9652-485 -12.7591774880418 125000 -11176.1381429183 0 0 75 (C1) n - 1
REM
REM in /home/nfs/bkarasulu/CARBON/AIRSS/Generating-Clusters/ReaxFF-fromJPCA2015/Units_Real/with-SteepDescent/Only-C1/SD-CG/Try1-3A/FIRE-CG
REM
REM
REM
REM
REM
REM ./C.cell (11c1c37f851c82e70ff6c80c92926a4b)
REM
REM compiler GCC version 9.2.1 20190827 (Red Hat 9.2.1-1)
REM options -cpp -mtune=generic -march=x86-64 -g -O0 -fpre-include=/usr/include/finclude/math-vector-fortran.h
REM seed -1861927045 -1377439347 -184682564 -73797948 -277853967 313879064 1666124658 1503150396 -17474970 54059538 -90155654 395120333 1899471842 810261033 -1814055628 944748424 -1356115855 652640678 1168232278 -1311052437 -459529631 -315818449 -845831745 -982524536 -145608762 708297259 1883378779 -1070129546 -1581153365 -1020402753 1546868943 -1721314297 1694524034
REM
CELL 1.54180   50.00000   50.00000   50.00000   90.00000   90.00000   90.00000
LATT -1
SFAC C  
C      1  0.4626450000000  0.4417150000000  0.5095480000000 1.0
C      1  0.4759740000000  0.4842220000000  0.5691420000000 1.0
C      1  0.5496640000000  0.4498400000000  0.5269480000000 1.0
C      1  0.4598820000000  0.5586230000000  0.5479990000000 1.0
C      1  0.4299590000000  0.4781560000000  0.4807530000000 1.0
C      1  0.4567330000000  0.5662680000000  0.5008330000000 1.0
C      1  0.4697390000000  0.4919090000000  0.5067850000000 1.0
C      1  0.5662610000000  0.5477760000000  0.4937650000000 1.0
C      1  0.5096750000000  0.5566410000000  0.5076210000000 1.0
C      1  0.4681200000000  0.4399010000000  0.5386930000000 1.0
C      1  0.5543190000000  0.4969120000000  0.5460550000000 1.0
C      1  0.4386650000000  0.5418040000000  0.5369020000000 1.0
C      1  0.4949150000000  0.5309480000000  0.5785110000000 1.0
C      1  0.5051160000000  0.5491700000000  0.4421310000000 1.0
C      1  0.4707360000000  0.5735210000000  0.5258330000000 1.0
C      1  0.4281160000000  0.5300140000000  0.4877970000000 1.0
C      1  0.5428380000000  0.5258350000000  0.4554410000000 1.0
C      1  0.5630130000000  0.4593640000000  0.5037520000000 1.0
C      1  0.4798660000000  0.5145760000000  0.4921390000000 1.0
C      1  0.5759990000000  0.5008120000000  0.4772270000000 1.0
C      1  0.4928100000000  0.5619240000000  0.4631880000000 1.0
C      1  0.4938020000000  0.5095720000000  0.4672950000000 1.0
C      1  0.5194700000000  0.5683380000000  0.5447480000000 1.0
C      1  0.5003190000000  0.5777020000000  0.5258050000000 1.0
C      1  0.5104670000000  0.4155740000000  0.5033500000000 1.0
C      1  0.5206100000000  0.4683620000000  0.5669910000000 1.0
C      1  0.5216760000000  0.5078850000000  0.4724810000000 1.0
C      1  0.5260980000000  0.5356390000000  0.4302200000000 1.0
C      1  0.4654140000000  0.5566000000000  0.4745710000000 1.0
C      1  0.4812840000000  0.5084610000000  0.4376430000000 1.0
C      1  0.5027930000000  0.4731430000000  0.4132800000000 1.0
C      1  0.5444580000000  0.5488740000000  0.4752260000000 1.0
C      1  0.4341610000000  0.5493750000000  0.5089290000000 1.0
C      1  0.4818390000000  0.5436760000000  0.5608530000000 1.0
C      1  0.4963280000000  0.4837090000000  0.5169350000000 1.0
C      1  0.5475820000000  0.4435840000000  0.4847040000000 1.0
C      1  0.4443270000000  0.4834910000000  0.4556160000000 1.0
C      1  0.5700530000000  0.5061990000000  0.5237790000000 1.0
C      1  0.5304070000000  0.5455830000000  0.5534070000000 1.0
C      1  0.5321470000000  0.5168840000000  0.5514190000000 1.0
C      1  0.4718000000000  0.4557970000000  0.5640370000000 1.0
C      1  0.5042160000000  0.4909100000000  0.5770850000000 1.0
C      1  0.5261500000000  0.4877350000000  0.4225960000000 1.0
C      1  0.4415270000000  0.4949590000000  0.5178420000000 1.0
C      1  0.4478650000000  0.5343590000000  0.4665350000000 1.0
C      1  0.5603070000000  0.4907150000000  0.5002200000000 1.0
C      1  0.4915720000000  0.4391100000000  0.4937850000000 1.0
C      1  0.5755350000000  0.5320580000000  0.5156190000000 1.0
C      1  0.4539130000000  0.5106740000000  0.4501230000000 1.0
C      1  0.4972160000000  0.4368030000000  0.5374110000000 1.0
C      1  0.4581390000000  0.4311210000000  0.4526120000000 1.0
C      1  0.5433310000000  0.4699790000000  0.5482180000000 1.0
C      1  0.4233690000000  0.5022490000000  0.4960970000000 1.0
C      1  0.4409170000000  0.4547160000000  0.4969020000000 1.0
C      1  0.5321530000000  0.4546590000000  0.4618670000000 1.0
C      1  0.4648080000000  0.5048300000000  0.5525270000000 1.0
C      1  0.5040660000000  0.4555160000000  0.5151730000000 1.0
C      1  0.5594920000000  0.4996110000000  0.4539540000000 1.0
C      1  0.5004830000000  0.4472870000000  0.5647210000000 1.0
C      1  0.5370700000000  0.4270390000000  0.5080170000000 1.0
C      1  0.5154460000000  0.5165120000000  0.5768140000000 1.0
C      1  0.4966850000000  0.5279160000000  0.5148810000000 1.0
C      1  0.4834140000000  0.5251050000000  0.5413770000000 1.0
C      1  0.5112900000000  0.5128000000000  0.4216090000000 1.0
C      1  0.5300210000000  0.4986650000000  0.4978410000000 1.0
C      1  0.5423930000000  0.4772590000000  0.4454430000000 1.0
C      1  0.4870960000000  0.4228000000000  0.4547860000000 1.0
C      1  0.4794880000000  0.4843330000000  0.4224360000000 1.0
C      1  0.4850500000000  0.4594860000000  0.4340610000000 1.0
C      1  0.5849480000000  0.5253100000000  0.4906430000000 1.0
C      1  0.5185990000000  0.5615810000000  0.4803190000000 1.0
C      1  0.5030520000000  0.4480120000000  0.4617930000000 1.0
C      1  0.5154350000000  0.5056900000000  0.5202750000000 1.0
C      1  0.4391700000000  0.5126010000000  0.5412990000000 1.0
C      1  0.4557060000000  0.4592180000000  0.4427690000000 1.0
END
