TITL C-883729-9652-407 6.97154325167326 125000 -7010.38575187645 0 0 49 (C1) n - 1
REM
REM in /home/nfs/bkarasulu/CARBON/AIRSS/Generating-Clusters/ReaxFF-fromJPCA2015/Units_Real/with-SteepDescent/Only-C1/SD-CG/Try1-3A/FIRE-CG
REM
REM
REM
REM
REM
REM ./C.cell (11c1c37f851c82e70ff6c80c92926a4b)
REM
REM compiler GCC version 9.2.1 20190827 (Red Hat 9.2.1-1)
REM options -cpp -mtune=generic -march=x86-64 -g -O0 -fpre-include=/usr/include/finclude/math-vector-fortran.h
REM seed -1530288228 -1481646324 103864822 -2070538459 -631003001 -1376562419 2023800952 -534583919 346810236 1775182071 1350026170 1194167105 1548047492 -1798293813 1081182989 -120314761 -1497443894 1618340842 -1547987621 -738133489 2040926234 -1411925899 1489706488 1506249913 -509635483 751122460 -702899702 47315752 547319077 305620110 -677454067 1867145190 -1589917172
REM
CELL 1.54180   50.00000   50.00000   50.00000   90.00000   90.00000   90.00000
LATT -1
SFAC C  
C      1  0.4791280000000  0.4685860000000  0.4902430000000 1.0
C      1  0.5446020000000  0.4873700000000  0.4963880000000 1.0
C      1  0.5533710000000  0.4755390000000  0.4736530000000 1.0
C      1  0.4997820000000  0.5185290000000  0.5344030000000 1.0
C      1  0.5495500000000  0.4950320000000  0.4501350000000 1.0
C      1  0.5071010000000  0.4573530000000  0.4880870000000 1.0
C      1  0.5451300000000  0.5565610000000  0.4961230000000 1.0
C      1  0.4770570000000  0.5142520000000  0.4593690000000 1.0
C      1  0.5298430000000  0.5626150000000  0.5197250000000 1.0
C      1  0.5556830000000  0.4452460000000  0.5317630000000 1.0
C      1  0.4949500000000  0.4803170000000  0.5620550000000 1.0
C      1  0.5683520000000  0.4917670000000  0.5087760000000 1.0
C      1  0.5531340000000  0.5434260000000  0.5208610000000 1.0
C      1  0.4982740000000  0.5096110000000  0.4395500000000 1.0
C      1  0.4777450000000  0.4660040000000  0.5430250000000 1.0
C      1  0.4923890000000  0.4852210000000  0.4233090000000 1.0
C      1  0.5128560000000  0.5043470000000  0.5571720000000 1.0
C      1  0.4687650000000  0.4854800000000  0.4684020000000 1.0
C      1  0.5080920000000  0.5061750000000  0.5087030000000 1.0
C      1  0.5301360000000  0.4288210000000  0.5226150000000 1.0
C      1  0.5242290000000  0.5099340000000  0.4557010000000 1.0
C      1  0.5675870000000  0.4665830000000  0.5212720000000 1.0
C      1  0.5020490000000  0.5652030000000  0.5099350000000 1.0
C      1  0.5270410000000  0.4575290000000  0.5347410000000 1.0
C      1  0.5381390000000  0.5077210000000  0.5455470000000 1.0
C      1  0.5027280000000  0.4544120000000  0.5523100000000 1.0
C      1  0.4665040000000  0.4719400000000  0.5158220000000 1.0
C      1  0.4788170000000  0.5378100000000  0.5432350000000 1.0
C      1  0.5587110000000  0.5151530000000  0.5281960000000 1.0
C      1  0.5125720000000  0.4278510000000  0.5011920000000 1.0
C      1  0.4090380000000  0.5099260000000  0.4822730000000 1.0
C      1  0.5251130000000  0.4531780000000  0.4378300000000 1.0
C      1  0.5298540000000  0.4597430000000  0.4660670000000 1.0
C      1  0.5128760000000  0.4644500000000  0.4132910000000 1.0
C      1  0.5192230000000  0.4782050000000  0.5091960000000 1.0
C      1  0.4514170000000  0.5531980000000  0.5166410000000 1.0
C      1  0.4743960000000  0.4765100000000  0.4424120000000 1.0
C      1  0.5188180000000  0.5182520000000  0.4846250000000 1.0
C      1  0.4413090000000  0.5074490000000  0.5382710000000 1.0
C      1  0.4284230000000  0.4850140000000  0.5234240000000 1.0
C      1  0.5245520000000  0.5460260000000  0.4770730000000 1.0
C      1  0.4780170000000  0.5618520000000  0.5262570000000 1.0
C      1  0.4510660000000  0.4958180000000  0.5139630000000 1.0
C      1  0.4131410000000  0.4932510000000  0.5005690000000 1.0
C      1  0.4974240000000  0.5558370000000  0.4827050000000 1.0
C      1  0.4745080000000  0.5392430000000  0.4745590000000 1.0
C      1  0.4507780000000  0.5335990000000  0.5377990000000 1.0
C      1  0.4489730000000  0.5444200000000  0.4883290000000 1.0
C      1  0.4267560000000  0.5276400000000  0.4824100000000 1.0
END
