TITL C-883727-9645-391 12.4331604479172 125000 -13250.9185807557 0 0 91 (C1) n - 1
REM
REM in /home/nfs/bkarasulu/CARBON/AIRSS/Generating-Clusters/ReaxFF-fromJPCA2015/Units_Real/with-SteepDescent/Only-C1/SD-CG/Try1-3A/FIRE-CG
REM
REM
REM
REM
REM
REM ./C.cell (11c1c37f851c82e70ff6c80c92926a4b)
REM
REM compiler GCC version 9.2.1 20190827 (Red Hat 9.2.1-1)
REM options -cpp -mtune=generic -march=x86-64 -g -O0 -fpre-include=/usr/include/finclude/math-vector-fortran.h
REM seed -1385633668 -1650695619 -913478951 -656030709 771499659 733341946 -1125807359 -796925123 -19874805 273714368 971068013 1395859925 1604543639 1622744851 1617613862 1219474598 -297254024 1996077330 1057769552 469194056 -1402501777 -691818268 -1739595675 -1129298466 -2005986304 -911407967 1009684161 2029354778 1252199647 -822840294 134045305 -902972318 1013394826
REM
CELL 1.54180   50.00000   50.00000   50.00000   90.00000   90.00000   90.00000
LATT -1
SFAC C  
C      1  0.5111110000000  0.4856090000000  0.5503370000000 1.0
C      1  0.5067500000000  0.4667550000000  0.5302380000000 1.0
C      1  0.5571210000000  0.5458490000000  0.5501920000000 1.0
C      1  0.4850150000000  0.5642920000000  0.5559290000000 1.0
C      1  0.5218040000000  0.5246070000000  0.5289220000000 1.0
C      1  0.4573610000000  0.4480710000000  0.4518030000000 1.0
C      1  0.5081780000000  0.4933330000000  0.4639350000000 1.0
C      1  0.5609810000000  0.4254120000000  0.5253030000000 1.0
C      1  0.4837380000000  0.4131440000000  0.4843240000000 1.0
C      1  0.5466310000000  0.5666790000000  0.4798190000000 1.0
C      1  0.4928550000000  0.5897040000000  0.4526690000000 1.0
C      1  0.4112010000000  0.5067550000000  0.4915710000000 1.0
C      1  0.4639040000000  0.5154990000000  0.5183960000000 1.0
C      1  0.5442200000000  0.5164820000000  0.4840240000000 1.0
C      1  0.4665950000000  0.5123250000000  0.4150770000000 1.0
C      1  0.5690540000000  0.4777490000000  0.4688860000000 1.0
C      1  0.4828030000000  0.4898310000000  0.4025470000000 1.0
C      1  0.5380350000000  0.5381080000000  0.4400190000000 1.0
C      1  0.5502890000000  0.4417990000000  0.4671280000000 1.0
C      1  0.4366130000000  0.5461200000000  0.5490650000000 1.0
C      1  0.4904580000000  0.5215890000000  0.4287420000000 1.0
C      1  0.5658650000000  0.4697050000000  0.5218120000000 1.0
C      1  0.5336600000000  0.4809850000000  0.4249500000000 1.0
C      1  0.5083550000000  0.4185930000000  0.4664930000000 1.0
C      1  0.4187130000000  0.5028750000000  0.5215060000000 1.0
C      1  0.4905940000000  0.4996660000000  0.4883370000000 1.0
C      1  0.4653070000000  0.4249940000000  0.5018640000000 1.0
C      1  0.4649810000000  0.5834630000000  0.4512900000000 1.0
C      1  0.5715310000000  0.5232660000000  0.4751650000000 1.0
C      1  0.5068390000000  0.4344230000000  0.4426590000000 1.0
C      1  0.4186000000000  0.4844570000000  0.4742700000000 1.0
C      1  0.4961370000000  0.5590920000000  0.4608720000000 1.0
C      1  0.4718450000000  0.5213790000000  0.5456230000000 1.0
C      1  0.5134450000000  0.4867510000000  0.4053220000000 1.0
C      1  0.5740030000000  0.4963350000000  0.5234910000000 1.0
C      1  0.5331650000000  0.4232950000000  0.4812340000000 1.0
C      1  0.4796360000000  0.4722250000000  0.4249310000000 1.0
C      1  0.5332110000000  0.5841880000000  0.5274960000000 1.0
C      1  0.5585130000000  0.4503180000000  0.5425500000000 1.0
C      1  0.4609070000000  0.4683020000000  0.4731490000000 1.0
C      1  0.4623310000000  0.4538750000000  0.5619320000000 1.0
C      1  0.5318510000000  0.4443580000000  0.5570060000000 1.0
C      1  0.5837650000000  0.5163810000000  0.5043810000000 1.0
C      1  0.5047110000000  0.4773930000000  0.5042180000000 1.0
C      1  0.5161250000000  0.5293130000000  0.5685640000000 1.0
C      1  0.4724340000000  0.4786420000000  0.5955070000000 1.0
C      1  0.5729570000000  0.5007300000000  0.4548810000000 1.0
C      1  0.4452630000000  0.5672300000000  0.5305200000000 1.0
C      1  0.5088400000000  0.5421980000000  0.4399850000000 1.0
C      1  0.5176560000000  0.5085040000000  0.5895170000000 1.0
C      1  0.5465770000000  0.5058240000000  0.4382440000000 1.0
C      1  0.4748210000000  0.5756800000000  0.5309520000000 1.0
C      1  0.4638980000000  0.5440810000000  0.5611880000000 1.0
C      1  0.5240720000000  0.4632510000000  0.4904050000000 1.0
C      1  0.5027350000000  0.5137110000000  0.5491020000000 1.0
C      1  0.5382360000000  0.5849600000000  0.4985340000000 1.0
C      1  0.4351480000000  0.4980500000000  0.5608550000000 1.0
C      1  0.5326040000000  0.5216330000000  0.5086450000000 1.0
C      1  0.4814560000000  0.4446200000000  0.4335930000000 1.0
C      1  0.5261010000000  0.4824350000000  0.5748430000000 1.0
C      1  0.4869040000000  0.4950300000000  0.4444130000000 1.0
C      1  0.4408800000000  0.4711720000000  0.4929430000000 1.0
C      1  0.5314010000000  0.5063430000000  0.4624850000000 1.0
C      1  0.4223610000000  0.5179640000000  0.5464170000000 1.0
C      1  0.4489570000000  0.4783660000000  0.5746600000000 1.0
C      1  0.5181960000000  0.4390310000000  0.5318690000000 1.0
C      1  0.5164250000000  0.4667710000000  0.4645950000000 1.0
C      1  0.5113630000000  0.5565820000000  0.5641400000000 1.0
C      1  0.4471860000000  0.4435800000000  0.5110750000000 1.0
C      1  0.5358980000000  0.5651090000000  0.5504930000000 1.0
C      1  0.4447790000000  0.4930350000000  0.5140530000000 1.0
C      1  0.4340670000000  0.4615080000000  0.4434360000000 1.0
C      1  0.4856720000000  0.4561600000000  0.5814670000000 1.0
C      1  0.4825990000000  0.5252800000000  0.4981820000000 1.0
C      1  0.5151840000000  0.4553710000000  0.5786330000000 1.0
C      1  0.4939160000000  0.4964370000000  0.5971900000000 1.0
C      1  0.4240370000000  0.4880420000000  0.4449240000000 1.0
C      1  0.4691580000000  0.4949060000000  0.4674580000000 1.0
C      1  0.4266620000000  0.5285860000000  0.4774120000000 1.0
C      1  0.5854090000000  0.5361120000000  0.5239740000000 1.0
C      1  0.5314970000000  0.4535770000000  0.4429470000000 1.0
C      1  0.5733170000000  0.5235100000000  0.5453400000000 1.0
C      1  0.4878850000000  0.5731850000000  0.5059240000000 1.0
C      1  0.5342900000000  0.4238470000000  0.5115890000000 1.0
C      1  0.4881180000000  0.5513020000000  0.4879600000000 1.0
C      1  0.4432040000000  0.5101170000000  0.4329480000000 1.0
C      1  0.5581420000000  0.4610010000000  0.4894320000000 1.0
C      1  0.5549280000000  0.5486090000000  0.4613200000000 1.0
C      1  0.5097310000000  0.5886780000000  0.5119410000000 1.0
C      1  0.4488180000000  0.5192180000000  0.4598480000000 1.0
C      1  0.4574130000000  0.4446820000000  0.5361190000000 1.0
END
