TITL C-884129-4740-398 82.9873808220348 125000 -20569.9177511544 0 0 139 (C1) n - 1
REM
REM in /home/nfs/bkarasulu/CARBON/AIRSS/Generating-Clusters/ReaxFF-fromJPCA2015/Units_Real/with-SteepDescent/Only-C1/SD-CG/Try1-3A/FIRE-CG
REM
REM
REM
REM
REM
REM ./C.cell (11c1c37f851c82e70ff6c80c92926a4b)
REM
REM compiler GCC version 9.2.1 20190827 (Red Hat 9.2.1-1)
REM options -cpp -mtune=generic -march=x86-64 -g -O0 -fpre-include=/usr/include/finclude/math-vector-fortran.h
REM seed 243595448 156183162 940069255 1613487506 -1845822245 934967018 662658870 -887312574 1117328837 1430537168 2003039503 2094720191 -913764927 -743469137 408620249 -1801237368 1920443301 -2078029587 271412622 1296253974 1518476582 1555223860 -81085446 1874975721 2000176138 1866422467 1538421372 472343927 -1283685876 -1533170005 644723571 1387256910 435322298
REM
CELL 1.54180   50.00000   50.00000   50.00000   90.00000   90.00000   90.00000
LATT -1
SFAC C  
C      1  0.5761000000000  0.5249370000000  0.4556620000000 1.0
C      1  0.4797880000000  0.5450470000000  0.4890890000000 1.0
C      1  0.4877880000000  0.5093350000000  0.3892650000000 1.0
C      1  0.4925700000000  0.4691640000000  0.5148170000000 1.0
C      1  0.5132460000000  0.4898410000000  0.5913240000000 1.0
C      1  0.4321780000000  0.5421060000000  0.5649180000000 1.0
C      1  0.4515180000000  0.4909970000000  0.4145280000000 1.0
C      1  0.4716000000000  0.4262780000000  0.5221880000000 1.0
C      1  0.4986440000000  0.4479890000000  0.5648610000000 1.0
C      1  0.5468170000000  0.5423860000000  0.5005760000000 1.0
C      1  0.4430620000000  0.4421790000000  0.4376500000000 1.0
C      1  0.4471950000000  0.5197690000000  0.4139510000000 1.0
C      1  0.4439480000000  0.4748860000000  0.5156530000000 1.0
C      1  0.4306970000000  0.4749600000000  0.4616140000000 1.0
C      1  0.4898940000000  0.4206240000000  0.4406160000000 1.0
C      1  0.6001840000000  0.5411190000000  0.5150350000000 1.0
C      1  0.4584140000000  0.5556780000000  0.5655850000000 1.0
C      1  0.5815230000000  0.5627520000000  0.5201000000000 1.0
C      1  0.5166660000000  0.5429160000000  0.4526110000000 1.0
C      1  0.5359190000000  0.5555710000000  0.5789230000000 1.0
C      1  0.5622820000000  0.5617750000000  0.5418880000000 1.0
C      1  0.4499150000000  0.4977600000000  0.5332070000000 1.0
C      1  0.5768910000000  0.4692180000000  0.5329880000000 1.0
C      1  0.4346800000000  0.5152730000000  0.5765710000000 1.0
C      1  0.4993030000000  0.4904710000000  0.4994890000000 1.0
C      1  0.3920830000000  0.4962770000000  0.4862860000000 1.0
C      1  0.4729210000000  0.5482780000000  0.5410820000000 1.0
C      1  0.5889310000000  0.4993710000000  0.4632560000000 1.0
C      1  0.5483570000000  0.4612490000000  0.5774530000000 1.0
C      1  0.5273120000000  0.5133540000000  0.4581760000000 1.0
C      1  0.3960010000000  0.4811980000000  0.5119490000000 1.0
C      1  0.5848330000000  0.5165080000000  0.5211570000000 1.0
C      1  0.5573520000000  0.5414250000000  0.5645510000000 1.0
C      1  0.6121710000000  0.4850440000000  0.5011660000000 1.0
C      1  0.5136440000000  0.5764550000000  0.5421040000000 1.0
C      1  0.5312730000000  0.4370150000000  0.4231120000000 1.0
C      1  0.4430700000000  0.5758290000000  0.4736710000000 1.0
C      1  0.5396880000000  0.5020470000000  0.3905890000000 1.0
C      1  0.5503580000000  0.5215330000000  0.4371610000000 1.0
C      1  0.4701770000000  0.5301830000000  0.3988540000000 1.0
C      1  0.5361040000000  0.4980290000000  0.5430000000000 1.0
C      1  0.5196320000000  0.4535790000000  0.4688680000000 1.0
C      1  0.5176010000000  0.5443510000000  0.4055320000000 1.0
C      1  0.5226870000000  0.5342680000000  0.5156110000000 1.0
C      1  0.5321020000000  0.4366100000000  0.5158110000000 1.0
C      1  0.4694040000000  0.5207760000000  0.4751580000000 1.0
C      1  0.5419120000000  0.4497420000000  0.4503940000000 1.0
C      1  0.5510370000000  0.5118650000000  0.5650970000000 1.0
C      1  0.5078460000000  0.4888240000000  0.5466810000000 1.0
C      1  0.4795770000000  0.5268900000000  0.5993770000000 1.0
C      1  0.4912290000000  0.5409610000000  0.4392810000000 1.0
C      1  0.4221140000000  0.5703660000000  0.4945650000000 1.0
C      1  0.5573850000000  0.4368800000000  0.4990140000000 1.0
C      1  0.5471440000000  0.3932070000000  0.4865270000000 1.0
C      1  0.4632590000000  0.5076630000000  0.5799100000000 1.0
C      1  0.4050130000000  0.5477040000000  0.4914780000000 1.0
C      1  0.5503700000000  0.4834690000000  0.5211020000000 1.0
C      1  0.4442770000000  0.5543880000000  0.4533570000000 1.0
C      1  0.4311710000000  0.5361600000000  0.4327790000000 1.0
C      1  0.4552540000000  0.4786490000000  0.4868390000000 1.0
C      1  0.5162890000000  0.5361430000000  0.5683750000000 1.0
C      1  0.6106390000000  0.5064740000000  0.4808820000000 1.0
C      1  0.4098000000000  0.4963880000000  0.4628510000000 1.0
C      1  0.4929840000000  0.5785450000000  0.5847230000000 1.0
C      1  0.4426440000000  0.4656160000000  0.5733810000000 1.0
C      1  0.5014190000000  0.4370700000000  0.4181790000000 1.0
C      1  0.4613760000000  0.5858120000000  0.5171260000000 1.0
C      1  0.4766130000000  0.4831030000000  0.3991750000000 1.0
C      1  0.4929190000000  0.4695990000000  0.5854580000000 1.0
C      1  0.5452990000000  0.3874970000000  0.5147120000000 1.0
C      1  0.5039210000000  0.4965800000000  0.4521650000000 1.0
C      1  0.5559330000000  0.4696870000000  0.4249070000000 1.0
C      1  0.5416510000000  0.4903900000000  0.5839460000000 1.0
C      1  0.4296330000000  0.4377120000000  0.5279670000000 1.0
C      1  0.5422870000000  0.5045200000000  0.4871050000000 1.0
C      1  0.6055900000000  0.5355840000000  0.4861130000000 1.0
C      1  0.4321310000000  0.5198050000000  0.5249160000000 1.0
C      1  0.5190620000000  0.5782850000000  0.5716660000000 1.0
C      1  0.5059120000000  0.5182580000000  0.5904340000000 1.0
C      1  0.4654400000000  0.4777260000000  0.5862140000000 1.0
C      1  0.3936490000000  0.5246220000000  0.4886860000000 1.0
C      1  0.4347380000000  0.5714750000000  0.5206570000000 1.0
C      1  0.5972580000000  0.4610890000000  0.4913140000000 1.0
C      1  0.5653090000000  0.5645910000000  0.4935580000000 1.0
C      1  0.4418670000000  0.4716460000000  0.4335490000000 1.0
C      1  0.4728370000000  0.4347280000000  0.5495580000000 1.0
C      1  0.4747130000000  0.5002960000000  0.4963640000000 1.0
C      1  0.4223460000000  0.5203560000000  0.4550710000000 1.0
C      1  0.4984140000000  0.4712690000000  0.4651340000000 1.0
C      1  0.5135520000000  0.4348300000000  0.4912410000000 1.0
C      1  0.5010340000000  0.5588390000000  0.4774820000000 1.0
C      1  0.5977720000000  0.4908250000000  0.5253560000000 1.0
C      1  0.5429180000000  0.5794550000000  0.5296690000000 1.0
C      1  0.4849850000000  0.5542640000000  0.5974740000000 1.0
C      1  0.4178940000000  0.4614210000000  0.5148820000000 1.0
C      1  0.5105940000000  0.4615800000000  0.5373180000000 1.0
C      1  0.4893400000000  0.5486810000000  0.4116890000000 1.0
C      1  0.5055750000000  0.4026730000000  0.4830130000000 1.0
C      1  0.4824040000000  0.5882630000000  0.5370540000000 1.0
C      1  0.5344350000000  0.4117590000000  0.5310100000000 1.0
C      1  0.4818780000000  0.5230580000000  0.5287440000000 1.0
C      1  0.4413930000000  0.5317820000000  0.4715730000000 1.0
C      1  0.5343130000000  0.4135320000000  0.5611320000000 1.0
C      1  0.5152720000000  0.5196530000000  0.3891010000000 1.0
C      1  0.4283540000000  0.5469920000000  0.5361620000000 1.0
C      1  0.5508620000000  0.4488750000000  0.4035740000000 1.0
C      1  0.4647070000000  0.5415880000000  0.5137680000000 1.0
C      1  0.4654730000000  0.5875470000000  0.4880450000000 1.0
C      1  0.5811540000000  0.4473380000000  0.5109670000000 1.0
C      1  0.5524200000000  0.4971430000000  0.4167880000000 1.0
C      1  0.4830480000000  0.5156560000000  0.4492790000000 1.0
C      1  0.5534510000000  0.4796520000000  0.4927180000000 1.0
C      1  0.5208870000000  0.5060920000000  0.5062030000000 1.0
C      1  0.4894530000000  0.4601780000000  0.4081930000000 1.0
C      1  0.5769640000000  0.4753980000000  0.4759730000000 1.0
C      1  0.4222230000000  0.4883170000000  0.5725850000000 1.0
C      1  0.4765830000000  0.5015080000000  0.5480790000000 1.0
C      1  0.5337740000000  0.5449200000000  0.4291110000000 1.0
C      1  0.5724210000000  0.4596520000000  0.5629750000000 1.0
C      1  0.4746350000000  0.4587160000000  0.4762050000000 1.0
C      1  0.4069630000000  0.4927330000000  0.5497500000000 1.0
C      1  0.4863400000000  0.4445620000000  0.4996640000000 1.0
C      1  0.5264410000000  0.4391630000000  0.5734310000000 1.0
C      1  0.5558840000000  0.4303100000000  0.4696470000000 1.0
C      1  0.4945220000000  0.5873750000000  0.4784370000000 1.0
C      1  0.5448000000000  0.5877890000000  0.5018590000000 1.0
C      1  0.5199800000000  0.5924570000000  0.4895760000000 1.0
C      1  0.4468780000000  0.4246780000000  0.5076450000000 1.0
C      1  0.4463450000000  0.4442120000000  0.5534210000000 1.0
C      1  0.4471120000000  0.4278610000000  0.4772300000000 1.0
C      1  0.4716320000000  0.5825860000000  0.5630790000000 1.0
C      1  0.5828900000000  0.5470240000000  0.4720600000000 1.0
C      1  0.4028970000000  0.5063960000000  0.5261530000000 1.0
C      1  0.4274710000000  0.4441440000000  0.4625150000000 1.0
C      1  0.5422040000000  0.4058980000000  0.4619210000000 1.0
C      1  0.4628620000000  0.4243950000000  0.4507810000000 1.0
C      1  0.5106700000000  0.4046560000000  0.4549300000000 1.0
C      1  0.5634370000000  0.5199750000000  0.5014420000000 1.0
C      1  0.5141230000000  0.5455600000000  0.5408490000000 1.0
END
