TITL C-884137-4758-207 -3.04346546491877 125000 -6753.16582239496 0 0 46 (C1) n - 1
REM
REM in /home/nfs/bkarasulu/CARBON/AIRSS/Generating-Clusters/ReaxFF-fromJPCA2015/Units_Real/with-SteepDescent/Only-C1/SD-CG/Try1-3A/FIRE-CG
REM
REM
REM
REM
REM
REM ./C.cell (11c1c37f851c82e70ff6c80c92926a4b)
REM
REM compiler GCC version 9.2.1 20190827 (Red Hat 9.2.1-1)
REM options -cpp -mtune=generic -march=x86-64 -g -O0 -fpre-include=/usr/include/finclude/math-vector-fortran.h
REM seed -1747105059 882468997 -696215001 -775167880 830726985 -213136787 -750616746 689966342 -197542839 -742042809 482007415 1865033719 -318443175 1954386017 791846090 1022084798 1227097119 -994164377 -1923289043 -109558331 -812609149 1855042124 1343770057 117816912 1488214919 291612150 -944066205 -1962437130 -2074429597 264963525 -1550306516 -8907282 643528919
REM
CELL 1.54180   50.00000   50.00000   50.00000   90.00000   90.00000   90.00000
LATT -1
SFAC C  
C      1  0.4406320000000  0.4738510000000  0.5034480000000 1.0
C      1  0.5079830000000  0.4992260000000  0.5009870000000 1.0
C      1  0.5400190000000  0.5152140000000  0.4630320000000 1.0
C      1  0.4725140000000  0.4720260000000  0.4599430000000 1.0
C      1  0.5158940000000  0.5288640000000  0.4536370000000 1.0
C      1  0.5265580000000  0.5457760000000  0.4971500000000 1.0
C      1  0.5216030000000  0.4757780000000  0.4269800000000 1.0
C      1  0.5186510000000  0.4419900000000  0.4615380000000 1.0
C      1  0.4306990000000  0.5017120000000  0.5063120000000 1.0
C      1  0.5333670000000  0.4314890000000  0.4849600000000 1.0
C      1  0.5457230000000  0.5393460000000  0.5428920000000 1.0
C      1  0.4901120000000  0.4495120000000  0.4691690000000 1.0
C      1  0.4855580000000  0.4527440000000  0.5252270000000 1.0
C      1  0.4957560000000  0.5514650000000  0.5405240000000 1.0
C      1  0.4843870000000  0.5046890000000  0.5678200000000 1.0
C      1  0.5357220000000  0.4617440000000  0.4454630000000 1.0
C      1  0.5505810000000  0.5107940000000  0.5519690000000 1.0
C      1  0.4778510000000  0.5486270000000  0.4741410000000 1.0
C      1  0.4410140000000  0.5079770000000  0.4792240000000 1.0
C      1  0.4815510000000  0.5066190000000  0.5026060000000 1.0
C      1  0.5081340000000  0.5481750000000  0.4744190000000 1.0
C      1  0.5385510000000  0.4856880000000  0.4634830000000 1.0
C      1  0.5014300000000  0.4920160000000  0.4184400000000 1.0
C      1  0.4670810000000  0.5212400000000  0.4816060000000 1.0
C      1  0.4673430000000  0.4972650000000  0.5265820000000 1.0
C      1  0.4483190000000  0.4793130000000  0.4752840000000 1.0
C      1  0.5553450000000  0.4877420000000  0.5334450000000 1.0
C      1  0.4439340000000  0.5144040000000  0.5298810000000 1.0
C      1  0.5226400000000  0.5497160000000  0.5272030000000 1.0
C      1  0.5091140000000  0.4629230000000  0.5409440000000 1.0
C      1  0.5513850000000  0.5051040000000  0.5101180000000 1.0
C      1  0.5361030000000  0.4645760000000  0.5303160000000 1.0
C      1  0.5213250000000  0.5066170000000  0.5495250000000 1.0
C      1  0.5049600000000  0.4844800000000  0.5610980000000 1.0
C      1  0.4873310000000  0.4425570000000  0.4974380000000 1.0
C      1  0.5465290000000  0.5260450000000  0.4895240000000 1.0
C      1  0.5237600000000  0.5079150000000  0.5203500000000 1.0
C      1  0.4710190000000  0.5613200000000  0.5268040000000 1.0
C      1  0.5217640000000  0.4794250000000  0.4866670000000 1.0
C      1  0.4792060000000  0.5328270000000  0.5573430000000 1.0
C      1  0.4741050000000  0.5590540000000  0.4990450000000 1.0
C      1  0.4958510000000  0.5153160000000  0.4366860000000 1.0
C      1  0.5331780000000  0.4572120000000  0.5018090000000 1.0
C      1  0.4791050000000  0.4917150000000  0.4393480000000 1.0
C      1  0.4553940000000  0.5389540000000  0.5409610000000 1.0
C      1  0.4609190000000  0.4689570000000  0.5246640000000 1.0
END
