TITL C-883726-8501-298 25.61931492812 125000 -23349.3078503011 0 0 156 (C1) n - 1
REM
REM in /home/nfs/bkarasulu/CARBON/AIRSS/Generating-Clusters/ReaxFF-fromJPCA2015/Units_Real/with-SteepDescent/Only-C1/SD-CG/Try1-3A/FIRE-CG
REM
REM
REM
REM
REM
REM ./C.cell (11c1c37f851c82e70ff6c80c92926a4b)
REM
REM compiler GCC version 9.2.1 20190827 (Red Hat 9.2.1-1)
REM options -cpp -mtune=generic -march=x86-64 -g -O0 -fpre-include=/usr/include/finclude/math-vector-fortran.h
REM seed -1115597876 1603356511 -472220378 300640679 -15269895 1160639114 -565495722 1802548045 385863167 2136548052 600559207 -1470469497 -318794550 -1548143552 -289825295 335391613 -1616074813 -1032060007 1971607705 240313180 875986267 1680503690 -1815961607 451244061 -1172281155 40052184 1980751778 1780898210 -1150741867 4735800 940969085 636620932 929362861
REM
CELL 1.54180   50.00000   50.00000   50.00000   90.00000   90.00000   90.00000
LATT -1
SFAC C  
C      1  0.5199230000000  0.5906320000000  0.4805000000000 1.0
C      1  0.5764120000000  0.4955520000000  0.5552060000000 1.0
C      1  0.5597780000000  0.4571620000000  0.4953550000000 1.0
C      1  0.4719000000000  0.4349650000000  0.5465290000000 1.0
C      1  0.5847500000000  0.4647920000000  0.5584140000000 1.0
C      1  0.4094330000000  0.4968750000000  0.5708460000000 1.0
C      1  0.5016470000000  0.4874860000000  0.4657350000000 1.0
C      1  0.4425430000000  0.4427100000000  0.4219630000000 1.0
C      1  0.4199750000000  0.5207570000000  0.5393330000000 1.0
C      1  0.4497930000000  0.5747440000000  0.5422980000000 1.0
C      1  0.5944840000000  0.4552390000000  0.5329590000000 1.0
C      1  0.4035710000000  0.5029400000000  0.4710060000000 1.0
C      1  0.5765820000000  0.4307900000000  0.5362750000000 1.0
C      1  0.4508400000000  0.5882100000000  0.4937340000000 1.0
C      1  0.4522890000000  0.4618540000000  0.5050380000000 1.0
C      1  0.5664260000000  0.5793120000000  0.4898290000000 1.0
C      1  0.5498010000000  0.5286560000000  0.5882630000000 1.0
C      1  0.4936080000000  0.5324820000000  0.4489830000000 1.0
C      1  0.4309140000000  0.5146310000000  0.5817660000000 1.0
C      1  0.5202880000000  0.5572900000000  0.5591010000000 1.0
C      1  0.6027100000000  0.4815750000000  0.4871660000000 1.0
C      1  0.5339030000000  0.5020310000000  0.5223670000000 1.0
C      1  0.5440190000000  0.5731860000000  0.5642750000000 1.0
C      1  0.5174610000000  0.4563750000000  0.5587600000000 1.0
C      1  0.5326460000000  0.4437980000000  0.4680260000000 1.0
C      1  0.4621380000000  0.4991560000000  0.4506450000000 1.0
C      1  0.4673210000000  0.4329010000000  0.4141300000000 1.0
C      1  0.5346780000000  0.4278100000000  0.4263220000000 1.0
C      1  0.5410020000000  0.5348000000000  0.5177660000000 1.0
C      1  0.4675300000000  0.5500240000000  0.5794470000000 1.0
C      1  0.5112700000000  0.5608190000000  0.5862150000000 1.0
C      1  0.4070160000000  0.4724550000000  0.5279910000000 1.0
C      1  0.4903410000000  0.4995290000000  0.4419510000000 1.0
C      1  0.5128260000000  0.5471640000000  0.5070650000000 1.0
C      1  0.5563060000000  0.5363090000000  0.4916060000000 1.0
C      1  0.5334410000000  0.5575290000000  0.4319500000000 1.0
C      1  0.5781050000000  0.4390620000000  0.4809490000000 1.0
C      1  0.4238220000000  0.4596710000000  0.5068950000000 1.0
C      1  0.5396840000000  0.4013310000000  0.4695370000000 1.0
C      1  0.5412150000000  0.5772230000000  0.4487470000000 1.0
C      1  0.5043990000000  0.4816000000000  0.5975310000000 1.0
C      1  0.5829390000000  0.5556870000000  0.5293740000000 1.0
C      1  0.5463790000000  0.5868740000000  0.5382670000000 1.0
C      1  0.4678610000000  0.5104720000000  0.5241030000000 1.0
C      1  0.5963500000000  0.4601840000000  0.4688020000000 1.0
C      1  0.4110280000000  0.5471000000000  0.5317460000000 1.0
C      1  0.5189290000000  0.4481690000000  0.4110470000000 1.0
C      1  0.4071680000000  0.4747760000000  0.4627530000000 1.0
C      1  0.4859950000000  0.5263480000000  0.5764880000000 1.0
C      1  0.5024340000000  0.5127930000000  0.5967540000000 1.0
C      1  0.5549700000000  0.4796630000000  0.4038420000000 1.0
C      1  0.4971910000000  0.4159410000000  0.4955710000000 1.0
C      1  0.4905010000000  0.5376410000000  0.5277430000000 1.0
C      1  0.5988920000000  0.5078160000000  0.4736680000000 1.0
C      1  0.4593150000000  0.5584770000000  0.4982440000000 1.0
C      1  0.4906060000000  0.4651860000000  0.5783100000000 1.0
C      1  0.5435710000000  0.4432290000000  0.5140010000000 1.0
C      1  0.5672050000000  0.4414470000000  0.5616540000000 1.0
C      1  0.5385030000000  0.5366950000000  0.4698750000000 1.0
C      1  0.4814480000000  0.4894050000000  0.5351130000000 1.0
C      1  0.5634520000000  0.5042960000000  0.5830480000000 1.0
C      1  0.5947120000000  0.5049220000000  0.5310240000000 1.0
C      1  0.5492250000000  0.5378610000000  0.4449230000000 1.0
C      1  0.5486740000000  0.5079010000000  0.4081070000000 1.0
C      1  0.5909660000000  0.4743010000000  0.4435000000000 1.0
C      1  0.4865180000000  0.5724700000000  0.5749440000000 1.0
C      1  0.5646340000000  0.4700390000000  0.4305030000000 1.0
C      1  0.4980900000000  0.5239550000000  0.4074640000000 1.0
C      1  0.4348810000000  0.4695210000000  0.4165270000000 1.0
C      1  0.5173570000000  0.5891150000000  0.5327990000000 1.0
C      1  0.4674230000000  0.4131460000000  0.4354790000000 1.0
C      1  0.5602730000000  0.5413800000000  0.5402270000000 1.0
C      1  0.5369830000000  0.4971550000000  0.4943030000000 1.0
C      1  0.4758620000000  0.6044140000000  0.4820890000000 1.0
C      1  0.5064450000000  0.4883570000000  0.5235390000000 1.0
C      1  0.5267190000000  0.4729090000000  0.3993070000000 1.0
C      1  0.4686100000000  0.5584000000000  0.5249780000000 1.0
C      1  0.4735170000000  0.4618830000000  0.5271710000000 1.0
C      1  0.3927280000000  0.4964470000000  0.5204640000000 1.0
C      1  0.4416850000000  0.4249360000000  0.4453610000000 1.0
C      1  0.4324090000000  0.5702490000000  0.4486700000000 1.0
C      1  0.4889200000000  0.4520840000000  0.4211410000000 1.0
C      1  0.5457480000000  0.5872310000000  0.4718580000000 1.0
C      1  0.4032710000000  0.5430470000000  0.5027700000000 1.0
C      1  0.4099300000000  0.5226960000000  0.4474170000000 1.0
C      1  0.5518140000000  0.4796050000000  0.4790550000000 1.0
C      1  0.4462450000000  0.4151770000000  0.4947450000000 1.0
C      1  0.5991310000000  0.4805790000000  0.5166110000000 1.0
C      1  0.4833080000000  0.4810910000000  0.4206590000000 1.0
C      1  0.3979530000000  0.5133860000000  0.4970060000000 1.0
C      1  0.5109190000000  0.5333720000000  0.4751960000000 1.0
C      1  0.5272760000000  0.4638130000000  0.5983940000000 1.0
C      1  0.5136410000000  0.4626580000000  0.4575290000000 1.0
C      1  0.5521300000000  0.4333560000000  0.4490860000000 1.0
C      1  0.5149730000000  0.5060910000000  0.4800720000000 1.0
C      1  0.5205960000000  0.5046160000000  0.4029460000000 1.0
C      1  0.4712400000000  0.4274090000000  0.4858150000000 1.0
C      1  0.5977570000000  0.5333600000000  0.4894210000000 1.0
C      1  0.4649120000000  0.4560380000000  0.4794210000000 1.0
C      1  0.5592420000000  0.5118590000000  0.4371140000000 1.0
C      1  0.5671840000000  0.5786380000000  0.5190940000000 1.0
C      1  0.4393360000000  0.5429810000000  0.5748330000000 1.0
C      1  0.4933310000000  0.5900380000000  0.5510210000000 1.0
C      1  0.4624560000000  0.4711980000000  0.5733750000000 1.0
C      1  0.5780270000000  0.5535650000000  0.4820090000000 1.0
C      1  0.4115240000000  0.5011720000000  0.4296870000000 1.0
C      1  0.5013820000000  0.4617700000000  0.5137750000000 1.0
C      1  0.4390310000000  0.4554380000000  0.5627080000000 1.0
C      1  0.4462950000000  0.5100800000000  0.5439730000000 1.0
C      1  0.4847730000000  0.6183140000000  0.5062020000000 1.0
C      1  0.5025340000000  0.4040280000000  0.5211990000000 1.0
C      1  0.5965770000000  0.5311700000000  0.5188290000000 1.0
C      1  0.5560080000000  0.4165610000000  0.5171890000000 1.0
C      1  0.5507640000000  0.4907050000000  0.5420460000000 1.0
C      1  0.3943270000000  0.5078440000000  0.5481070000000 1.0
C      1  0.5222510000000  0.4215190000000  0.4821880000000 1.0
C      1  0.4941640000000  0.4163990000000  0.4482250000000 1.0
C      1  0.4762330000000  0.4085950000000  0.5340880000000 1.0
C      1  0.4913760000000  0.4453970000000  0.4511770000000 1.0
C      1  0.5297900000000  0.4066350000000  0.5329940000000 1.0
C      1  0.4949340000000  0.5928690000000  0.4631650000000 1.0
C      1  0.4499970000000  0.5971400000000  0.5237940000000 1.0
C      1  0.5038810000000  0.5502910000000  0.4278820000000 1.0
C      1  0.4132200000000  0.5619220000000  0.4856060000000 1.0
C      1  0.4572370000000  0.4891970000000  0.4106740000000 1.0
C      1  0.4152040000000  0.4521960000000  0.4795220000000 1.0
C      1  0.5366290000000  0.4787390000000  0.5619240000000 1.0
C      1  0.4870010000000  0.5761620000000  0.4401700000000 1.0
C      1  0.4327550000000  0.5410070000000  0.4441210000000 1.0
C      1  0.5497910000000  0.4793360000000  0.5888630000000 1.0
C      1  0.4587910000000  0.5288460000000  0.4541580000000 1.0
C      1  0.4478190000000  0.4108510000000  0.5239410000000 1.0
C      1  0.4529670000000  0.4993510000000  0.5700690000000 1.0
C      1  0.4307850000000  0.4281300000000  0.4725100000000 1.0
C      1  0.4620010000000  0.5083930000000  0.4957740000000 1.0
C      1  0.5035560000000  0.5342490000000  0.5540420000000 1.0
C      1  0.5378170000000  0.4386820000000  0.5746980000000 1.0
C      1  0.4692450000000  0.4867680000000  0.4769510000000 1.0
C      1  0.4701180000000  0.5156030000000  0.4023570000000 1.0
C      1  0.4259140000000  0.5826920000000  0.4754580000000 1.0
C      1  0.5878930000000  0.5028920000000  0.4475760000000 1.0
C      1  0.5139500000000  0.5762600000000  0.5065210000000 1.0
C      1  0.5298410000000  0.4125920000000  0.5617150000000 1.0
C      1  0.4105640000000  0.4737100000000  0.4324920000000 1.0
C      1  0.4150670000000  0.4717350000000  0.5568300000000 1.0
C      1  0.5201810000000  0.4482570000000  0.5300460000000 1.0
C      1  0.5626130000000  0.4138220000000  0.4833800000000 1.0
C      1  0.5217450000000  0.4070560000000  0.4435410000000 1.0
C      1  0.4432600000000  0.4302500000000  0.5478030000000 1.0
C      1  0.4578740000000  0.5331120000000  0.4845470000000 1.0
C      1  0.5479650000000  0.4833560000000  0.4499950000000 1.0
C      1  0.4275180000000  0.5587190000000  0.5529970000000 1.0
C      1  0.4606280000000  0.5733160000000  0.4438980000000 1.0
C      1  0.5586090000000  0.5483780000000  0.5684740000000 1.0
C      1  0.5212220000000  0.5344450000000  0.5977480000000 1.0
C      1  0.4758020000000  0.6071760000000  0.5335250000000 1.0
END
