TITL C-883733-4178-108 9.71242222528276 125000 -13655.4020142067 0 0 94 (C1) n - 1
REM
REM in /home/nfs/bkarasulu/CARBON/AIRSS/Generating-Clusters/ReaxFF-fromJPCA2015/Units_Real/with-SteepDescent/Only-C1/SD-CG/Try1-3A/FIRE-CG
REM
REM
REM
REM
REM
REM ./C.cell (11c1c37f851c82e70ff6c80c92926a4b)
REM
REM compiler GCC version 9.2.1 20190827 (Red Hat 9.2.1-1)
REM options -cpp -mtune=generic -march=x86-64 -g -O0 -fpre-include=/usr/include/finclude/math-vector-fortran.h
REM seed -143266407 45999371 1218561092 1997919307 1873821887 1389511145 -39082987 -956251407 605945540 1400586146 -1118818398 1450695645 307996165 124466162 -864820270 -1370160268 1232985761 1232886081 1269697473 900503256 934833306 -1308784800 1174835577 905862998 882396285 544525801 2046007517 1906336620 -318323982 2120548026 -816547187 1706116288 764364837
REM
CELL 1.54180   50.00000   50.00000   50.00000   90.00000   90.00000   90.00000
LATT -1
SFAC C  
C      1  0.4712750000000  0.5289890000000  0.5757970000000 1.0
C      1  0.4426750000000  0.5342710000000  0.4509800000000 1.0
C      1  0.5210480000000  0.4804100000000  0.5160270000000 1.0
C      1  0.5260850000000  0.5144720000000  0.5824440000000 1.0
C      1  0.5364210000000  0.4315970000000  0.4605330000000 1.0
C      1  0.5145470000000  0.4411780000000  0.4469770000000 1.0
C      1  0.5159550000000  0.5791520000000  0.5704010000000 1.0
C      1  0.5377050000000  0.4406320000000  0.5401570000000 1.0
C      1  0.5439630000000  0.5675730000000  0.5006880000000 1.0
C      1  0.4913200000000  0.5786020000000  0.4961720000000 1.0
C      1  0.4905630000000  0.4783180000000  0.4825160000000 1.0
C      1  0.4481360000000  0.5131220000000  0.5654850000000 1.0
C      1  0.5215040000000  0.5764830000000  0.4459630000000 1.0
C      1  0.4841220000000  0.5800030000000  0.5257620000000 1.0
C      1  0.4841960000000  0.4668950000000  0.4252420000000 1.0
C      1  0.5084200000000  0.5276610000000  0.5095340000000 1.0
C      1  0.4840320000000  0.4850070000000  0.5354090000000 1.0
C      1  0.5740580000000  0.5244490000000  0.5209530000000 1.0
C      1  0.5370770000000  0.4794620000000  0.4708690000000 1.0
C      1  0.4980770000000  0.4630900000000  0.5233150000000 1.0
C      1  0.5124180000000  0.4619810000000  0.4256940000000 1.0
C      1  0.4333650000000  0.5246480000000  0.5403960000000 1.0
C      1  0.4560180000000  0.5593750000000  0.4570740000000 1.0
C      1  0.5842050000000  0.4778470000000  0.4752310000000 1.0
C      1  0.4228670000000  0.5116990000000  0.5186310000000 1.0
C      1  0.5149840000000  0.5027060000000  0.5586940000000 1.0
C      1  0.4509590000000  0.4645510000000  0.5170260000000 1.0
C      1  0.4886910000000  0.4311380000000  0.4557680000000 1.0
C      1  0.5038600000000  0.5418550000000  0.5383370000000 1.0
C      1  0.4713670000000  0.5567480000000  0.5680990000000 1.0
C      1  0.5600740000000  0.4603330000000  0.4724450000000 1.0
C      1  0.5236640000000  0.4969520000000  0.4510310000000 1.0
C      1  0.4934370000000  0.4326820000000  0.5496190000000 1.0
C      1  0.5659260000000  0.5014610000000  0.5409100000000 1.0
C      1  0.4637680000000  0.4236980000000  0.5474620000000 1.0
C      1  0.4486060000000  0.4489290000000  0.5447640000000 1.0
C      1  0.4185820000000  0.5031100000000  0.4916430000000 1.0
C      1  0.5324360000000  0.5520520000000  0.4779240000000 1.0
C      1  0.5559700000000  0.4412200000000  0.4953110000000 1.0
C      1  0.5314280000000  0.4846210000000  0.4265830000000 1.0
C      1  0.4854360000000  0.5292700000000  0.4541270000000 1.0
C      1  0.5195140000000  0.5824800000000  0.5034660000000 1.0
C      1  0.5491520000000  0.5349050000000  0.4333540000000 1.0
C      1  0.4777270000000  0.5340000000000  0.4825060000000 1.0
C      1  0.4642910000000  0.5645900000000  0.5402980000000 1.0
C      1  0.5137120000000  0.4630950000000  0.4734350000000 1.0
C      1  0.5335630000000  0.4229900000000  0.4873680000000 1.0
C      1  0.4621450000000  0.4939660000000  0.5189430000000 1.0
C      1  0.4792950000000  0.4571230000000  0.5014250000000 1.0
C      1  0.5541320000000  0.5454260000000  0.5191990000000 1.0
C      1  0.5038770000000  0.5473340000000  0.4894290000000 1.0
C      1  0.4479750000000  0.5458750000000  0.4958310000000 1.0
C      1  0.5796040000000  0.5054800000000  0.4673030000000 1.0
C      1  0.4334040000000  0.4520130000000  0.4957710000000 1.0
C      1  0.4941920000000  0.4831750000000  0.5623970000000 1.0
C      1  0.4150820000000  0.4700050000000  0.4818440000000 1.0
C      1  0.4977790000000  0.5608280000000  0.5840820000000 1.0
C      1  0.4942420000000  0.5021700000000  0.4499430000000 1.0
C      1  0.4449000000000  0.4434260000000  0.4542210000000 1.0
C      1  0.5739600000000  0.4765940000000  0.5266270000000 1.0
C      1  0.4751130000000  0.4947230000000  0.4289700000000 1.0
C      1  0.5341110000000  0.5249130000000  0.5185530000000 1.0
C      1  0.5009990000000  0.4546740000000  0.5682840000000 1.0
C      1  0.4511000000000  0.4345190000000  0.4806920000000 1.0
C      1  0.4457070000000  0.5476380000000  0.5250930000000 1.0
C      1  0.5081240000000  0.4212660000000  0.5014520000000 1.0
C      1  0.5146400000000  0.4256290000000  0.5289720000000 1.0
C      1  0.5528550000000  0.5030400000000  0.5722330000000 1.0
C      1  0.4360610000000  0.4923300000000  0.4542750000000 1.0
C      1  0.5526830000000  0.4941740000000  0.4241430000000 1.0
C      1  0.4243750000000  0.4650400000000  0.4550520000000 1.0
C      1  0.4754810000000  0.5772440000000  0.4662640000000 1.0
C      1  0.5668900000000  0.5120170000000  0.4409130000000 1.0
C      1  0.4465290000000  0.4954230000000  0.4816280000000 1.0
C      1  0.4958930000000  0.5465940000000  0.4331670000000 1.0
C      1  0.5338060000000  0.5008500000000  0.5348560000000 1.0
C      1  0.5078220000000  0.4969660000000  0.4974860000000 1.0
C      1  0.5437840000000  0.4774600000000  0.5724160000000 1.0
C      1  0.4531200000000  0.4867850000000  0.5668520000000 1.0
C      1  0.5090540000000  0.5707360000000  0.5407940000000 1.0
C      1  0.5896650000000  0.4857800000000  0.5035060000000 1.0
C      1  0.5220830000000  0.5367610000000  0.4216530000000 1.0
C      1  0.5859000000000  0.5142110000000  0.4959110000000 1.0
C      1  0.4606510000000  0.4617850000000  0.5675140000000 1.0
C      1  0.5437160000000  0.5598470000000  0.4516400000000 1.0
C      1  0.4701820000000  0.4447280000000  0.4391630000000 1.0
C      1  0.4664510000000  0.5091180000000  0.4948300000000 1.0
C      1  0.5308910000000  0.4531400000000  0.5663150000000 1.0
C      1  0.4815520000000  0.4286450000000  0.4849330000000 1.0
C      1  0.4306610000000  0.5327900000000  0.4773870000000 1.0
C      1  0.5582990000000  0.4516010000000  0.5227860000000 1.0
C      1  0.5005410000000  0.5307400000000  0.5843030000000 1.0
C      1  0.4932300000000  0.5762880000000  0.4431610000000 1.0
C      1  0.4502450000000  0.5088320000000  0.4353670000000 1.0
END
