TITL C-883737-113-181 6.61405303542959e-08 125000 -858.191941540599 0 0 7 (Cs) n - 1
REM
REM in /home/nfs/bkarasulu/CARBON/AIRSS/Generating-Clusters/ReaxFF-fromJPCA2015/Units_Real/with-SteepDescent/Only-C1/SD-CG/Try1-3A/FIRE-CG
REM
REM
REM
REM
REM
REM ./C.cell (11c1c37f851c82e70ff6c80c92926a4b)
REM
REM compiler GCC version 9.2.1 20190827 (Red Hat 9.2.1-1)
REM options -cpp -mtune=generic -march=x86-64 -g -O0 -fpre-include=/usr/include/finclude/math-vector-fortran.h
REM seed 889600486 1568781750 2127980874 -1799199404 1717935209 333935418 -1818787337 1763759073 1514177823 -1726243349 118661230 -1088473821 1213304468 -64537463 -1065858077 -2133745505 -1779982962 -538339093 1380549564 1749667550 -1014885521 -859544790 2016692938 -216071739 795630051 -54062209 -268745513 -1290805508 -731317291 1686402472 755799037 893551518 -2147041913
REM
CELL 1.54180   50.00000   50.00000   50.00000   90.00000   90.00000   90.00000
LATT -1
SFAC C  
C      1  0.5065530000000  0.5325310000000  0.5098480000000 1.0
C      1  0.5025170000000  0.5048850000000  0.4979900000000 1.0
C      1  0.4650920000000  0.4586130000000  0.5154960000000 1.0
C      1  0.5110100000000  0.5139650000000  0.4703020000000 1.0
C      1  0.5136810000000  0.5423460000000  0.4816610000000 1.0
C      1  0.4869960000000  0.4691620000000  0.5130120000000 1.0
C      1  0.5141500000000  0.4784970000000  0.5116900000000 1.0
END
