TITL C-883733-4178-213 5.92001928814922 125000 -15423.1454490372 0 0 104 (C1) n - 1
REM
REM in /home/nfs/bkarasulu/CARBON/AIRSS/Generating-Clusters/ReaxFF-fromJPCA2015/Units_Real/with-SteepDescent/Only-C1/SD-CG/Try1-3A/FIRE-CG
REM
REM
REM
REM
REM
REM ./C.cell (11c1c37f851c82e70ff6c80c92926a4b)
REM
REM compiler GCC version 9.2.1 20190827 (Red Hat 9.2.1-1)
REM options -cpp -mtune=generic -march=x86-64 -g -O0 -fpre-include=/usr/include/finclude/math-vector-fortran.h
REM seed -1395187565 -1262847535 406890874 681078228 1840039207 -1033518451 -1614786189 290391723 1099216646 2109470610 1003342246 396465544 -1173983909 1203226837 -917369088 -135403341 -2005216326 -693677819 -1396617680 -541459931 -412043097 -340384191 -1474336792 -1393563859 330154376 1440439704 1509148341 -1130659249 -1007102701 -1092287125 1324676114 664469224 2045465377
REM
CELL 1.54180   50.00000   50.00000   50.00000   90.00000   90.00000   90.00000
LATT -1
SFAC C  
C      1  0.5342460000000  0.4389390000000  0.5158610000000 1.0
C      1  0.4805300000000  0.4024730000000  0.4982060000000 1.0
C      1  0.4356610000000  0.5549240000000  0.5332550000000 1.0
C      1  0.4977180000000  0.4511700000000  0.4200310000000 1.0
C      1  0.4662790000000  0.5136090000000  0.5171060000000 1.0
C      1  0.5497250000000  0.4267120000000  0.4685500000000 1.0
C      1  0.4224430000000  0.4671490000000  0.4704690000000 1.0
C      1  0.4676370000000  0.4195940000000  0.4772340000000 1.0
C      1  0.5217460000000  0.4346710000000  0.4602140000000 1.0
C      1  0.4716270000000  0.5133770000000  0.4336590000000 1.0
C      1  0.4947090000000  0.5209820000000  0.4745770000000 1.0
C      1  0.5120760000000  0.5257050000000  0.4976740000000 1.0
C      1  0.5644220000000  0.4628140000000  0.4424570000000 1.0
C      1  0.5434010000000  0.4267960000000  0.4948600000000 1.0
C      1  0.4894740000000  0.5331100000000  0.5230280000000 1.0
C      1  0.4513350000000  0.4306330000000  0.5267700000000 1.0
C      1  0.4197430000000  0.5198050000000  0.4846230000000 1.0
C      1  0.4946600000000  0.4752890000000  0.5100220000000 1.0
C      1  0.4258300000000  0.5139420000000  0.4568030000000 1.0
C      1  0.5332880000000  0.4948610000000  0.4194820000000 1.0
C      1  0.4962860000000  0.5046690000000  0.5891440000000 1.0
C      1  0.5479000000000  0.5303330000000  0.4542820000000 1.0
C      1  0.4464700000000  0.4287480000000  0.4963330000000 1.0
C      1  0.5019440000000  0.4284530000000  0.4387540000000 1.0
C      1  0.4785040000000  0.4586120000000  0.5617640000000 1.0
C      1  0.5892800000000  0.4585320000000  0.4822320000000 1.0
C      1  0.5706240000000  0.5127980000000  0.5563400000000 1.0
C      1  0.5208670000000  0.5765840000000  0.5633790000000 1.0
C      1  0.4784970000000  0.5064710000000  0.3949110000000 1.0
C      1  0.5365900000000  0.5655980000000  0.5233710000000 1.0
C      1  0.4730070000000  0.5529900000000  0.5739930000000 1.0
C      1  0.5070340000000  0.5690690000000  0.4562850000000 1.0
C      1  0.4720990000000  0.4579980000000  0.4390110000000 1.0
C      1  0.5900430000000  0.5146350000000  0.4841190000000 1.0
C      1  0.5129130000000  0.4603300000000  0.4701600000000 1.0
C      1  0.5602230000000  0.4446430000000  0.5275590000000 1.0
C      1  0.4238500000000  0.4676430000000  0.5186320000000 1.0
C      1  0.5725960000000  0.4446150000000  0.4609770000000 1.0
C      1  0.4284520000000  0.5247500000000  0.5368590000000 1.0
C      1  0.4498620000000  0.4703540000000  0.4818750000000 1.0
C      1  0.4497890000000  0.4657070000000  0.5095390000000 1.0
C      1  0.4809780000000  0.5625040000000  0.5228280000000 1.0
C      1  0.5075020000000  0.5229800000000  0.5446020000000 1.0
C      1  0.5075430000000  0.5388640000000  0.4230870000000 1.0
C      1  0.4709320000000  0.4839210000000  0.5197030000000 1.0
C      1  0.5299380000000  0.5231820000000  0.4324890000000 1.0
C      1  0.5320570000000  0.5478910000000  0.5014390000000 1.0
C      1  0.4627030000000  0.5577410000000  0.4540040000000 1.0
C      1  0.5557360000000  0.5564990000000  0.5434610000000 1.0
C      1  0.4890850000000  0.5589360000000  0.4400640000000 1.0
C      1  0.5179090000000  0.4842060000000  0.5518530000000 1.0
C      1  0.5960940000000  0.4865280000000  0.4818820000000 1.0
C      1  0.4929520000000  0.4747900000000  0.4560280000000 1.0
C      1  0.5597090000000  0.5497260000000  0.4928540000000 1.0
C      1  0.4060910000000  0.4720530000000  0.4952780000000 1.0
C      1  0.4956950000000  0.5232400000000  0.4023660000000 1.0
C      1  0.4275970000000  0.4854360000000  0.4477920000000 1.0
C      1  0.4584900000000  0.5701120000000  0.4813350000000 1.0
C      1  0.5536790000000  0.4996930000000  0.4969400000000 1.0
C      1  0.5546960000000  0.4780530000000  0.4277090000000 1.0
C      1  0.4582520000000  0.4967830000000  0.4123010000000 1.0
C      1  0.5181480000000  0.4667440000000  0.5004390000000 1.0
C      1  0.5380790000000  0.5574930000000  0.5649430000000 1.0
C      1  0.5227940000000  0.5036620000000  0.5336580000000 1.0
C      1  0.5729980000000  0.5344560000000  0.5349480000000 1.0
C      1  0.5796490000000  0.5335200000000  0.5067970000000 1.0
C      1  0.5721610000000  0.4866760000000  0.5164390000000 1.0
C      1  0.4659230000000  0.5234110000000  0.4763560000000 1.0
C      1  0.4749390000000  0.5245440000000  0.5850560000000 1.0
C      1  0.4753190000000  0.4293960000000  0.4497530000000 1.0
C      1  0.4824990000000  0.5776830000000  0.4983050000000 1.0
C      1  0.5046390000000  0.4450500000000  0.5559380000000 1.0
C      1  0.4682740000000  0.4059060000000  0.5249110000000 1.0
C      1  0.4973300000000  0.4068370000000  0.5222710000000 1.0
C      1  0.4564700000000  0.5033140000000  0.5756430000000 1.0
C      1  0.5500730000000  0.5088210000000  0.5752990000000 1.0
C      1  0.5269650000000  0.5011700000000  0.5053820000000 1.0
C      1  0.4910120000000  0.5844080000000  0.5390810000000 1.0
C      1  0.4540300000000  0.5537230000000  0.5542440000000 1.0
C      1  0.5155810000000  0.4727650000000  0.4175380000000 1.0
C      1  0.4616810000000  0.4959970000000  0.4792930000000 1.0
C      1  0.5273380000000  0.5767970000000  0.4712600000000 1.0
C      1  0.5127450000000  0.4286370000000  0.5332240000000 1.0
C      1  0.4016920000000  0.4983390000000  0.4860980000000 1.0
C      1  0.4435540000000  0.5644820000000  0.5052520000000 1.0
C      1  0.5798190000000  0.4592250000000  0.5100450000000 1.0
C      1  0.5104000000000  0.5864250000000  0.4947580000000 1.0
C      1  0.4388350000000  0.5200020000000  0.5100620000000 1.0
C      1  0.5693870000000  0.4852470000000  0.5461150000000 1.0
C      1  0.5253580000000  0.5138410000000  0.5878490000000 1.0
C      1  0.5628970000000  0.5107750000000  0.4719740000000 1.0
C      1  0.4783330000000  0.4831810000000  0.5784580000000 1.0
C      1  0.4936160000000  0.5744580000000  0.5668750000000 1.0
C      1  0.4537400000000  0.4532260000000  0.5478260000000 1.0
C      1  0.5203730000000  0.5360490000000  0.5677450000000 1.0
C      1  0.4928930000000  0.5030210000000  0.4521000000000 1.0
C      1  0.5286760000000  0.4611620000000  0.5626640000000 1.0
C      1  0.4480160000000  0.4756510000000  0.4295120000000 1.0
C      1  0.4499400000000  0.5312000000000  0.4482100000000 1.0
C      1  0.5168020000000  0.5866700000000  0.5234570000000 1.0
C      1  0.5563410000000  0.4596320000000  0.5520040000000 1.0
C      1  0.5508020000000  0.5571250000000  0.4660400000000 1.0
C      1  0.4328030000000  0.4739520000000  0.5454420000000 1.0
C      1  0.4360600000000  0.5020970000000  0.5543250000000 1.0
END
