TITL C-883728-9229-225 2.61403968746201 125000 -19498.2983562095 0 0 131 (C1) n - 1
REM
REM in /home/nfs/bkarasulu/CARBON/AIRSS/Generating-Clusters/ReaxFF-fromJPCA2015/Units_Real/with-SteepDescent/Only-C1/SD-CG/Try1-3A/FIRE-CG
REM
REM
REM
REM
REM
REM ./C.cell (11c1c37f851c82e70ff6c80c92926a4b)
REM
REM compiler GCC version 9.2.1 20190827 (Red Hat 9.2.1-1)
REM options -cpp -mtune=generic -march=x86-64 -g -O0 -fpre-include=/usr/include/finclude/math-vector-fortran.h
REM seed -1917718311 -7857858 802402627 963243312 279896067 -263812644 -586831408 -939486098 601342244 586753334 -1900380801 -1963037755 -572900211 615137569 1024038682 -1771077232 -1704473792 -790389238 -1499086700 1287486417 383687492 1996776638 2045301541 1617511240 1439136555 716740664 528173345 808112581 -18065630 -1765770535 -1985962576 627738655 1270786476
REM
CELL 1.54180   50.00000   50.00000   50.00000   90.00000   90.00000   90.00000
LATT -1
SFAC C  
C      1  0.5487640000000  0.5029200000000  0.4261850000000 1.0
C      1  0.4639490000000  0.4737090000000  0.5717830000000 1.0
C      1  0.5317070000000  0.3923260000000  0.5097770000000 1.0
C      1  0.4059140000000  0.5247300000000  0.4587830000000 1.0
C      1  0.5869840000000  0.5433610000000  0.4694140000000 1.0
C      1  0.5232800000000  0.5682640000000  0.5751140000000 1.0
C      1  0.4725770000000  0.4856030000000  0.3903450000000 1.0
C      1  0.6032780000000  0.4999170000000  0.4941870000000 1.0
C      1  0.4570970000000  0.5870420000000  0.5389760000000 1.0
C      1  0.4151470000000  0.5487340000000  0.5219910000000 1.0
C      1  0.5470320000000  0.5087670000000  0.5448210000000 1.0
C      1  0.5686780000000  0.4609450000000  0.4547550000000 1.0
C      1  0.5447960000000  0.4367210000000  0.4983760000000 1.0
C      1  0.4450900000000  0.5463750000000  0.4368110000000 1.0
C      1  0.4418880000000  0.5069060000000  0.5221530000000 1.0
C      1  0.4577660000000  0.4501240000000  0.4239870000000 1.0
C      1  0.5390850000000  0.5953620000000  0.4784550000000 1.0
C      1  0.5490460000000  0.5563830000000  0.5703140000000 1.0
C      1  0.5214610000000  0.4909990000000  0.5492550000000 1.0
C      1  0.4967880000000  0.5557530000000  0.5465830000000 1.0
C      1  0.5356630000000  0.4274540000000  0.5665810000000 1.0
C      1  0.4983510000000  0.4213440000000  0.5331710000000 1.0
C      1  0.4608920000000  0.5240810000000  0.5239830000000 1.0
C      1  0.4563420000000  0.4973220000000  0.4407500000000 1.0
C      1  0.5759990000000  0.4594970000000  0.5663310000000 1.0
C      1  0.4524180000000  0.4147570000000  0.5428400000000 1.0
C      1  0.5236850000000  0.5237900000000  0.5916610000000 1.0
C      1  0.5500540000000  0.4487210000000  0.4349490000000 1.0
C      1  0.5651190000000  0.4296100000000  0.5178430000000 1.0
C      1  0.4537230000000  0.4098310000000  0.4954800000000 1.0
C      1  0.5019830000000  0.5152670000000  0.5753490000000 1.0
C      1  0.5128720000000  0.5683970000000  0.4172710000000 1.0
C      1  0.4592930000000  0.4286470000000  0.4832650000000 1.0
C      1  0.5479670000000  0.5769620000000  0.4555350000000 1.0
C      1  0.4468270000000  0.4757960000000  0.4827050000000 1.0
C      1  0.4910800000000  0.5875030000000  0.4672110000000 1.0
C      1  0.5045650000000  0.3888510000000  0.5019860000000 1.0
C      1  0.4541040000000  0.5048230000000  0.5756860000000 1.0
C      1  0.4544150000000  0.5221660000000  0.4248810000000 1.0
C      1  0.4629730000000  0.4585610000000  0.3948890000000 1.0
C      1  0.5463000000000  0.5649250000000  0.5148060000000 1.0
C      1  0.4397170000000  0.4417190000000  0.5397740000000 1.0
C      1  0.5077110000000  0.4232160000000  0.5590790000000 1.0
C      1  0.4649350000000  0.5899100000000  0.4529190000000 1.0
C      1  0.4266920000000  0.4750180000000  0.4615540000000 1.0
C      1  0.5478160000000  0.5611790000000  0.5424260000000 1.0
C      1  0.4686610000000  0.5535910000000  0.5766590000000 1.0
C      1  0.5388980000000  0.5286560000000  0.4724740000000 1.0
C      1  0.5394230000000  0.5640260000000  0.4046360000000 1.0
C      1  0.4283230000000  0.5462960000000  0.5483840000000 1.0
C      1  0.5541810000000  0.5931950000000  0.5028780000000 1.0
C      1  0.4734330000000  0.4766540000000  0.5420630000000 1.0
C      1  0.5997330000000  0.5186610000000  0.4729340000000 1.0
C      1  0.5042480000000  0.5042450000000  0.6005090000000 1.0
C      1  0.5521280000000  0.4880740000000  0.5011400000000 1.0
C      1  0.5782290000000  0.5416710000000  0.4987940000000 1.0
C      1  0.5542890000000  0.4024220000000  0.5161150000000 1.0
C      1  0.5043640000000  0.4418920000000  0.4240130000000 1.0
C      1  0.5391190000000  0.4692980000000  0.5998280000000 1.0
C      1  0.5999900000000  0.4698710000000  0.4985910000000 1.0
C      1  0.4325700000000  0.4867640000000  0.5056390000000 1.0
C      1  0.5886790000000  0.4443240000000  0.4988410000000 1.0
C      1  0.4214740000000  0.5693220000000  0.4738890000000 1.0
C      1  0.4727260000000  0.5648990000000  0.5057150000000 1.0
C      1  0.5624440000000  0.5067760000000  0.5657390000000 1.0
C      1  0.5605230000000  0.4843020000000  0.4713400000000 1.0
C      1  0.5290940000000  0.4552790000000  0.4150670000000 1.0
C      1  0.4778410000000  0.5098760000000  0.3934810000000 1.0
C      1  0.4762340000000  0.4161690000000  0.4621110000000 1.0
C      1  0.5181010000000  0.4459440000000  0.4966010000000 1.0
C      1  0.4954490000000  0.3989150000000  0.4753100000000 1.0
C      1  0.4829750000000  0.5125640000000  0.4824410000000 1.0
C      1  0.5231800000000  0.5646670000000  0.4450560000000 1.0
C      1  0.4998120000000  0.5004080000000  0.5041450000000 1.0
C      1  0.5501010000000  0.5273200000000  0.5808350000000 1.0
C      1  0.4908580000000  0.5359220000000  0.4700700000000 1.0
C      1  0.5123030000000  0.4521500000000  0.4688120000000 1.0
C      1  0.4877910000000  0.4605550000000  0.5871680000000 1.0
C      1  0.4062960000000  0.4749660000000  0.5227980000000 1.0
C      1  0.5713010000000  0.5607110000000  0.4497420000000 1.0
C      1  0.4608310000000  0.4235050000000  0.5706650000000 1.0
C      1  0.5369540000000  0.4449570000000  0.5882540000000 1.0
C      1  0.4012080000000  0.5252690000000  0.5114590000000 1.0
C      1  0.5490730000000  0.5406750000000  0.4966890000000 1.0
C      1  0.4235370000000  0.5698300000000  0.5037660000000 1.0
C      1  0.4462680000000  0.4484610000000  0.5672790000000 1.0
C      1  0.4498380000000  0.5640870000000  0.5572220000000 1.0
C      1  0.5622650000000  0.4796430000000  0.5811550000000 1.0
C      1  0.4717460000000  0.4502320000000  0.5005250000000 1.0
C      1  0.5096760000000  0.6025390000000  0.4835860000000 1.0
C      1  0.4797320000000  0.4337230000000  0.4350780000000 1.0
C      1  0.4582600000000  0.3988340000000  0.5197340000000 1.0
C      1  0.4237610000000  0.5461770000000  0.4551660000000 1.0
C      1  0.4841440000000  0.5602110000000  0.4136650000000 1.0
C      1  0.4019840000000  0.5018750000000  0.5283260000000 1.0
C      1  0.4585520000000  0.4592370000000  0.5250650000000 1.0
C      1  0.4950560000000  0.5698080000000  0.5711780000000 1.0
C      1  0.3969680000000  0.5161040000000  0.4836470000000 1.0
C      1  0.5656120000000  0.5008220000000  0.5254820000000 1.0
C      1  0.5260280000000  0.4942260000000  0.5026370000000 1.0
C      1  0.5547840000000  0.5282410000000  0.4190880000000 1.0
C      1  0.4635480000000  0.5683010000000  0.4316140000000 1.0
C      1  0.5798280000000  0.4393990000000  0.4714900000000 1.0
C      1  0.4878140000000  0.4328400000000  0.5785320000000 1.0
C      1  0.5870560000000  0.5163530000000  0.5124100000000 1.0
C      1  0.5158330000000  0.5396320000000  0.4582670000000 1.0
C      1  0.4825090000000  0.6019910000000  0.5340420000000 1.0
C      1  0.5071020000000  0.4838010000000  0.4352840000000 1.0
C      1  0.5534060000000  0.4273450000000  0.4730870000000 1.0
C      1  0.5326010000000  0.4355610000000  0.4541140000000 1.0
C      1  0.4957280000000  0.4921480000000  0.5330090000000 1.0
C      1  0.4752370000000  0.5323850000000  0.4078260000000 1.0
C      1  0.4328140000000  0.5190000000000  0.5614010000000 1.0
C      1  0.4493310000000  0.5827980000000  0.5109630000000 1.0
C      1  0.4423510000000  0.4722200000000  0.4362750000000 1.0
C      1  0.4958190000000  0.4733200000000  0.4576720000000 1.0
C      1  0.4967880000000  0.4414580000000  0.5141300000000 1.0
C      1  0.4434260000000  0.5860930000000  0.4708150000000 1.0
C      1  0.4701170000000  0.4917640000000  0.4676570000000 1.0
C      1  0.5343070000000  0.4651620000000  0.5458810000000 1.0
C      1  0.5553000000000  0.4440190000000  0.5471830000000 1.0
C      1  0.4744720000000  0.5248680000000  0.5807500000000 1.0
C      1  0.4068780000000  0.4967160000000  0.4645930000000 1.0
C      1  0.5096200000000  0.4748890000000  0.5997760000000 1.0
C      1  0.4847130000000  0.5616530000000  0.4799230000000 1.0
C      1  0.5265230000000  0.4853850000000  0.4156610000000 1.0
C      1  0.4824760000000  0.5435130000000  0.5249790000000 1.0
C      1  0.5640990000000  0.5541660000000  0.4212640000000 1.0
C      1  0.4998370000000  0.6067000000000  0.5107600000000 1.0
C      1  0.5516680000000  0.5063860000000  0.4567670000000 1.0
C      1  0.4859290000000  0.3970090000000  0.5254060000000 1.0
END
