TITL C-883735-9890-379 2.20150624272413 125000 -3314.05275799242 0 0 24 (C1) n - 1
REM
REM in /home/nfs/bkarasulu/CARBON/AIRSS/Generating-Clusters/ReaxFF-fromJPCA2015/Units_Real/with-SteepDescent/Only-C1/SD-CG/Try1-3A/FIRE-CG
REM
REM
REM
REM
REM
REM ./C.cell (11c1c37f851c82e70ff6c80c92926a4b)
REM
REM compiler GCC version 9.2.1 20190827 (Red Hat 9.2.1-1)
REM options -cpp -mtune=generic -march=x86-64 -g -O0 -fpre-include=/usr/include/finclude/math-vector-fortran.h
REM seed 53966643 -201852726 1252974554 -949419770 192615729 -1586095252 -892840580 695677492 -919379778 968442462 559197522 -505024598 2052146774 1826037763 1591870253 1551955906 -606965329 -867871957 1087488374 219047803 -1656089544 -568912601 -209747177 1578610472 379629087 -1906253685 -2061404067 -2128367600 -2106550828 238306139 106742738 -1725792180 -2033826443
REM
CELL 1.54180   50.00000   50.00000   50.00000   90.00000   90.00000   90.00000
LATT -1
SFAC C  
C      1  0.5087010000000  0.5325460000000  0.4628590000000 1.0
C      1  0.5231170000000  0.4475560000000  0.4807400000000 1.0
C      1  0.4697660000000  0.5081990000000  0.4422230000000 1.0
C      1  0.5216530000000  0.4991540000000  0.5453620000000 1.0
C      1  0.4976960000000  0.5410420000000  0.5078160000000 1.0
C      1  0.4656810000000  0.4993610000000  0.4677850000000 1.0
C      1  0.4959380000000  0.4572970000000  0.4712930000000 1.0
C      1  0.4760440000000  0.5480860000000  0.5539260000000 1.0
C      1  0.4983560000000  0.5246740000000  0.4388790000000 1.0
C      1  0.5029050000000  0.4764750000000  0.5426930000000 1.0
C      1  0.5536620000000  0.5043060000000  0.4852190000000 1.0
C      1  0.5416220000000  0.5249560000000  0.5000470000000 1.0
C      1  0.5176840000000  0.4402370000000  0.5100060000000 1.0
C      1  0.5175970000000  0.5398250000000  0.4883190000000 1.0
C      1  0.5454290000000  0.4651230000000  0.4752800000000 1.0
C      1  0.4815630000000  0.4681020000000  0.4949940000000 1.0
C      1  0.4360870000000  0.4964910000000  0.5109820000000 1.0
C      1  0.4622810000000  0.4906230000000  0.4924600000000 1.0
C      1  0.5374630000000  0.5173450000000  0.5282500000000 1.0
C      1  0.5604170000000  0.4832990000000  0.4738180000000 1.0
C      1  0.4571140000000  0.5225110000000  0.5544770000000 1.0
C      1  0.4532110000000  0.5120720000000  0.5272420000000 1.0
C      1  0.4794300000000  0.5421580000000  0.5257110000000 1.0
C      1  0.4965840000000  0.4585620000000  0.5196190000000 1.0
END
