TITL C-884141-4321-71 84.1270160276689 125000 -27800.5774272192 0 0 188 (C1) n - 1
REM
REM in /home/nfs/bkarasulu/CARBON/AIRSS/Generating-Clusters/ReaxFF-fromJPCA2015/Units_Real/with-SteepDescent/Only-C1/SD-CG/Try1-3A/FIRE-CG
REM
REM
REM
REM
REM
REM ./C.cell (11c1c37f851c82e70ff6c80c92926a4b)
REM
REM compiler GCC version 9.2.1 20190827 (Red Hat 9.2.1-1)
REM options -cpp -mtune=generic -march=x86-64 -g -O0 -fpre-include=/usr/include/finclude/math-vector-fortran.h
REM seed -1550726455 -150412832 1066329274 573900824 1541514248 -1407199758 1168857556 -1061818523 -1247858662 274485750 641510192 699662217 -2023196166 1223139157 1137495451 1469053214 2138729916 -853037708 1407465269 1912663784 88798485 -1963293216 666180017 -470461520 -220350066 -2102086311 -396807243 468744330 2132248614 -766924658 1644026828 -1928991548 1560507042
REM
CELL 1.54180   50.00000   50.00000   50.00000   90.00000   90.00000   90.00000
LATT -1
SFAC C  
C      1  0.4774770000000  0.4381200000000  0.5982160000000 1.0
C      1  0.4546580000000  0.4208720000000  0.5368420000000 1.0
C      1  0.3931640000000  0.4817840000000  0.5139870000000 1.0
C      1  0.3913400000000  0.5387900000000  0.4824250000000 1.0
C      1  0.5040550000000  0.3868530000000  0.5263490000000 1.0
C      1  0.4952510000000  0.5328060000000  0.5031080000000 1.0
C      1  0.5175110000000  0.4267440000000  0.5137830000000 1.0
C      1  0.5033950000000  0.4317090000000  0.4115640000000 1.0
C      1  0.5658130000000  0.5776830000000  0.4725540000000 1.0
C      1  0.4974370000000  0.4106520000000  0.5762760000000 1.0
C      1  0.5556550000000  0.5389250000000  0.5041760000000 1.0
C      1  0.4339190000000  0.4079680000000  0.4711200000000 1.0
C      1  0.5418390000000  0.5705550000000  0.5579240000000 1.0
C      1  0.4646310000000  0.4212110000000  0.5093320000000 1.0
C      1  0.4546510000000  0.4704190000000  0.4579120000000 1.0
C      1  0.5663800000000  0.4656190000000  0.4174920000000 1.0
C      1  0.4012230000000  0.5257220000000  0.4368550000000 1.0
C      1  0.5449070000000  0.5186710000000  0.4110530000000 1.0
C      1  0.5102570000000  0.4168490000000  0.4354270000000 1.0
C      1  0.5253770000000  0.5218820000000  0.5764390000000 1.0
C      1  0.4282690000000  0.4275020000000  0.5476540000000 1.0
C      1  0.5091550000000  0.5526990000000  0.3897260000000 1.0
C      1  0.4213370000000  0.5239100000000  0.4192000000000 1.0
C      1  0.5408350000000  0.4283680000000  0.5812120000000 1.0
C      1  0.4799660000000  0.5314810000000  0.4588790000000 1.0
C      1  0.5487950000000  0.5886580000000  0.5099560000000 1.0
C      1  0.5846770000000  0.5379880000000  0.5104240000000 1.0
C      1  0.4770800000000  0.5315310000000  0.5492490000000 1.0
C      1  0.5124480000000  0.6031770000000  0.4748560000000 1.0
C      1  0.4199320000000  0.5437400000000  0.5308840000000 1.0
C      1  0.5257170000000  0.5222980000000  0.4663730000000 1.0
C      1  0.4386150000000  0.4713780000000  0.5695240000000 1.0
C      1  0.4773890000000  0.4439820000000  0.4212870000000 1.0
C      1  0.5595190000000  0.5136730000000  0.4353220000000 1.0
C      1  0.5181160000000  0.5138230000000  0.5295490000000 1.0
C      1  0.5548250000000  0.3872590000000  0.4410040000000 1.0
C      1  0.5862130000000  0.5764070000000  0.4938060000000 1.0
C      1  0.4940560000000  0.4707600000000  0.5231800000000 1.0
C      1  0.5067620000000  0.4718840000000  0.4537330000000 1.0
C      1  0.4384600000000  0.5867330000000  0.4365740000000 1.0
C      1  0.5442180000000  0.5035620000000  0.5633710000000 1.0
C      1  0.4869970000000  0.5861150000000  0.5554700000000 1.0
C      1  0.4585640000000  0.5141660000000  0.5277470000000 1.0
C      1  0.5183530000000  0.5537160000000  0.4280750000000 1.0
C      1  0.5543250000000  0.4909160000000  0.4817060000000 1.0
C      1  0.6215710000000  0.4917050000000  0.5009710000000 1.0
C      1  0.5747450000000  0.5810860000000  0.5210570000000 1.0
C      1  0.5728210000000  0.5681460000000  0.5480510000000 1.0
C      1  0.4997990000000  0.4444430000000  0.5306110000000 1.0
C      1  0.4159380000000  0.5780260000000  0.4536670000000 1.0
C      1  0.5838420000000  0.5457780000000  0.5611770000000 1.0
C      1  0.4195760000000  0.4504750000000  0.5619700000000 1.0
C      1  0.4463410000000  0.5804640000000  0.5445340000000 1.0
C      1  0.5504010000000  0.3869460000000  0.4980560000000 1.0
C      1  0.5399870000000  0.5331860000000  0.5297840000000 1.0
C      1  0.4575470000000  0.5232160000000  0.4437240000000 1.0
C      1  0.3816010000000  0.5003070000000  0.4751390000000 1.0
C      1  0.4965010000000  0.5317380000000  0.3764770000000 1.0
C      1  0.5084380000000  0.5929630000000  0.5735090000000 1.0
C      1  0.4587690000000  0.4710200000000  0.5018540000000 1.0
C      1  0.3996660000000  0.5114100000000  0.5499400000000 1.0
C      1  0.4568900000000  0.3916410000000  0.4782940000000 1.0
C      1  0.4189880000000  0.5161560000000  0.5707660000000 1.0
C      1  0.5595770000000  0.5152500000000  0.5440560000000 1.0
C      1  0.5293100000000  0.4946900000000  0.4036260000000 1.0
C      1  0.4947940000000  0.5202320000000  0.6039620000000 1.0
C      1  0.5831570000000  0.4010420000000  0.5155510000000 1.0
C      1  0.5759390000000  0.5246600000000  0.5846230000000 1.0
C      1  0.5576040000000  0.4371740000000  0.4794180000000 1.0
C      1  0.5275780000000  0.5984500000000  0.5526090000000 1.0
C      1  0.4188150000000  0.4760800000000  0.4130580000000 1.0
C      1  0.5211750000000  0.5072120000000  0.6035040000000 1.0
C      1  0.4885250000000  0.4577270000000  0.6139620000000 1.0
C      1  0.5065160000000  0.5002490000000  0.4631470000000 1.0
C      1  0.5415020000000  0.4684680000000  0.4021730000000 1.0
C      1  0.5966510000000  0.5353710000000  0.5371890000000 1.0
C      1  0.5159540000000  0.4722710000000  0.6035460000000 1.0
C      1  0.4811300000000  0.5071100000000  0.4730250000000 1.0
C      1  0.4090960000000  0.5464200000000  0.4606810000000 1.0
C      1  0.4911750000000  0.4215380000000  0.4581520000000 1.0
C      1  0.5788340000000  0.4840340000000  0.4891880000000 1.0
C      1  0.5359560000000  0.4704550000000  0.5008970000000 1.0
C      1  0.4254580000000  0.4569590000000  0.4592700000000 1.0
C      1  0.4432270000000  0.5202980000000  0.4037200000000 1.0
C      1  0.4676660000000  0.5915430000000  0.4438390000000 1.0
C      1  0.5525910000000  0.3866670000000  0.4698310000000 1.0
C      1  0.4601420000000  0.4897890000000  0.4358930000000 1.0
C      1  0.5644650000000  0.4586060000000  0.5980070000000 1.0
C      1  0.5391410000000  0.4146680000000  0.4398810000000 1.0
C      1  0.5106110000000  0.4720160000000  0.5750470000000 1.0
C      1  0.5534390000000  0.4886670000000  0.4502180000000 1.0
C      1  0.4672080000000  0.6010060000000  0.5399460000000 1.0
C      1  0.5941320000000  0.5293240000000  0.4678500000000 1.0
C      1  0.5332630000000  0.5453910000000  0.4068570000000 1.0
C      1  0.4620350000000  0.5543150000000  0.5900320000000 1.0
C      1  0.4872840000000  0.4775050000000  0.4288550000000 1.0
C      1  0.4388530000000  0.4971160000000  0.5818470000000 1.0
C      1  0.4962460000000  0.5550180000000  0.4611430000000 1.0
C      1  0.3926370000000  0.5000630000000  0.4480400000000 1.0
C      1  0.4114770000000  0.4590530000000  0.4857200000000 1.0
C      1  0.4750780000000  0.4398060000000  0.5486510000000 1.0
C      1  0.4916670000000  0.4621590000000  0.3842120000000 1.0
C      1  0.4333190000000  0.5682040000000  0.5201730000000 1.0
C      1  0.5623760000000  0.5638080000000  0.4474760000000 1.0
C      1  0.5434130000000  0.5654640000000  0.4891430000000 1.0
C      1  0.4926890000000  0.5870570000000  0.4294650000000 1.0
C      1  0.4428100000000  0.4064010000000  0.4996550000000 1.0
C      1  0.5904140000000  0.4988090000000  0.5825410000000 1.0
C      1  0.4370540000000  0.5335510000000  0.4703200000000 1.0
C      1  0.5352980000000  0.4658870000000  0.4461690000000 1.0
C      1  0.5794130000000  0.4548370000000  0.4893900000000 1.0
C      1  0.3790140000000  0.5198070000000  0.4974550000000 1.0
C      1  0.5559670000000  0.5117370000000  0.6019520000000 1.0
C      1  0.4313240000000  0.5201270000000  0.5176840000000 1.0
C      1  0.5101270000000  0.4840480000000  0.5044180000000 1.0
C      1  0.6011540000000  0.4988070000000  0.4756110000000 1.0
C      1  0.4547730000000  0.4411470000000  0.4015860000000 1.0
C      1  0.4892810000000  0.5491560000000  0.6003390000000 1.0
C      1  0.4721030000000  0.4221050000000  0.5747320000000 1.0
C      1  0.4631730000000  0.5287600000000  0.5757210000000 1.0
C      1  0.6044320000000  0.4740060000000  0.4579300000000 1.0
C      1  0.4863540000000  0.4876640000000  0.5686460000000 1.0
C      1  0.5375410000000  0.4713030000000  0.5307260000000 1.0
C      1  0.5256620000000  0.3905540000000  0.5438530000000 1.0
C      1  0.5059060000000  0.6084010000000  0.5024730000000 1.0
C      1  0.5441530000000  0.5166170000000  0.4881080000000 1.0
C      1  0.5977420000000  0.4868430000000  0.5558930000000 1.0
C      1  0.5140410000000  0.5115600000000  0.5040350000000 1.0
C      1  0.4721000000000  0.5043250000000  0.5898070000000 1.0
C      1  0.4434920000000  0.5642770000000  0.5689490000000 1.0
C      1  0.4043430000000  0.4876190000000  0.4879650000000 1.0
C      1  0.5743000000000  0.5362610000000  0.4483050000000 1.0
C      1  0.5991900000000  0.5495200000000  0.4881510000000 1.0
C      1  0.5236330000000  0.4053020000000  0.5712880000000 1.0
C      1  0.5175260000000  0.4515330000000  0.3950660000000 1.0
C      1  0.4238570000000  0.5926720000000  0.4756810000000 1.0
C      1  0.5110280000000  0.5675790000000  0.5910730000000 1.0
C      1  0.4819120000000  0.4491640000000  0.4657660000000 1.0
C      1  0.3848210000000  0.5061730000000  0.5267150000000 1.0
C      1  0.5864670000000  0.5069420000000  0.5377100000000 1.0
C      1  0.5721230000000  0.4871910000000  0.6029110000000 1.0
C      1  0.5866960000000  0.4687120000000  0.4359130000000 1.0
C      1  0.5159750000000  0.5928630000000  0.4475810000000 1.0
C      1  0.4082200000000  0.4420630000000  0.5370310000000 1.0
C      1  0.6076500000000  0.4565190000000  0.4823530000000 1.0
C      1  0.4952290000000  0.5593010000000  0.5401070000000 1.0
C      1  0.4848420000000  0.5175510000000  0.3987400000000 1.0
C      1  0.4239930000000  0.5441410000000  0.5602860000000 1.0
C      1  0.4941180000000  0.4029650000000  0.5045040000000 1.0
C      1  0.4628380000000  0.4664260000000  0.3890350000000 1.0
C      1  0.4507110000000  0.5506080000000  0.4945030000000 1.0
C      1  0.5372560000000  0.4495090000000  0.6019790000000 1.0
C      1  0.5423590000000  0.4054830000000  0.5236750000000 1.0
C      1  0.5327910000000  0.4411420000000  0.4935650000000 1.0
C      1  0.4661300000000  0.4819490000000  0.5275570000000 1.0
C      1  0.5819470000000  0.4414600000000  0.5488400000000 1.0
C      1  0.5352720000000  0.4759480000000  0.5587640000000 1.0
C      1  0.4850540000000  0.3989860000000  0.4755260000000 1.0
C      1  0.4307050000000  0.5114710000000  0.4892500000000 1.0
C      1  0.4681550000000  0.5286730000000  0.5039900000000 1.0
C      1  0.4523330000000  0.6071560000000  0.5011160000000 1.0
C      1  0.4057820000000  0.4570490000000  0.5136230000000 1.0
C      1  0.4798780000000  0.5784090000000  0.4674850000000 1.0
C      1  0.4336310000000  0.4286210000000  0.4503920000000 1.0
C      1  0.5361970000000  0.5727820000000  0.4375150000000 1.0
C      1  0.4930470000000  0.5605330000000  0.4156510000000 1.0
C      1  0.4657800000000  0.5346670000000  0.4170980000000 1.0
C      1  0.5716510000000  0.4181390000000  0.5308840000000 1.0
C      1  0.4766790000000  0.6114720000000  0.5131830000000 1.0
C      1  0.5265550000000  0.6021470000000  0.5233590000000 1.0
C      1  0.4701770000000  0.4474830000000  0.4920460000000 1.0
C      1  0.5244080000000  0.5566470000000  0.5382830000000 1.0
C      1  0.4721860000000  0.5707300000000  0.4938740000000 1.0
C      1  0.5673030000000  0.4400320000000  0.5742590000000 1.0
C      1  0.4512360000000  0.4279850000000  0.4275010000000 1.0
C      1  0.5991140000000  0.4624930000000  0.5401280000000 1.0
C      1  0.4071290000000  0.4757620000000  0.4393350000000 1.0
C      1  0.5309960000000  0.5519130000000  0.5800710000000 1.0
C      1  0.5005460000000  0.5136250000000  0.5535790000000 1.0
C      1  0.5009870000000  0.4960990000000  0.4106420000000 1.0
C      1  0.5216560000000  0.5498420000000  0.4721430000000 1.0
C      1  0.4561580000000  0.4905300000000  0.4804250000000 1.0
C      1  0.4945880000000  0.5609830000000  0.5100610000000 1.0
C      1  0.6134500000000  0.4666120000000  0.5115070000000 1.0
C      1  0.5484980000000  0.4396660000000  0.4514000000000 1.0
C      1  0.4648510000000  0.4687300000000  0.5544270000000 1.0
C      1  0.4273960000000  0.5946050000000  0.5032150000000 1.0
C      1  0.4466260000000  0.4876260000000  0.4063210000000 1.0
END
