TITL C-884127-5181-432 23.5036993436085 125000 -23462.5147832038 0 0 158 (C1) n - 1
REM
REM in /home/nfs/bkarasulu/CARBON/AIRSS/Generating-Clusters/ReaxFF-fromJPCA2015/Units_Real/with-SteepDescent/Only-C1/SD-CG/Try1-3A/FIRE-CG
REM
REM
REM
REM
REM
REM ./C.cell (11c1c37f851c82e70ff6c80c92926a4b)
REM
REM compiler GCC version 9.2.1 20190827 (Red Hat 9.2.1-1)
REM options -cpp -mtune=generic -march=x86-64 -g -O0 -fpre-include=/usr/include/finclude/math-vector-fortran.h
REM seed -661641926 -1322104686 -2053902519 1946726930 900765500 607952387 -1290032805 -195819668 728958327 -273281498 -1475771457 659913282 -630546995 1823917698 1195957046 -569790091 452359233 -235954970 309578326 132517131 429274940 -467543822 1932166868 392318248 991169198 -1236757310 -1855863309 -2041792796 -931799910 73022172 221765291 624157385 1772941350
REM
CELL 1.54180   50.00000   50.00000   50.00000   90.00000   90.00000   90.00000
LATT -1
SFAC C  
C      1  0.4483270000000  0.4159770000000  0.5350100000000 1.0
C      1  0.4681840000000  0.5290110000000  0.4601320000000 1.0
C      1  0.4432560000000  0.5563880000000  0.5491790000000 1.0
C      1  0.4891610000000  0.4288300000000  0.4325740000000 1.0
C      1  0.5584060000000  0.4061310000000  0.5117800000000 1.0
C      1  0.4280150000000  0.4683280000000  0.4099360000000 1.0
C      1  0.5385270000000  0.4919580000000  0.5964330000000 1.0
C      1  0.5779060000000  0.5682880000000  0.5130000000000 1.0
C      1  0.5318300000000  0.4207420000000  0.4743670000000 1.0
C      1  0.5004420000000  0.6094880000000  0.4782670000000 1.0
C      1  0.5240340000000  0.5778690000000  0.4198330000000 1.0
C      1  0.5442720000000  0.4857720000000  0.5317280000000 1.0
C      1  0.4334460000000  0.5744880000000  0.4855180000000 1.0
C      1  0.5851120000000  0.5498510000000  0.4694450000000 1.0
C      1  0.5364910000000  0.3972980000000  0.4904480000000 1.0
C      1  0.4735860000000  0.4971960000000  0.6106090000000 1.0
C      1  0.5274180000000  0.4667560000000  0.5202660000000 1.0
C      1  0.4659760000000  0.4316150000000  0.5751000000000 1.0
C      1  0.4831930000000  0.3850550000000  0.4993560000000 1.0
C      1  0.5546530000000  0.4700560000000  0.5890120000000 1.0
C      1  0.4869480000000  0.5520020000000  0.4692280000000 1.0
C      1  0.5029070000000  0.5127830000000  0.4937140000000 1.0
C      1  0.4801640000000  0.4545010000000  0.4827060000000 1.0
C      1  0.5234910000000  0.4936890000000  0.5505490000000 1.0
C      1  0.5749520000000  0.5408270000000  0.5543770000000 1.0
C      1  0.5752090000000  0.4615760000000  0.5539910000000 1.0
C      1  0.4695660000000  0.4890110000000  0.5540260000000 1.0
C      1  0.4104530000000  0.4777230000000  0.5633810000000 1.0
C      1  0.5092640000000  0.5163010000000  0.4659330000000 1.0
C      1  0.5552130000000  0.5613770000000  0.5577090000000 1.0
C      1  0.4888730000000  0.6010160000000  0.4523570000000 1.0
C      1  0.4086190000000  0.5249950000000  0.5395290000000 1.0
C      1  0.4792920000000  0.4490970000000  0.4168260000000 1.0
C      1  0.5255140000000  0.5294860000000  0.4062430000000 1.0
C      1  0.4981360000000  0.4683340000000  0.4005750000000 1.0
C      1  0.5971830000000  0.4962870000000  0.5316360000000 1.0
C      1  0.4419700000000  0.4341000000000  0.5566400000000 1.0
C      1  0.4268580000000  0.4696740000000  0.4702630000000 1.0
C      1  0.4887470000000  0.6088870000000  0.5059310000000 1.0
C      1  0.4912160000000  0.4037550000000  0.4651660000000 1.0
C      1  0.5077460000000  0.4133130000000  0.4420980000000 1.0
C      1  0.5128200000000  0.4135430000000  0.5623590000000 1.0
C      1  0.4815800000000  0.4809190000000  0.5849290000000 1.0
C      1  0.4019620000000  0.5202990000000  0.4917740000000 1.0
C      1  0.5245240000000  0.5568220000000  0.4694030000000 1.0
C      1  0.5157270000000  0.5970870000000  0.4399990000000 1.0
C      1  0.4451280000000  0.4980800000000  0.5632400000000 1.0
C      1  0.5120900000000  0.4517620000000  0.5868790000000 1.0
C      1  0.5150630000000  0.5329040000000  0.5172670000000 1.0
C      1  0.4743210000000  0.5478430000000  0.4961140000000 1.0
C      1  0.4113330000000  0.4686570000000  0.4470810000000 1.0
C      1  0.5672490000000  0.5155310000000  0.5665100000000 1.0
C      1  0.5142860000000  0.6137470000000  0.5177320000000 1.0
C      1  0.4602510000000  0.5266570000000  0.5090640000000 1.0
C      1  0.5518700000000  0.5674870000000  0.4279140000000 1.0
C      1  0.5732730000000  0.4845170000000  0.4290400000000 1.0
C      1  0.5103970000000  0.4385490000000  0.4869420000000 1.0
C      1  0.5579500000000  0.4467380000000  0.5739080000000 1.0
C      1  0.4840880000000  0.5147750000000  0.4171210000000 1.0
C      1  0.5803890000000  0.4915320000000  0.5545840000000 1.0
C      1  0.5378530000000  0.4207250000000  0.4461010000000 1.0
C      1  0.4696130000000  0.5912260000000  0.5270580000000 1.0
C      1  0.6058710000000  0.4747760000000  0.4922360000000 1.0
C      1  0.5130090000000  0.4169320000000  0.5323010000000 1.0
C      1  0.5296760000000  0.5629330000000  0.5712190000000 1.0
C      1  0.4783790000000  0.3875160000000  0.5224020000000 1.0
C      1  0.5762410000000  0.4300710000000  0.5112740000000 1.0
C      1  0.4652690000000  0.5371080000000  0.5367240000000 1.0
C      1  0.4739050000000  0.5769240000000  0.4590690000000 1.0
C      1  0.4214180000000  0.4331550000000  0.5054610000000 1.0
C      1  0.4237830000000  0.5659810000000  0.5095700000000 1.0
C      1  0.4010000000000  0.4958610000000  0.5424650000000 1.0
C      1  0.5062530000000  0.5607700000000  0.5172470000000 1.0
C      1  0.4812480000000  0.5155490000000  0.5487750000000 1.0
C      1  0.5936500000000  0.5227830000000  0.4828810000000 1.0
C      1  0.4573030000000  0.4984720000000  0.5035630000000 1.0
C      1  0.4994130000000  0.4355900000000  0.5136080000000 1.0
C      1  0.5766750000000  0.4729450000000  0.4958970000000 1.0
C      1  0.5418220000000  0.5396860000000  0.4854030000000 1.0
C      1  0.5567210000000  0.4410090000000  0.4376470000000 1.0
C      1  0.4310910000000  0.5243460000000  0.4155180000000 1.0
C      1  0.5094090000000  0.5539850000000  0.4101680000000 1.0
C      1  0.4444200000000  0.5816840000000  0.4603740000000 1.0
C      1  0.5713590000000  0.5715980000000  0.4848600000000 1.0
C      1  0.4334060000000  0.4964810000000  0.4111280000000 1.0
C      1  0.4418510000000  0.5781380000000  0.5300200000000 1.0
C      1  0.5929220000000  0.5202930000000  0.5124510000000 1.0
C      1  0.4680870000000  0.3966840000000  0.5457550000000 1.0
C      1  0.5126130000000  0.5837870000000  0.5570050000000 1.0
C      1  0.5382390000000  0.4070870000000  0.5303550000000 1.0
C      1  0.4697560000000  0.4045410000000  0.4854840000000 1.0
C      1  0.4095310000000  0.5203160000000  0.4356730000000 1.0
C      1  0.5661080000000  0.4465530000000  0.4880690000000 1.0
C      1  0.4093530000000  0.5374930000000  0.5132860000000 1.0
C      1  0.5365110000000  0.5480530000000  0.4436690000000 1.0
C      1  0.4777300000000  0.5823960000000  0.5781440000000 1.0
C      1  0.5874700000000  0.5448950000000  0.5272620000000 1.0
C      1  0.4287060000000  0.4517830000000  0.4341770000000 1.0
C      1  0.4526320000000  0.5489080000000  0.4166100000000 1.0
C      1  0.4082170000000  0.4515970000000  0.5245270000000 1.0
C      1  0.4728980000000  0.4665790000000  0.5319990000000 1.0
C      1  0.4413780000000  0.5398030000000  0.4597900000000 1.0
C      1  0.5340580000000  0.4552500000000  0.4941140000000 1.0
C      1  0.4534190000000  0.4616770000000  0.4234930000000 1.0
C      1  0.4856790000000  0.4920510000000  0.5030870000000 1.0
C      1  0.4986090000000  0.4643130000000  0.5216280000000 1.0
C      1  0.4802120000000  0.5630370000000  0.5191950000000 1.0
C      1  0.5743810000000  0.5605750000000  0.4450300000000 1.0
C      1  0.4269850000000  0.4916160000000  0.5824580000000 1.0
C      1  0.5462530000000  0.4670330000000  0.4239070000000 1.0
C      1  0.4688420000000  0.5235730000000  0.5997910000000 1.0
C      1  0.5704960000000  0.5123400000000  0.4227740000000 1.0
C      1  0.3935440000000  0.4921500000000  0.4939090000000 1.0
C      1  0.4945880000000  0.5394110000000  0.5967660000000 1.0
C      1  0.6006540000000  0.4964780000000  0.4730550000000 1.0
C      1  0.5260710000000  0.4754280000000  0.4007070000000 1.0
C      1  0.5220630000000  0.5832350000000  0.5285920000000 1.0
C      1  0.4851110000000  0.5935380000000  0.5542950000000 1.0
C      1  0.4815840000000  0.4769170000000  0.4643960000000 1.0
C      1  0.5355990000000  0.4739780000000  0.4737150000000 1.0
C      1  0.5881970000000  0.4488150000000  0.5307210000000 1.0
C      1  0.5229150000000  0.5388420000000  0.5855280000000 1.0
C      1  0.4399350000000  0.4949480000000  0.4771150000000 1.0
C      1  0.4909750000000  0.4965930000000  0.3946480000000 1.0
C      1  0.5275850000000  0.4698260000000  0.4467230000000 1.0
C      1  0.6072100000000  0.4706790000000  0.5218980000000 1.0
C      1  0.5442320000000  0.5185000000000  0.5851040000000 1.0
C      1  0.5425140000000  0.5795190000000  0.4771950000000 1.0
C      1  0.5613430000000  0.4942730000000  0.5087770000000 1.0
C      1  0.5198130000000  0.5035810000000  0.3927380000000 1.0
C      1  0.4248890000000  0.5374550000000  0.5601340000000 1.0
C      1  0.5280430000000  0.6023330000000  0.4671040000000 1.0
C      1  0.5514980000000  0.5660570000000  0.5276890000000 1.0
C      1  0.4826250000000  0.4514460000000  0.5882600000000 1.0
C      1  0.5154350000000  0.4815710000000  0.5792390000000 1.0
C      1  0.4193160000000  0.4521060000000  0.5518500000000 1.0
C      1  0.5083120000000  0.5165870000000  0.5428610000000 1.0
C      1  0.4624510000000  0.4571060000000  0.5059810000000 1.0
C      1  0.4795760000000  0.5615490000000  0.5928700000000 1.0
C      1  0.5083270000000  0.3889920000000  0.4848300000000 1.0
C      1  0.3993920000000  0.4716920000000  0.4737990000000 1.0
C      1  0.5415140000000  0.5223490000000  0.4302110000000 1.0
C      1  0.4384070000000  0.5606600000000  0.4386580000000 1.0
C      1  0.5882860000000  0.4766100000000  0.4532820000000 1.0
C      1  0.4986260000000  0.5057800000000  0.4405670000000 1.0
C      1  0.4187390000000  0.5203150000000  0.4656480000000 1.0
C      1  0.4509540000000  0.4261730000000  0.5055340000000 1.0
C      1  0.5460780000000  0.4962300000000  0.4841140000000 1.0
C      1  0.3963790000000  0.4793150000000  0.5197020000000 1.0
C      1  0.4646120000000  0.5004750000000  0.4628750000000 1.0
C      1  0.5305320000000  0.4330150000000  0.5757610000000 1.0
C      1  0.5007810000000  0.4774750000000  0.4431110000000 1.0
C      1  0.5387990000000  0.5176670000000  0.4691350000000 1.0
C      1  0.4838640000000  0.4103970000000  0.5671970000000 1.0
C      1  0.5751420000000  0.4510220000000  0.4574620000000 1.0
C      1  0.4392620000000  0.5191060000000  0.5808420000000 1.0
C      1  0.4809200000000  0.5437830000000  0.4124450000000 1.0
C      1  0.5427310000000  0.5402730000000  0.5135250000000 1.0
END
