TITL C-883737-113-129 3.55465585583159 125000 -1663.69901542465 0 0 13 (C1) n - 1
REM
REM in /home/nfs/bkarasulu/CARBON/AIRSS/Generating-Clusters/ReaxFF-fromJPCA2015/Units_Real/with-SteepDescent/Only-C1/SD-CG/Try1-3A/FIRE-CG
REM
REM
REM
REM
REM
REM ./C.cell (11c1c37f851c82e70ff6c80c92926a4b)
REM
REM compiler GCC version 9.2.1 20190827 (Red Hat 9.2.1-1)
REM options -cpp -mtune=generic -march=x86-64 -g -O0 -fpre-include=/usr/include/finclude/math-vector-fortran.h
REM seed -692886354 -2128007445 1730413184 532752634 -669938091 -361200278 -739280650 -857592227 -1696877776 253715896 1232798923 -415905058 -816655499 1863127335 1166742618 -562118059 -561747795 -416474923 -1991944452 1826331175 -408661899 -641385857 -1658053781 -754822951 1083398855 809069246 -2040950159 -1990876056 -1857872467 -860481353 1925950803 -672504488 -1681065640
REM
CELL 1.54180   50.00000   50.00000   50.00000   90.00000   90.00000   90.00000
LATT -1
SFAC C  
C      1  0.5262130000000  0.5029350000000  0.4837670000000 1.0
C      1  0.5038480000000  0.4462870000000  0.4782760000000 1.0
C      1  0.5015060000000  0.5485500000000  0.5554960000000 1.0
C      1  0.4662330000000  0.5228260000000  0.5209060000000 1.0
C      1  0.4635430000000  0.5386500000000  0.4817680000000 1.0
C      1  0.5485630000000  0.4926930000000  0.4880260000000 1.0
C      1  0.4864290000000  0.5375550000000  0.5407110000000 1.0
C      1  0.4477030000000  0.5079600000000  0.5307050000000 1.0
C      1  0.5358980000000  0.4427640000000  0.4860610000000 1.0
C      1  0.5471910000000  0.4676970000000  0.4880550000000 1.0
C      1  0.4760060000000  0.5190090000000  0.4898430000000 1.0
C      1  0.4988880000000  0.5000280000000  0.4784420000000 1.0
C      1  0.4979790000000  0.4730460000000  0.4779430000000 1.0
END
