TITL C-883726-8501-477 2.00799482051953 125000 -22879.3460394817 0 0 153 (C1) n - 1
REM
REM in /home/nfs/bkarasulu/CARBON/AIRSS/Generating-Clusters/ReaxFF-fromJPCA2015/Units_Real/with-SteepDescent/Only-C1/SD-CG/Try1-3A/FIRE-CG
REM
REM
REM
REM
REM
REM ./C.cell (11c1c37f851c82e70ff6c80c92926a4b)
REM
REM compiler GCC version 9.2.1 20190827 (Red Hat 9.2.1-1)
REM options -cpp -mtune=generic -march=x86-64 -g -O0 -fpre-include=/usr/include/finclude/math-vector-fortran.h
REM seed 1263883142 -1608150494 -947559067 -27020199 1363929054 717531031 -517721129 970490303 1898092688 2139342863 -1394077093 2031063132 2100095448 -394699573 -684850896 -1600653419 -930943562 1241767616 697763510 2049712448 361900078 831709932 875186804 1313204861 -944373592 -354920992 737190365 -1050297322 -412476689 -1340236056 -586201942 8648004 -2143131043
REM
CELL 1.54180   50.00000   50.00000   50.00000   90.00000   90.00000   90.00000
LATT -1
SFAC C  
C      1  0.4348080000000  0.4443180000000  0.4333940000000 1.0
C      1  0.5574950000000  0.4889700000000  0.5271300000000 1.0
C      1  0.5540460000000  0.5333110000000  0.4183240000000 1.0
C      1  0.5048930000000  0.5506590000000  0.3998040000000 1.0
C      1  0.5513270000000  0.4792550000000  0.5776860000000 1.0
C      1  0.5462270000000  0.4369260000000  0.4262780000000 1.0
C      1  0.5026090000000  0.4165580000000  0.4370330000000 1.0
C      1  0.4702620000000  0.4467830000000  0.4633630000000 1.0
C      1  0.4865350000000  0.5074790000000  0.4528770000000 1.0
C      1  0.4882730000000  0.5891350000000  0.4408100000000 1.0
C      1  0.4967050000000  0.5546810000000  0.4818270000000 1.0
C      1  0.5242800000000  0.5483200000000  0.4769880000000 1.0
C      1  0.5005760000000  0.6013970000000  0.5122770000000 1.0
C      1  0.4229480000000  0.5088190000000  0.5676570000000 1.0
C      1  0.4123170000000  0.5215090000000  0.5439990000000 1.0
C      1  0.5165590000000  0.4635580000000  0.5559750000000 1.0
C      1  0.5273300000000  0.4492400000000  0.4626060000000 1.0
C      1  0.4243870000000  0.4674710000000  0.5038380000000 1.0
C      1  0.4471660000000  0.5643220000000  0.5567730000000 1.0
C      1  0.5133930000000  0.4186770000000  0.5560500000000 1.0
C      1  0.4115900000000  0.4706590000000  0.4644320000000 1.0
C      1  0.4559730000000  0.5479820000000  0.5800370000000 1.0
C      1  0.4910600000000  0.5031060000000  0.5411280000000 1.0
C      1  0.4673850000000  0.4968800000000  0.4335950000000 1.0
C      1  0.5106540000000  0.5204590000000  0.4441500000000 1.0
C      1  0.4399230000000  0.4984830000000  0.4435810000000 1.0
C      1  0.5611960000000  0.4272550000000  0.5332270000000 1.0
C      1  0.4730530000000  0.5491360000000  0.4653470000000 1.0
C      1  0.6129520000000  0.4830680000000  0.4893710000000 1.0
C      1  0.4048930000000  0.4564270000000  0.5390660000000 1.0
C      1  0.5780960000000  0.5474520000000  0.4659980000000 1.0
C      1  0.4982650000000  0.4997370000000  0.3993780000000 1.0
C      1  0.5749860000000  0.4520550000000  0.4823940000000 1.0
C      1  0.4194800000000  0.5202190000000  0.4370190000000 1.0
C      1  0.5833380000000  0.4741800000000  0.5315420000000 1.0
C      1  0.5338130000000  0.5247710000000  0.4878900000000 1.0
C      1  0.5244290000000  0.5370460000000  0.5479490000000 1.0
C      1  0.4554360000000  0.4067170000000  0.4761950000000 1.0
C      1  0.4292700000000  0.4703220000000  0.5464010000000 1.0
C      1  0.4647330000000  0.4037430000000  0.5007690000000 1.0
C      1  0.4800520000000  0.4760170000000  0.4140480000000 1.0
C      1  0.5348510000000  0.5600280000000  0.4530050000000 1.0
C      1  0.4714100000000  0.5028260000000  0.5633580000000 1.0
C      1  0.4923290000000  0.4053710000000  0.4620590000000 1.0
C      1  0.5779710000000  0.5013940000000  0.4539630000000 1.0
C      1  0.4658400000000  0.5819770000000  0.5424130000000 1.0
C      1  0.4653320000000  0.4704720000000  0.4779030000000 1.0
C      1  0.4521820000000  0.4638000000000  0.5804630000000 1.0
C      1  0.5319730000000  0.4993840000000  0.4448160000000 1.0
C      1  0.4614490000000  0.4413210000000  0.4374970000000 1.0
C      1  0.5459520000000  0.5859670000000  0.4891380000000 1.0
C      1  0.4451630000000  0.4843790000000  0.5180840000000 1.0
C      1  0.5907200000000  0.5236060000000  0.5362470000000 1.0
C      1  0.5244400000000  0.4489480000000  0.5110870000000 1.0
C      1  0.4922110000000  0.5956310000000  0.5403120000000 1.0
C      1  0.4693970000000  0.5945960000000  0.4653480000000 1.0
C      1  0.5936220000000  0.5228940000000  0.4671470000000 1.0
C      1  0.4371840000000  0.4840320000000  0.4688640000000 1.0
C      1  0.4619790000000  0.4379950000000  0.5656770000000 1.0
C      1  0.5139710000000  0.4412720000000  0.4861990000000 1.0
C      1  0.5136140000000  0.5477860000000  0.4387840000000 1.0
C      1  0.5101350000000  0.5132150000000  0.4992640000000 1.0
C      1  0.5158990000000  0.4769650000000  0.6022400000000 1.0
C      1  0.3964520000000  0.5146640000000  0.4948350000000 1.0
C      1  0.5376370000000  0.4734070000000  0.5046740000000 1.0
C      1  0.5577670000000  0.4201740000000  0.5039540000000 1.0
C      1  0.5059670000000  0.4648090000000  0.4210320000000 1.0
C      1  0.5801340000000  0.5702130000000  0.5195470000000 1.0
C      1  0.5146940000000  0.4710590000000  0.4481270000000 1.0
C      1  0.4494120000000  0.5204190000000  0.5719410000000 1.0
C      1  0.4940230000000  0.4324660000000  0.5722110000000 1.0
C      1  0.3995640000000  0.4759650000000  0.5175260000000 1.0
C      1  0.4331570000000  0.4258450000000  0.4799280000000 1.0
C      1  0.5620900000000  0.5485910000000  0.4427040000000 1.0
C      1  0.4797670000000  0.5570690000000  0.5339050000000 1.0
C      1  0.5278740000000  0.5246350000000  0.5969420000000 1.0
C      1  0.4206040000000  0.4429150000000  0.4590880000000 1.0
C      1  0.4724340000000  0.4840700000000  0.5859580000000 1.0
C      1  0.5557420000000  0.4740270000000  0.4840220000000 1.0
C      1  0.4283320000000  0.4796750000000  0.5734370000000 1.0
C      1  0.5728950000000  0.4376330000000  0.4564500000000 1.0
C      1  0.5090210000000  0.5989410000000  0.4559920000000 1.0
C      1  0.4940170000000  0.4837720000000  0.4688670000000 1.0
C      1  0.5398140000000  0.5905330000000  0.5381070000000 1.0
C      1  0.5169700000000  0.5907360000000  0.5560900000000 1.0
C      1  0.4727690000000  0.4050720000000  0.5269080000000 1.0
C      1  0.5539360000000  0.5357930000000  0.5047440000000 1.0
C      1  0.5420300000000  0.4287770000000  0.5555640000000 1.0
C      1  0.5385760000000  0.5499880000000  0.5853150000000 1.0
C      1  0.5656850000000  0.5614110000000  0.4931470000000 1.0
C      1  0.4908490000000  0.4763970000000  0.5200600000000 1.0
C      1  0.5262410000000  0.5076760000000  0.3980740000000 1.0
C      1  0.6118700000000  0.5124560000000  0.4883210000000 1.0
C      1  0.4386220000000  0.4238710000000  0.5527090000000 1.0
C      1  0.5361810000000  0.4883820000000  0.5527530000000 1.0
C      1  0.5773820000000  0.4494850000000  0.5460370000000 1.0
C      1  0.5002970000000  0.5523050000000  0.5532910000000 1.0
C      1  0.4180290000000  0.4304580000000  0.5331060000000 1.0
C      1  0.4560890000000  0.5569220000000  0.4878560000000 1.0
C      1  0.5953650000000  0.5501360000000  0.5304490000000 1.0
C      1  0.4926540000000  0.4939760000000  0.6053410000000 1.0
C      1  0.5050520000000  0.4538120000000  0.5314490000000 1.0
C      1  0.4976570000000  0.5651830000000  0.4248790000000 1.0
C      1  0.4114610000000  0.5425130000000  0.4917000000000 1.0
C      1  0.4865040000000  0.5267560000000  0.3962570000000 1.0
C      1  0.4843970000000  0.5994950000000  0.4888020000000 1.0
C      1  0.5304870000000  0.5959800000000  0.5110230000000 1.0
C      1  0.6122630000000  0.5137110000000  0.5183290000000 1.0
C      1  0.5020420000000  0.4020260000000  0.5330910000000 1.0
C      1  0.5859770000000  0.4745140000000  0.4454410000000 1.0
C      1  0.5181710000000  0.5103190000000  0.5493390000000 1.0
C      1  0.5461160000000  0.4285770000000  0.4542010000000 1.0
C      1  0.4994910000000  0.5227940000000  0.6026170000000 1.0
C      1  0.5376920000000  0.4956680000000  0.5975750000000 1.0
C      1  0.4585350000000  0.5490000000000  0.4387120000000 1.0
C      1  0.5349250000000  0.5905370000000  0.4631530000000 1.0
C      1  0.4850760000000  0.5204100000000  0.5127250000000 1.0
C      1  0.5699600000000  0.4532290000000  0.4321280000000 1.0
C      1  0.5095670000000  0.4855840000000  0.4974650000000 1.0
C      1  0.3992830000000  0.5094540000000  0.4531620000000 1.0
C      1  0.4901460000000  0.5486110000000  0.5093470000000 1.0
C      1  0.4544450000000  0.4602670000000  0.4182450000000 1.0
C      1  0.5435390000000  0.4077520000000  0.4819800000000 1.0
C      1  0.4287130000000  0.5478120000000  0.4426630000000 1.0
C      1  0.4940070000000  0.5649800000000  0.5796800000000 1.0
C      1  0.5647020000000  0.5175110000000  0.5225390000000 1.0
C      1  0.4808550000000  0.5450010000000  0.5959940000000 1.0
C      1  0.5139440000000  0.3981350000000  0.5084680000000 1.0
C      1  0.5214800000000  0.5743880000000  0.5808960000000 1.0
C      1  0.5496770000000  0.5486520000000  0.5583570000000 1.0
C      1  0.5167340000000  0.3961830000000  0.4818990000000 1.0
C      1  0.5576160000000  0.4515940000000  0.5681200000000 1.0
C      1  0.4097620000000  0.5591700000000  0.5182650000000 1.0
C      1  0.3993430000000  0.5058570000000  0.5217660000000 1.0
C      1  0.6080460000000  0.4839910000000  0.5189440000000 1.0
C      1  0.4676240000000  0.4697720000000  0.5064440000000 1.0
C      1  0.4585790000000  0.4292100000000  0.5358580000000 1.0
C      1  0.5526320000000  0.4993660000000  0.4693610000000 1.0
C      1  0.4432610000000  0.5791280000000  0.4737580000000 1.0
C      1  0.5167610000000  0.4371140000000  0.4213200000000 1.0
C      1  0.5617950000000  0.5713700000000  0.5431510000000 1.0
C      1  0.3921590000000  0.4931310000000  0.4744230000000 1.0
C      1  0.4212250000000  0.5615470000000  0.4666770000000 1.0
C      1  0.5114230000000  0.4535610000000  0.5823020000000 1.0
C      1  0.5312440000000  0.5374920000000  0.3988400000000 1.0
C      1  0.4226480000000  0.5500530000000  0.5421570000000 1.0
C      1  0.4409080000000  0.5325000000000  0.4970370000000 1.0
C      1  0.4313090000000  0.4387390000000  0.5073730000000 1.0
C      1  0.4542050000000  0.5126900000000  0.5091260000000 1.0
C      1  0.5469590000000  0.5048730000000  0.4190450000000 1.0
C      1  0.5987310000000  0.4651830000000  0.4706670000000 1.0
C      1  0.4878190000000  0.4301560000000  0.4782060000000 1.0
C      1  0.4677710000000  0.5389650000000  0.4139670000000 1.0
END
