TITL C-884138-6203-8 -526625.651238208 125000 -25281.0331837545 0 0 165 (C1) n - 1
REM
REM in /home/nfs/bkarasulu/CARBON/AIRSS/Generating-Clusters/ReaxFF-fromJPCA2015/Units_Real/with-SteepDescent/Only-C1/SD-CG/Try1-3A/FIRE-CG
REM
REM
REM
REM
REM
REM ./C.cell (11c1c37f851c82e70ff6c80c92926a4b)
REM
REM compiler GCC version 9.2.1 20190827 (Red Hat 9.2.1-1)
REM options -cpp -mtune=generic -march=x86-64 -g -O0 -fpre-include=/usr/include/finclude/math-vector-fortran.h
REM seed 1441512865 -2020803659 -403107064 -1733303718 -477931737 -1946221401 -2105043416 1668811098 1313946493 -1897105184 -1035539541 -1216434083 -1686332674 -1050656970 1509986141 1040187917 -1193971648 80937018 1538711159 -1861262983 -1003962990 1102549456 851622192 945131032 1632054316 -1639750504 -761342499 -2053233890 -62316637 411740147 -229925123 1301674583 2066297212
REM
CELL 1.54180   50.00000   50.00000   50.00000   90.00000   90.00000   90.00000
LATT -1
SFAC C  
C      1  0.6038150000000  0.5134730000000  0.4874990000000 1.0
C      1  0.5464460000000  0.5870670000000  0.4638090000000 1.0
C      1  0.4441300000000  0.5802990000000  0.4360330000000 1.0
C      1  0.5098300000000  0.5064680000000  0.4004820000000 1.0
C      1  0.4619180000000  0.5250490000000  0.5301940000000 1.0
C      1  0.5290500000000  0.4659580000000  0.4802300000000 1.0
C      1  0.5082650000000  0.5221890000000  0.6088380000000 1.0
C      1  0.5853170000000  0.4745820000000  0.5190600000000 1.0
C      1  0.5150320000000  0.5461410000000  0.5417950000000 1.0
C      1  0.4729540000000  0.4979760000000  0.5371150000000 1.0
C      1  0.5562680000000  0.4028160000000  0.5030960000000 1.0
C      1  0.5889700000000  0.5289920000000  0.5629030000000 1.0
C      1  0.4257630000000  0.5231350000000  0.5799410000000 1.0
C      1  0.5735300000000  0.4515970000000  0.4262420000000 1.0
C      1  0.4899040000000  0.4847650000000  0.3997800000000 1.0
C      1  0.4326840000000  0.4218240000000  0.4576400000000 1.0
C      1  0.4669080000000  0.4512580000000  0.5868900000000 1.0
C      1  0.3958850000000  0.5385210000000  0.5021470000000 1.0
C      1  0.5839630000000  0.4594100000000  0.5432410000000 1.0
C      1  0.4492830000000  0.4464000000000  0.4143670000000 1.0
C      1  0.4139020000000  0.5003860000000  0.5659600000000 1.0
C      1  0.5044710000000  0.4123880000000  0.5552490000000 1.0
C      1  0.4294560000000  0.4341950000000  0.5506850000000 1.0
C      1  0.4710030000000  0.5333440000000  0.5053150000000 1.0
C      1  0.5698130000000  0.5554570000000  0.5301400000000 1.0
C      1  0.4844930000000  0.5507010000000  0.4077870000000 1.0
C      1  0.5356690000000  0.5138690000000  0.6032920000000 1.0
C      1  0.5494980000000  0.5361280000000  0.5172630000000 1.0
C      1  0.4829460000000  0.5114610000000  0.4612560000000 1.0
C      1  0.4674420000000  0.5711800000000  0.5465410000000 1.0
C      1  0.4793940000000  0.4664740000000  0.4656630000000 1.0
C      1  0.5204030000000  0.5936670000000  0.5310530000000 1.0
C      1  0.5051930000000  0.5701890000000  0.5801040000000 1.0
C      1  0.5533160000000  0.5059160000000  0.4173890000000 1.0
C      1  0.5653910000000  0.4224600000000  0.4639840000000 1.0
C      1  0.4617280000000  0.4917960000000  0.3918960000000 1.0
C      1  0.4551430000000  0.5507920000000  0.4707640000000 1.0
C      1  0.5896170000000  0.5601280000000  0.4614600000000 1.0
C      1  0.5453930000000  0.5080050000000  0.4758270000000 1.0
C      1  0.5099870000000  0.4748190000000  0.6038170000000 1.0
C      1  0.5946150000000  0.5169920000000  0.4414450000000 1.0
C      1  0.5272700000000  0.5235160000000  0.4627130000000 1.0
C      1  0.5304600000000  0.4153910000000  0.5381500000000 1.0
C      1  0.5630300000000  0.5436580000000  0.5728840000000 1.0
C      1  0.5622980000000  0.4286260000000  0.4366450000000 1.0
C      1  0.5031820000000  0.5868840000000  0.5079420000000 1.0
C      1  0.4500440000000  0.4153080000000  0.5408440000000 1.0
C      1  0.5569660000000  0.5511120000000  0.4263870000000 1.0
C      1  0.5111310000000  0.4237570000000  0.5800790000000 1.0
C      1  0.4528620000000  0.4782540000000  0.4683590000000 1.0
C      1  0.4233190000000  0.4729530000000  0.5697020000000 1.0
C      1  0.4590370000000  0.5131110000000  0.4465400000000 1.0
C      1  0.4926110000000  0.4978110000000  0.6044150000000 1.0
C      1  0.5808530000000  0.4760350000000  0.5700830000000 1.0
C      1  0.4947080000000  0.4506430000000  0.5066330000000 1.0
C      1  0.5573470000000  0.5950520000000  0.4914070000000 1.0
C      1  0.4261660000000  0.5704820000000  0.5248470000000 1.0
C      1  0.5147290000000  0.5635260000000  0.4963700000000 1.0
C      1  0.5756830000000  0.4238490000000  0.5095510000000 1.0
C      1  0.4193460000000  0.5393480000000  0.4288860000000 1.0
C      1  0.4101610000000  0.5466920000000  0.4552800000000 1.0
C      1  0.4860220000000  0.6032740000000  0.4876220000000 1.0
C      1  0.4565020000000  0.5467480000000  0.3974990000000 1.0
C      1  0.5885540000000  0.5660240000000  0.4872060000000 1.0
C      1  0.4827070000000  0.4517750000000  0.5337240000000 1.0
C      1  0.5722110000000  0.5246270000000  0.4236920000000 1.0
C      1  0.6068720000000  0.4868540000000  0.4752700000000 1.0
C      1  0.5944770000000  0.4597670000000  0.4725210000000 1.0
C      1  0.5632090000000  0.5692140000000  0.4482060000000 1.0
C      1  0.5245300000000  0.5779380000000  0.4288670000000 1.0
C      1  0.5675760000000  0.4848590000000  0.5017790000000 1.0
C      1  0.4091620000000  0.5464020000000  0.5714850000000 1.0
C      1  0.5299390000000  0.4616540000000  0.5497430000000 1.0
C      1  0.5848890000000  0.5021480000000  0.5666910000000 1.0
C      1  0.5222610000000  0.4640500000000  0.4270960000000 1.0
C      1  0.5813180000000  0.4362930000000  0.4835450000000 1.0
C      1  0.4583620000000  0.5195710000000  0.3933440000000 1.0
C      1  0.4732480000000  0.4998980000000  0.5813370000000 1.0
C      1  0.4912510000000  0.6005460000000  0.4586020000000 1.0
C      1  0.4580470000000  0.4683570000000  0.5358680000000 1.0
C      1  0.5356940000000  0.5132990000000  0.5276200000000 1.0
C      1  0.5448440000000  0.4516260000000  0.5735870000000 1.0
C      1  0.4839150000000  0.4016280000000  0.5103930000000 1.0
C      1  0.4365980000000  0.5596840000000  0.4168890000000 1.0
C      1  0.4976510000000  0.4521430000000  0.5863750000000 1.0
C      1  0.4518240000000  0.5867360000000  0.5260640000000 1.0
C      1  0.5305030000000  0.5546630000000  0.4138210000000 1.0
C      1  0.4769390000000  0.4391590000000  0.4211190000000 1.0
C      1  0.4261960000000  0.4677230000000  0.4500180000000 1.0
C      1  0.4112450000000  0.4567840000000  0.5490250000000 1.0
C      1  0.4009690000000  0.5009460000000  0.5390180000000 1.0
C      1  0.3976880000000  0.4778480000000  0.4938290000000 1.0
C      1  0.4177090000000  0.4358820000000  0.4796470000000 1.0
C      1  0.4842690000000  0.5656130000000  0.4337880000000 1.0
C      1  0.4442760000000  0.4164530000000  0.5119950000000 1.0
C      1  0.4949780000000  0.4989670000000  0.5187210000000 1.0
C      1  0.4067450000000  0.4757980000000  0.5237270000000 1.0
C      1  0.5159630000000  0.5056980000000  0.5055920000000 1.0
C      1  0.4770490000000  0.5750220000000  0.5739280000000 1.0
C      1  0.4805140000000  0.4174880000000  0.5380650000000 1.0
C      1  0.5087840000000  0.5355470000000  0.4038140000000 1.0
C      1  0.4332160000000  0.4424600000000  0.5031530000000 1.0
C      1  0.4348150000000  0.5130290000000  0.4324560000000 1.0
C      1  0.5069310000000  0.5462550000000  0.4744890000000 1.0
C      1  0.5331470000000  0.3969930000000  0.5173360000000 1.0
C      1  0.5375530000000  0.4841150000000  0.6038640000000 1.0
C      1  0.4257640000000  0.4856710000000  0.4258300000000 1.0
C      1  0.4000680000000  0.5276190000000  0.4756110000000 1.0
C      1  0.4856460000000  0.4422830000000  0.4801670000000 1.0
C      1  0.4795850000000  0.4187900000000  0.4428420000000 1.0
C      1  0.4553320000000  0.5276590000000  0.5815680000000 1.0
C      1  0.5102050000000  0.5029670000000  0.4526570000000 1.0
C      1  0.4325210000000  0.5663160000000  0.4592240000000 1.0
C      1  0.3907580000000  0.5395980000000  0.5510810000000 1.0
C      1  0.5769350000000  0.4324720000000  0.5372960000000 1.0
C      1  0.4927220000000  0.5246250000000  0.4877960000000 1.0
C      1  0.5473620000000  0.4038620000000  0.4759970000000 1.0
C      1  0.5421380000000  0.5995860000000  0.5149200000000 1.0
C      1  0.5217600000000  0.4516100000000  0.5034700000000 1.0
C      1  0.4549800000000  0.5440400000000  0.5509970000000 1.0
C      1  0.4642420000000  0.5976720000000  0.5035760000000 1.0
C      1  0.4037740000000  0.4602120000000  0.4720990000000 1.0
C      1  0.6024740000000  0.4906260000000  0.4472500000000 1.0
C      1  0.4408690000000  0.4951720000000  0.4894100000000 1.0
C      1  0.5250110000000  0.5716400000000  0.5549020000000 1.0
C      1  0.6059970000000  0.5192620000000  0.5165790000000 1.0
C      1  0.5455430000000  0.4461710000000  0.4229700000000 1.0
C      1  0.5331300000000  0.4440360000000  0.5277460000000 1.0
C      1  0.6011360000000  0.4924600000000  0.5239270000000 1.0
C      1  0.4625270000000  0.4043570000000  0.4919600000000 1.0
C      1  0.5209880000000  0.5193070000000  0.5539410000000 1.0
C      1  0.5407070000000  0.5255110000000  0.5771720000000 1.0
C      1  0.5771620000000  0.5793060000000  0.5075150000000 1.0
C      1  0.5400960000000  0.4234760000000  0.5800480000000 1.0
C      1  0.5546920000000  0.5641690000000  0.5556300000000 1.0
C      1  0.4811180000000  0.5535810000000  0.4597940000000 1.0
C      1  0.5261660000000  0.5505420000000  0.5167700000000 1.0
C      1  0.4952900000000  0.4970570000000  0.5614100000000 1.0
C      1  0.5324670000000  0.4905080000000  0.4107590000000 1.0
C      1  0.4123100000000  0.5002410000000  0.4817600000000 1.0
C      1  0.5508600000000  0.4836500000000  0.4824010000000 1.0
C      1  0.4983110000000  0.5489030000000  0.5995340000000 1.0
C      1  0.5101040000000  0.3938750000000  0.5008710000000 1.0
C      1  0.4717560000000  0.5915650000000  0.4387210000000 1.0
C      1  0.4225090000000  0.5491400000000  0.5051910000000 1.0
C      1  0.4963370000000  0.4593190000000  0.4127010000000 1.0
C      1  0.5103670000000  0.4731640000000  0.4580690000000 1.0
C      1  0.5595760000000  0.4700950000000  0.5904860000000 1.0
C      1  0.4700660000000  0.5518230000000  0.5920330000000 1.0
C      1  0.4310620000000  0.4410870000000  0.4363860000000 1.0
C      1  0.5183780000000  0.4017790000000  0.4741500000000 1.0
C      1  0.5939470000000  0.5378210000000  0.5357130000000 1.0
C      1  0.4382270000000  0.4703450000000  0.5133160000000 1.0
C      1  0.5593670000000  0.4138970000000  0.5566060000000 1.0
C      1  0.5900260000000  0.4655420000000  0.4447200000000 1.0
C      1  0.6002740000000  0.5324530000000  0.4650140000000 1.0
C      1  0.5202130000000  0.5947780000000  0.4508350000000 1.0
C      1  0.4542950000000  0.4724470000000  0.5710520000000 1.0
C      1  0.4268440000000  0.5600020000000  0.5518590000000 1.0
C      1  0.4451750000000  0.5317510000000  0.4922120000000 1.0
C      1  0.5017920000000  0.4677970000000  0.5562950000000 1.0
C      1  0.3864590000000  0.5244520000000  0.5277900000000 1.0
C      1  0.4419860000000  0.4735480000000  0.4055940000000 1.0
C      1  0.5003920000000  0.4222860000000  0.4630190000000 1.0
C      1  0.4590620000000  0.4102440000000  0.4624170000000 1.0
END
