TITL C-883726-8501-320 0.0170094151786366 125000 -3061.20245442857 0 0 22 (C1) n - 1
REM
REM in /home/nfs/bkarasulu/CARBON/AIRSS/Generating-Clusters/ReaxFF-fromJPCA2015/Units_Real/with-SteepDescent/Only-C1/SD-CG/Try1-3A/FIRE-CG
REM
REM
REM
REM
REM
REM ./C.cell (11c1c37f851c82e70ff6c80c92926a4b)
REM
REM compiler GCC version 9.2.1 20190827 (Red Hat 9.2.1-1)
REM options -cpp -mtune=generic -march=x86-64 -g -O0 -fpre-include=/usr/include/finclude/math-vector-fortran.h
REM seed -1720152538 1763425771 -1021531195 1803375161 -235946770 -1444425119 -1023837662 1351595527 -1341415287 1345364079 -698747280 1408054659 -957125647 953675632 1767776949 -1846206112 622394359 -1210656388 777202299 1339910772 -520291124 1191935914 891948378 110532773 1505650658 1633447896 -1468629839 1324980369 138179335 1626670176 -1091319937 1088976927 -906135653
REM
CELL 1.54180   50.00000   50.00000   50.00000   90.00000   90.00000   90.00000
LATT -1
SFAC C  
C      1  0.4641860000000  0.4925280000000  0.5156190000000 1.0
C      1  0.4698990000000  0.4454040000000  0.4978830000000 1.0
C      1  0.4906070000000  0.5137020000000  0.5537880000000 1.0
C      1  0.4741760000000  0.5168910000000  0.5299530000000 1.0
C      1  0.5352330000000  0.5204380000000  0.5290200000000 1.0
C      1  0.4691970000000  0.5264920000000  0.4640500000000 1.0
C      1  0.4590050000000  0.4988440000000  0.4668390000000 1.0
C      1  0.4785100000000  0.4759500000000  0.4637770000000 1.0
C      1  0.5285860000000  0.4848340000000  0.4816730000000 1.0
C      1  0.5413420000000  0.5098920000000  0.4902720000000 1.0
C      1  0.5283830000000  0.5321390000000  0.5045120000000 1.0
C      1  0.4997720000000  0.4790890000000  0.4836210000000 1.0
C      1  0.4788390000000  0.5412100000000  0.5138230000000 1.0
C      1  0.4447840000000  0.4970200000000  0.4936260000000 1.0
C      1  0.5644530000000  0.5008910000000  0.5093890000000 1.0
C      1  0.5033660000000  0.5477790000000  0.5006250000000 1.0
C      1  0.4831330000000  0.4711290000000  0.5065520000000 1.0
C      1  0.5713380000000  0.4721010000000  0.5029980000000 1.0
C      1  0.5487090000000  0.4628160000000  0.4855750000000 1.0
C      1  0.5211400000000  0.5162500000000  0.5540360000000 1.0
C      1  0.4666050000000  0.4485090000000  0.4681060000000 1.0
C      1  0.4787370000000  0.5460910000000  0.4842620000000 1.0
END
