TITL C-883741-3679-256 53.22464842025 125000 -26886.1094274764 0 0 180 (C1) n - 1
REM
REM in /home/nfs/bkarasulu/CARBON/AIRSS/Generating-Clusters/ReaxFF-fromJPCA2015/Units_Real/with-SteepDescent/Only-C1/SD-CG/Try1-3A/FIRE-CG
REM
REM
REM
REM
REM
REM ./C.cell (11c1c37f851c82e70ff6c80c92926a4b)
REM
REM compiler GCC version 9.2.1 20190827 (Red Hat 9.2.1-1)
REM options -cpp -mtune=generic -march=x86-64 -g -O0 -fpre-include=/usr/include/finclude/math-vector-fortran.h
REM seed -950650467 1200001976 -1764823376 -371041311 1988869319 387131475 -1952658999 -454231508 2108115414 1481371500 1818991089 350024037 -1501586148 188919004 -1839757313 1216232747 1486359172 561187466 -1638787779 1066701552 1903673112 -349740103 1743324012 3190549 986336188 739141818 -2130151647 -1708138846 -2121860621 -1627890940 -864114338 -584337509 1596827784
REM
CELL 1.54180   50.00000   50.00000   50.00000   90.00000   90.00000   90.00000
LATT -1
SFAC C  
C      1  0.5686290000000  0.5842160000000  0.4576470000000 1.0
C      1  0.5820690000000  0.5086070000000  0.4104620000000 1.0
C      1  0.5329500000000  0.4920550000000  0.3945550000000 1.0
C      1  0.4467160000000  0.4303480000000  0.4746800000000 1.0
C      1  0.5965200000000  0.4948550000000  0.5532650000000 1.0
C      1  0.4869470000000  0.4090720000000  0.4849930000000 1.0
C      1  0.4507730000000  0.3964900000000  0.5124790000000 1.0
C      1  0.4445450000000  0.5332070000000  0.4094410000000 1.0
C      1  0.6013800000000  0.4581460000000  0.4979820000000 1.0
C      1  0.5232500000000  0.4745950000000  0.5991730000000 1.0
C      1  0.4706070000000  0.4785450000000  0.5212780000000 1.0
C      1  0.4597220000000  0.4546040000000  0.5847240000000 1.0
C      1  0.4800590000000  0.4334140000000  0.5185090000000 1.0
C      1  0.5088120000000  0.5327320000000  0.4326670000000 1.0
C      1  0.5505060000000  0.4037950000000  0.4830440000000 1.0
C      1  0.5163240000000  0.4937510000000  0.5341200000000 1.0
C      1  0.3951170000000  0.5368180000000  0.4889930000000 1.0
C      1  0.5451160000000  0.5823430000000  0.5653920000000 1.0
C      1  0.5623470000000  0.5296290000000  0.4008570000000 1.0
C      1  0.5248890000000  0.4334820000000  0.5744390000000 1.0
C      1  0.4786740000000  0.6186360000000  0.5097610000000 1.0
C      1  0.6008250000000  0.5029450000000  0.4760190000000 1.0
C      1  0.4325960000000  0.4302330000000  0.4305000000000 1.0
C      1  0.4812980000000  0.4854400000000  0.6150360000000 1.0
C      1  0.5494380000000  0.4666300000000  0.5185000000000 1.0
C      1  0.5201750000000  0.5732810000000  0.5811110000000 1.0
C      1  0.5243310000000  0.5021480000000  0.6093530000000 1.0
C      1  0.4448880000000  0.5935820000000  0.5074790000000 1.0
C      1  0.5371490000000  0.5200980000000  0.3856760000000 1.0
C      1  0.5776380000000  0.5011610000000  0.4907360000000 1.0
C      1  0.5506410000000  0.4011220000000  0.5117550000000 1.0
C      1  0.4587240000000  0.5399970000000  0.4627900000000 1.0
C      1  0.4552850000000  0.5297080000000  0.4889520000000 1.0
C      1  0.4309480000000  0.4113340000000  0.5282070000000 1.0
C      1  0.4439240000000  0.4993710000000  0.5871660000000 1.0
C      1  0.5952620000000  0.5765100000000  0.4733530000000 1.0
C      1  0.4862910000000  0.4840080000000  0.5705370000000 1.0
C      1  0.5012610000000  0.5896820000000  0.5649700000000 1.0
C      1  0.4451130000000  0.5300830000000  0.5969710000000 1.0
C      1  0.4301180000000  0.5083870000000  0.5220880000000 1.0
C      1  0.4510600000000  0.4149180000000  0.5498200000000 1.0
C      1  0.5453770000000  0.5159360000000  0.4633720000000 1.0
C      1  0.5171240000000  0.6006450000000  0.4767230000000 1.0
C      1  0.5338720000000  0.5628040000000  0.5115610000000 1.0
C      1  0.5087130000000  0.3918300000000  0.4950150000000 1.0
C      1  0.5396660000000  0.4571780000000  0.5831990000000 1.0
C      1  0.5070010000000  0.6205420000000  0.5012880000000 1.0
C      1  0.5196390000000  0.5473010000000  0.5956950000000 1.0
C      1  0.4032230000000  0.4701460000000  0.4770640000000 1.0
C      1  0.5189210000000  0.4475250000000  0.4367140000000 1.0
C      1  0.4523900000000  0.4699570000000  0.3953870000000 1.0
C      1  0.5103750000000  0.4723860000000  0.3898860000000 1.0
C      1  0.5654890000000  0.4616460000000  0.5418270000000 1.0
C      1  0.4139460000000  0.4825400000000  0.5214370000000 1.0
C      1  0.6098890000000  0.5526090000000  0.4730400000000 1.0
C      1  0.5637870000000  0.5527500000000  0.4996730000000 1.0
C      1  0.4172890000000  0.5389830000000  0.5322160000000 1.0
C      1  0.5010600000000  0.5070150000000  0.4632060000000 1.0
C      1  0.4608900000000  0.5593380000000  0.5645380000000 1.0
C      1  0.5390410000000  0.5245380000000  0.5988030000000 1.0
C      1  0.6181540000000  0.5278170000000  0.4840680000000 1.0
C      1  0.4340980000000  0.5140280000000  0.4937900000000 1.0
C      1  0.5531780000000  0.5438570000000  0.4241150000000 1.0
C      1  0.5852000000000  0.4324970000000  0.5008680000000 1.0
C      1  0.4952460000000  0.4704790000000  0.5958600000000 1.0
C      1  0.4679440000000  0.5467870000000  0.5927180000000 1.0
C      1  0.5130750000000  0.5194610000000  0.5248960000000 1.0
C      1  0.5444930000000  0.4924550000000  0.4213900000000 1.0
C      1  0.4877200000000  0.5135000000000  0.4374640000000 1.0
C      1  0.5366770000000  0.5661920000000  0.5421510000000 1.0
C      1  0.5707200000000  0.5312970000000  0.5452610000000 1.0
C      1  0.4134570000000  0.5056160000000  0.5836840000000 1.0
C      1  0.4409090000000  0.4504400000000  0.4134280000000 1.0
C      1  0.5733410000000  0.4365120000000  0.5415010000000 1.0
C      1  0.5206330000000  0.4480140000000  0.4849370000000 1.0
C      1  0.5584500000000  0.5396140000000  0.4720440000000 1.0
C      1  0.4666630000000  0.6040390000000  0.4618830000000 1.0
C      1  0.4604050000000  0.4943280000000  0.5638810000000 1.0
C      1  0.4624170000000  0.5534380000000  0.4046580000000 1.0
C      1  0.5639580000000  0.4482590000000  0.4594240000000 1.0
C      1  0.4566080000000  0.5028020000000  0.5362700000000 1.0
C      1  0.4927940000000  0.5514540000000  0.3947870000000 1.0
C      1  0.5478320000000  0.4373110000000  0.3971470000000 1.0
C      1  0.4865320000000  0.5507710000000  0.4694910000000 1.0
C      1  0.4253960000000  0.5141050000000  0.4167560000000 1.0
C      1  0.4659350000000  0.4768420000000  0.4925990000000 1.0
C      1  0.6121150000000  0.5009670000000  0.5304270000000 1.0
C      1  0.4584470000000  0.6122740000000  0.4893530000000 1.0
C      1  0.4935980000000  0.5986350000000  0.4547320000000 1.0
C      1  0.5122230000000  0.5778190000000  0.4967400000000 1.0
C      1  0.3954090000000  0.4868850000000  0.5710430000000 1.0
C      1  0.4638080000000  0.5763860000000  0.4232700000000 1.0
C      1  0.5066040000000  0.5588710000000  0.4197960000000 1.0
C      1  0.5297610000000  0.4475970000000  0.5113810000000 1.0
C      1  0.4725420000000  0.4072270000000  0.5307860000000 1.0
C      1  0.5301030000000  0.4194800000000  0.4363420000000 1.0
C      1  0.5019160000000  0.4306050000000  0.5561210000000 1.0
C      1  0.4663660000000  0.4385830000000  0.5617250000000 1.0
C      1  0.5110020000000  0.4036320000000  0.5468350000000 1.0
C      1  0.5522350000000  0.4144450000000  0.4156230000000 1.0
C      1  0.5088920000000  0.4988690000000  0.5598040000000 1.0
C      1  0.5232110000000  0.4521390000000  0.4071990000000 1.0
C      1  0.4662740000000  0.5968550000000  0.5281160000000 1.0
C      1  0.4692890000000  0.5293160000000  0.5313280000000 1.0
C      1  0.5832980000000  0.4672760000000  0.4500510000000 1.0
C      1  0.4128160000000  0.5088890000000  0.4460860000000 1.0
C      1  0.4714060000000  0.4695270000000  0.4427150000000 1.0
C      1  0.4307470000000  0.5491600000000  0.5569100000000 1.0
C      1  0.4605670000000  0.5152640000000  0.4469450000000 1.0
C      1  0.5071880000000  0.5281130000000  0.5539630000000 1.0
C      1  0.5230310000000  0.3964890000000  0.5209400000000 1.0
C      1  0.5061320000000  0.4436190000000  0.5278420000000 1.0
C      1  0.5331870000000  0.4039600000000  0.5698490000000 1.0
C      1  0.5534170000000  0.4896670000000  0.5009660000000 1.0
C      1  0.4145440000000  0.5217430000000  0.4724430000000 1.0
C      1  0.4469800000000  0.4563140000000  0.4893500000000 1.0
C      1  0.3976540000000  0.4702530000000  0.5456880000000 1.0
C      1  0.4374580000000  0.4921000000000  0.4040850000000 1.0
C      1  0.5647430000000  0.4649660000000  0.5699230000000 1.0
C      1  0.4333060000000  0.4554890000000  0.5154730000000 1.0
C      1  0.5625450000000  0.5556850000000  0.4488060000000 1.0
C      1  0.6163300000000  0.5285020000000  0.5132250000000 1.0
C      1  0.5101110000000  0.4008160000000  0.4454420000000 1.0
C      1  0.4584020000000  0.4050670000000  0.4854650000000 1.0
C      1  0.4892790000000  0.4845020000000  0.4767840000000 1.0
C      1  0.4845410000000  0.4159850000000  0.4398220000000 1.0
C      1  0.4381900000000  0.5657340000000  0.4651740000000 1.0
C      1  0.4968980000000  0.5099940000000  0.6154900000000 1.0
C      1  0.4702840000000  0.5428570000000  0.5076750000000 1.0
C      1  0.3866410000000  0.5279690000000  0.5294410000000 1.0
C      1  0.5179700000000  0.6136560000000  0.5541080000000 1.0
C      1  0.5000900000000  0.4755690000000  0.5231970000000 1.0
C      1  0.5067440000000  0.5321690000000  0.4767920000000 1.0
C      1  0.4219040000000  0.5352300000000  0.5800190000000 1.0
C      1  0.5246750000000  0.3945730000000  0.4706010000000 1.0
C      1  0.4072530000000  0.4417960000000  0.4816080000000 1.0
C      1  0.5780720000000  0.4911560000000  0.5744030000000 1.0
C      1  0.5698550000000  0.4255060000000  0.4770500000000 1.0
C      1  0.3934280000000  0.4430950000000  0.5373190000000 1.0
C      1  0.4503890000000  0.4886620000000  0.4512080000000 1.0
C      1  0.5131190000000  0.5348720000000  0.3868350000000 1.0
C      1  0.4824650000000  0.4786720000000  0.3957990000000 1.0
C      1  0.4876040000000  0.4834570000000  0.4234540000000 1.0
C      1  0.5439380000000  0.3856490000000  0.5855530000000 1.0
C      1  0.5357180000000  0.5208440000000  0.4348510000000 1.0
C      1  0.5723550000000  0.4857860000000  0.4274890000000 1.0
C      1  0.4912690000000  0.5822400000000  0.4311760000000 1.0
C      1  0.4483560000000  0.5850780000000  0.4469420000000 1.0
C      1  0.4214190000000  0.4293230000000  0.4599820000000 1.0
C      1  0.5334740000000  0.5408390000000  0.5559790000000 1.0
C      1  0.4578930000000  0.4134720000000  0.4278220000000 1.0
C      1  0.4886860000000  0.4447130000000  0.4506030000000 1.0
C      1  0.5194130000000  0.5362420000000  0.5031140000000 1.0
C      1  0.3938740000000  0.4861930000000  0.4997540000000 1.0
C      1  0.5625350000000  0.5163920000000  0.5829370000000 1.0
C      1  0.6022870000000  0.4732630000000  0.4715230000000 1.0
C      1  0.5161420000000  0.6191190000000  0.5269130000000 1.0
C      1  0.5878750000000  0.5717870000000  0.5010840000000 1.0
C      1  0.4610780000000  0.4527170000000  0.5302790000000 1.0
C      1  0.4862920000000  0.5647200000000  0.4945420000000 1.0
C      1  0.5784390000000  0.5382820000000  0.5215040000000 1.0
C      1  0.3826330000000  0.5136580000000  0.5042000000000 1.0
C      1  0.4559850000000  0.4753760000000  0.6043520000000 1.0
C      1  0.4808660000000  0.5409490000000  0.5540750000000 1.0
C      1  0.4935520000000  0.5367600000000  0.6035930000000 1.0
C      1  0.4296520000000  0.5722950000000  0.4921910000000 1.0
C      1  0.5057720000000  0.4854990000000  0.4971600000000 1.0
C      1  0.5529350000000  0.5222790000000  0.5583840000000 1.0
C      1  0.4108140000000  0.5545590000000  0.5061170000000 1.0
C      1  0.5475330000000  0.6120630000000  0.5617600000000 1.0
C      1  0.6067310000000  0.4766660000000  0.5181450000000 1.0
C      1  0.5465190000000  0.5980470000000  0.4671020000000 1.0
C      1  0.5407930000000  0.4903940000000  0.4743550000000 1.0
C      1  0.4123550000000  0.4325120000000  0.5147860000000 1.0
C      1  0.5745640000000  0.4161470000000  0.5229600000000 1.0
C      1  0.4940990000000  0.4375750000000  0.4803990000000 1.0
C      1  0.6023690000000  0.5530600000000  0.5188890000000 1.0
C      1  0.4752920000000  0.5848470000000  0.5530700000000 1.0
C      1  0.5365110000000  0.4611640000000  0.4624550000000 1.0
C      1  0.4204840000000  0.4829940000000  0.4551960000000 1.0
END
