TITL C-884135-4325-91 6.10382476354364 125000 -12326.829774015 0 0 83 (C1) n - 1
REM
REM in /home/nfs/bkarasulu/CARBON/AIRSS/Generating-Clusters/ReaxFF-fromJPCA2015/Units_Real/with-SteepDescent/Only-C1/SD-CG/Try1-3A/FIRE-CG
REM
REM
REM
REM
REM
REM ./C.cell (11c1c37f851c82e70ff6c80c92926a4b)
REM
REM compiler GCC version 9.2.1 20190827 (Red Hat 9.2.1-1)
REM options -cpp -mtune=generic -march=x86-64 -g -O0 -fpre-include=/usr/include/finclude/math-vector-fortran.h
REM seed -1497609668 595763535 753487767 -1767065078 713850428 -1089398940 -19089337 1104929624 1210621681 -115600013 -449732999 517460211 648047930 -56096266 -1409682972 -846874591 1816272441 2096262926 -1377150318 -1287016263 416961224 -1185799259 -1950610703 -432066433 85027857 -675241143 -2091730422 660685133 -1527093621 -987615831 148409299 1759605286 380340456
REM
CELL 1.54180   50.00000   50.00000   50.00000   90.00000   90.00000   90.00000
LATT -1
SFAC C  
C      1  0.5336940000000  0.5398690000000  0.5258740000000 1.0
C      1  0.4995440000000  0.4350500000000  0.4962890000000 1.0
C      1  0.4823610000000  0.4400450000000  0.4583520000000 1.0
C      1  0.5369650000000  0.5761220000000  0.4895670000000 1.0
C      1  0.5276700000000  0.4952420000000  0.5355120000000 1.0
C      1  0.5298910000000  0.4269980000000  0.4626900000000 1.0
C      1  0.5569020000000  0.4425420000000  0.5120520000000 1.0
C      1  0.4294820000000  0.4828640000000  0.5195670000000 1.0
C      1  0.5399690000000  0.4297450000000  0.5341350000000 1.0
C      1  0.4939890000000  0.5296070000000  0.4859800000000 1.0
C      1  0.5267030000000  0.5543380000000  0.4474070000000 1.0
C      1  0.4929820000000  0.4157070000000  0.5179830000000 1.0
C      1  0.4494700000000  0.5285900000000  0.5372900000000 1.0
C      1  0.5726980000000  0.5077990000000  0.4790330000000 1.0
C      1  0.5486380000000  0.4560540000000  0.4403910000000 1.0
C      1  0.5105210000000  0.5789150000000  0.5008330000000 1.0
C      1  0.4723480000000  0.5408890000000  0.5763180000000 1.0
C      1  0.4511100000000  0.4823230000000  0.4442230000000 1.0
C      1  0.5139250000000  0.5504540000000  0.5673970000000 1.0
C      1  0.5751440000000  0.5166540000000  0.5297890000000 1.0
C      1  0.5673020000000  0.4691540000000  0.5117930000000 1.0
C      1  0.5099750000000  0.5585670000000  0.5236870000000 1.0
C      1  0.5276590000000  0.4570190000000  0.5769830000000 1.0
C      1  0.5063640000000  0.4732370000000  0.5873530000000 1.0
C      1  0.5233640000000  0.4687790000000  0.5272100000000 1.0
C      1  0.5054780000000  0.5508770000000  0.4308100000000 1.0
C      1  0.5646540000000  0.5348820000000  0.4745140000000 1.0
C      1  0.4761420000000  0.4769120000000  0.5478890000000 1.0
C      1  0.4736790000000  0.4790040000000  0.4939620000000 1.0
C      1  0.4752520000000  0.5185010000000  0.5273620000000 1.0
C      1  0.4819310000000  0.5799300000000  0.4925270000000 1.0
C      1  0.4726550000000  0.5635630000000  0.5572360000000 1.0
C      1  0.4895740000000  0.5383630000000  0.5123030000000 1.0
C      1  0.4573740000000  0.5658520000000  0.5060860000000 1.0
C      1  0.4226690000000  0.4841860000000  0.4914650000000 1.0
C      1  0.5617640000000  0.5450050000000  0.5248340000000 1.0
C      1  0.4418090000000  0.4420420000000  0.5020500000000 1.0
C      1  0.5193260000000  0.5254230000000  0.5765440000000 1.0
C      1  0.4360300000000  0.5339700000000  0.4671510000000 1.0
C      1  0.4280930000000  0.5116900000000  0.5269800000000 1.0
C      1  0.4712810000000  0.5185620000000  0.4214580000000 1.0
C      1  0.5268460000000  0.5063510000000  0.4663970000000 1.0
C      1  0.4906860000000  0.5171350000000  0.5792870000000 1.0
C      1  0.4856190000000  0.4882200000000  0.5733740000000 1.0
C      1  0.4318960000000  0.4589110000000  0.4810700000000 1.0
C      1  0.5584980000000  0.5643600000000  0.5043270000000 1.0
C      1  0.4950290000000  0.4782490000000  0.4235750000000 1.0
C      1  0.5275990000000  0.5145170000000  0.5169870000000 1.0
C      1  0.4368850000000  0.5498980000000  0.4915030000000 1.0
C      1  0.4189500000000  0.5284110000000  0.5044260000000 1.0
C      1  0.4769710000000  0.4897390000000  0.5212410000000 1.0
C      1  0.5430690000000  0.4456370000000  0.4840920000000 1.0
C      1  0.5009330000000  0.5694320000000  0.5521630000000 1.0
C      1  0.5134170000000  0.4176010000000  0.5383210000000 1.0
C      1  0.5475520000000  0.5581910000000  0.4649250000000 1.0
C      1  0.5155090000000  0.5113880000000  0.4907010000000 1.0
C      1  0.4614030000000  0.5346410000000  0.4458200000000 1.0
C      1  0.4752170000000  0.5190740000000  0.4673680000000 1.0
C      1  0.4421290000000  0.4564190000000  0.5272640000000 1.0
C      1  0.5258680000000  0.4398920000000  0.4367670000000 1.0
C      1  0.4544570000000  0.5575920000000  0.5335110000000 1.0
C      1  0.4808750000000  0.5709050000000  0.4672240000000 1.0
C      1  0.4656680000000  0.4495910000000  0.5441400000000 1.0
C      1  0.5691090000000  0.5092710000000  0.5561910000000 1.0
C      1  0.4844510000000  0.4266960000000  0.5433790000000 1.0
C      1  0.4669650000000  0.4933160000000  0.4707760000000 1.0
C      1  0.4411000000000  0.4612950000000  0.4330140000000 1.0
C      1  0.4678630000000  0.4899800000000  0.4198440000000 1.0
C      1  0.5750480000000  0.4954660000000  0.5075440000000 1.0
C      1  0.5328840000000  0.4528180000000  0.5496400000000 1.0
C      1  0.4979150000000  0.4523700000000  0.4374790000000 1.0
C      1  0.5616680000000  0.4626980000000  0.4629560000000 1.0
C      1  0.5193660000000  0.4564450000000  0.5004520000000 1.0
C      1  0.4790030000000  0.5601570000000  0.4430660000000 1.0
C      1  0.4200090000000  0.5127630000000  0.4797280000000 1.0
C      1  0.5375480000000  0.5015970000000  0.4434220000000 1.0
C      1  0.4994970000000  0.5237520000000  0.4185330000000 1.0
C      1  0.5331350000000  0.4821460000000  0.5839930000000 1.0
C      1  0.5648660000000  0.4905790000000  0.4557790000000 1.0
C      1  0.4628620000000  0.4526570000000  0.4820800000000 1.0
C      1  0.5148620000000  0.4994100000000  0.4226190000000 1.0
C      1  0.5384860000000  0.5031000000000  0.5644400000000 1.0
C      1  0.5019070000000  0.4220070000000  0.4697030000000 1.0
END
