TITL C-883739-1268-69 113.260707780852 125000 -21335.2614541438 0 0 144 (C1) n - 1
REM
REM in /home/nfs/bkarasulu/CARBON/AIRSS/Generating-Clusters/ReaxFF-fromJPCA2015/Units_Real/with-SteepDescent/Only-C1/SD-CG/Try1-3A/FIRE-CG
REM
REM
REM
REM
REM
REM ./C.cell (11c1c37f851c82e70ff6c80c92926a4b)
REM
REM compiler GCC version 9.2.1 20190827 (Red Hat 9.2.1-1)
REM options -cpp -mtune=generic -march=x86-64 -g -O0 -fpre-include=/usr/include/finclude/math-vector-fortran.h
REM seed -1559110424 292023101 -1557362563 -338507120 -490425537 -1835061574 -1503277047 1129797806 -2094531705 -2111115745 -546979416 1262981870 -454878707 310125966 -1108188282 1100393899 247917429 -171585296 1306850321 -904585796 -1284594987 -939284683 -811067066 2061303587 -1349853656 21668257 1486603189 -285217068 -1339514497 886502800 -635491347 -599130060 -152919630
REM
CELL 1.54180   50.00000   50.00000   50.00000   90.00000   90.00000   90.00000
LATT -1
SFAC C  
C      1  0.5615420000000  0.4625610000000  0.5735570000000 1.0
C      1  0.5217220000000  0.4697730000000  0.4235540000000 1.0
C      1  0.4153430000000  0.4615020000000  0.4728720000000 1.0
C      1  0.4946660000000  0.5975850000000  0.4592430000000 1.0
C      1  0.4356160000000  0.5723430000000  0.5450130000000 1.0
C      1  0.5503970000000  0.5660950000000  0.5645890000000 1.0
C      1  0.4384910000000  0.5198240000000  0.4352050000000 1.0
C      1  0.5310750000000  0.5069140000000  0.4745010000000 1.0
C      1  0.4406970000000  0.4763110000000  0.4111580000000 1.0
C      1  0.4566490000000  0.4551050000000  0.5229760000000 1.0
C      1  0.5847450000000  0.4434540000000  0.5389630000000 1.0
C      1  0.4623530000000  0.5773160000000  0.4430960000000 1.0
C      1  0.4261420000000  0.4930020000000  0.4301370000000 1.0
C      1  0.5039050000000  0.4486530000000  0.4285330000000 1.0
C      1  0.5533560000000  0.4978420000000  0.4086270000000 1.0
C      1  0.4063610000000  0.4368530000000  0.5042900000000 1.0
C      1  0.5366560000000  0.5182520000000  0.5003530000000 1.0
C      1  0.4396450000000  0.4809750000000  0.5280680000000 1.0
C      1  0.4484890000000  0.4392430000000  0.4392800000000 1.0
C      1  0.5545980000000  0.5804340000000  0.4490240000000 1.0
C      1  0.4644200000000  0.4895780000000  0.4925750000000 1.0
C      1  0.4744900000000  0.5753350000000  0.5099800000000 1.0
C      1  0.4871920000000  0.5021490000000  0.5041820000000 1.0
C      1  0.5570800000000  0.4507700000000  0.4497920000000 1.0
C      1  0.4705640000000  0.6035040000000  0.4373260000000 1.0
C      1  0.5420880000000  0.5109610000000  0.5871490000000 1.0
C      1  0.4882340000000  0.5037950000000  0.6044760000000 1.0
C      1  0.5132210000000  0.4866740000000  0.3974990000000 1.0
C      1  0.4817850000000  0.4497450000000  0.4086470000000 1.0
C      1  0.5867570000000  0.5142670000000  0.5162670000000 1.0
C      1  0.5193750000000  0.4650130000000  0.6013620000000 1.0
C      1  0.5804620000000  0.5011030000000  0.4662350000000 1.0
C      1  0.5788010000000  0.4322000000000  0.5121830000000 1.0
C      1  0.4952820000000  0.5314110000000  0.6067480000000 1.0
C      1  0.4421550000000  0.5515380000000  0.4831360000000 1.0
C      1  0.4654070000000  0.4948080000000  0.5593350000000 1.0
C      1  0.5024050000000  0.5162250000000  0.4021680000000 1.0
C      1  0.5338820000000  0.4642860000000  0.5218320000000 1.0
C      1  0.4907400000000  0.5372230000000  0.5416010000000 1.0
C      1  0.4675260000000  0.4563400000000  0.4491190000000 1.0
C      1  0.5914420000000  0.5286250000000  0.4654540000000 1.0
C      1  0.5431220000000  0.4860970000000  0.3845860000000 1.0
C      1  0.5819070000000  0.4538050000000  0.4648090000000 1.0
C      1  0.5548340000000  0.5281610000000  0.4072020000000 1.0
C      1  0.4154710000000  0.5125730000000  0.4950690000000 1.0
C      1  0.4934910000000  0.5648320000000  0.5309600000000 1.0
C      1  0.5583260000000  0.5195260000000  0.5653610000000 1.0
C      1  0.4459750000000  0.4310700000000  0.5405320000000 1.0
C      1  0.4912080000000  0.4931290000000  0.5728940000000 1.0
C      1  0.5096230000000  0.5005930000000  0.5488930000000 1.0
C      1  0.4868720000000  0.4728820000000  0.3915450000000 1.0
C      1  0.5199610000000  0.5591260000000  0.4671400000000 1.0
C      1  0.4272850000000  0.5620930000000  0.5712700000000 1.0
C      1  0.5405950000000  0.4809640000000  0.5864060000000 1.0
C      1  0.4922790000000  0.5947070000000  0.4891270000000 1.0
C      1  0.5072440000000  0.4368570000000  0.4577570000000 1.0
C      1  0.5535040000000  0.5782700000000  0.5021210000000 1.0
C      1  0.4238260000000  0.4774870000000  0.5537540000000 1.0
C      1  0.4607230000000  0.4360230000000  0.5647010000000 1.0
C      1  0.4730670000000  0.5408100000000  0.5900210000000 1.0
C      1  0.4656430000000  0.4691520000000  0.6016110000000 1.0
C      1  0.4692420000000  0.4035050000000  0.5066800000000 1.0
C      1  0.4395800000000  0.4484120000000  0.4772840000000 1.0
C      1  0.6076280000000  0.4851780000000  0.4939410000000 1.0
C      1  0.5536250000000  0.4743240000000  0.4991270000000 1.0
C      1  0.4009430000000  0.4628960000000  0.4972440000000 1.0
C      1  0.4107800000000  0.4850390000000  0.4547510000000 1.0
C      1  0.4426870000000  0.4851580000000  0.5725250000000 1.0
C      1  0.5309750000000  0.5556330000000  0.5818900000000 1.0
C      1  0.4483650000000  0.4581970000000  0.5806560000000 1.0
C      1  0.4449440000000  0.4069130000000  0.5232980000000 1.0
C      1  0.5244760000000  0.5331690000000  0.5971720000000 1.0
C      1  0.4926330000000  0.4574320000000  0.4821980000000 1.0
C      1  0.4201090000000  0.4160320000000  0.5131350000000 1.0
C      1  0.4678330000000  0.4082560000000  0.4776960000000 1.0
C      1  0.5559130000000  0.5286800000000  0.4357680000000 1.0
C      1  0.5589790000000  0.4969470000000  0.5470400000000 1.0
C      1  0.5373120000000  0.5526440000000  0.4064450000000 1.0
C      1  0.5099260000000  0.5861660000000  0.4384300000000 1.0
C      1  0.5083960000000  0.4201500000000  0.5390020000000 1.0
C      1  0.4521520000000  0.4487990000000  0.4114290000000 1.0
C      1  0.5302210000000  0.5825330000000  0.5508030000000 1.0
C      1  0.4142250000000  0.5235010000000  0.5448390000000 1.0
C      1  0.5420060000000  0.5776690000000  0.4747050000000 1.0
C      1  0.5671760000000  0.5436590000000  0.5533060000000 1.0
C      1  0.5821390000000  0.5414890000000  0.4406350000000 1.0
C      1  0.5806100000000  0.5677940000000  0.4541290000000 1.0
C      1  0.5592430000000  0.5020480000000  0.5128320000000 1.0
C      1  0.5247470000000  0.5367980000000  0.4427100000000 1.0
C      1  0.5137650000000  0.5932720000000  0.5049490000000 1.0
C      1  0.4668010000000  0.5305820000000  0.5248920000000 1.0
C      1  0.4576930000000  0.5156740000000  0.4575490000000 1.0
C      1  0.4926070000000  0.4653380000000  0.5893330000000 1.0
C      1  0.5811190000000  0.5409420000000  0.5278400000000 1.0
C      1  0.4284150000000  0.5315110000000  0.5704950000000 1.0
C      1  0.5814340000000  0.4796610000000  0.5610370000000 1.0
C      1  0.5882820000000  0.5546420000000  0.4799240000000 1.0
C      1  0.5765120000000  0.5605170000000  0.5061260000000 1.0
C      1  0.4846310000000  0.4526710000000  0.5317130000000 1.0
C      1  0.5351970000000  0.5903940000000  0.5222710000000 1.0
C      1  0.4639960000000  0.4898030000000  0.3992800000000 1.0
C      1  0.5022390000000  0.5744780000000  0.5574540000000 1.0
C      1  0.5990190000000  0.4693590000000  0.5412480000000 1.0
C      1  0.4602130000000  0.4979480000000  0.6057480000000 1.0
C      1  0.4090250000000  0.4872140000000  0.5136900000000 1.0
C      1  0.5376620000000  0.4333340000000  0.5346160000000 1.0
C      1  0.4998630000000  0.4896980000000  0.5239390000000 1.0
C      1  0.6058230000000  0.4915890000000  0.5212130000000 1.0
C      1  0.5076910000000  0.5439090000000  0.4866440000000 1.0
C      1  0.5123640000000  0.5405840000000  0.4142360000000 1.0
C      1  0.4655350000000  0.5480130000000  0.5009560000000 1.0
C      1  0.4354620000000  0.5469380000000  0.4418250000000 1.0
C      1  0.4412360000000  0.5637750000000  0.4572870000000 1.0
C      1  0.4151440000000  0.5345000000000  0.5177390000000 1.0
C      1  0.5050580000000  0.4628990000000  0.5121730000000 1.0
C      1  0.5994300000000  0.4781280000000  0.4673900000000 1.0
C      1  0.5528580000000  0.4896920000000  0.4665430000000 1.0
C      1  0.5598000000000  0.4409450000000  0.5544190000000 1.0
C      1  0.5527490000000  0.4199710000000  0.5119510000000 1.0
C      1  0.4462850000000  0.4236540000000  0.4650210000000 1.0
C      1  0.5109300000000  0.5153700000000  0.4556830000000 1.0
C      1  0.4953810000000  0.4110150000000  0.4683690000000 1.0
C      1  0.4913280000000  0.5488050000000  0.5691990000000 1.0
C      1  0.4857580000000  0.4731570000000  0.4582280000000 1.0
C      1  0.4576340000000  0.5048490000000  0.5339090000000 1.0
C      1  0.3990310000000  0.5077210000000  0.4692710000000 1.0
C      1  0.4043040000000  0.4959940000000  0.5420640000000 1.0
C      1  0.4430950000000  0.5782500000000  0.5197450000000 1.0
C      1  0.4792980000000  0.5078130000000  0.4164910000000 1.0
C      1  0.4448480000000  0.5069640000000  0.4810670000000 1.0
C      1  0.5072670000000  0.5235750000000  0.5042840000000 1.0
C      1  0.4504030000000  0.5205600000000  0.5878070000000 1.0
C      1  0.5748560000000  0.4546220000000  0.4932650000000 1.0
C      1  0.5370250000000  0.4340470000000  0.4628180000000 1.0
C      1  0.4889270000000  0.4358290000000  0.5544840000000 1.0
C      1  0.4244170000000  0.5594210000000  0.5065440000000 1.0
C      1  0.5326650000000  0.4829030000000  0.5457850000000 1.0
C      1  0.5389780000000  0.4162800000000  0.4862810000000 1.0
C      1  0.4970870000000  0.4059930000000  0.5160470000000 1.0
C      1  0.5125460000000  0.4041660000000  0.4905000000000 1.0
C      1  0.5471680000000  0.4764730000000  0.4367760000000 1.0
C      1  0.4616450000000  0.4591050000000  0.4915990000000 1.0
C      1  0.4856530000000  0.5037830000000  0.4475110000000 1.0
C      1  0.5342720000000  0.5749010000000  0.4272290000000 1.0
END
