TITL C-884130-5973-277 71.4767263943036 125000 -22936.3271939068 0 0 156 (C1) n - 1
REM
REM in /home/nfs/bkarasulu/CARBON/AIRSS/Generating-Clusters/ReaxFF-fromJPCA2015/Units_Real/with-SteepDescent/Only-C1/SD-CG/Try1-3A/FIRE-CG
REM
REM
REM
REM
REM
REM ./C.cell (11c1c37f851c82e70ff6c80c92926a4b)
REM
REM compiler GCC version 9.2.1 20190827 (Red Hat 9.2.1-1)
REM options -cpp -mtune=generic -march=x86-64 -g -O0 -fpre-include=/usr/include/finclude/math-vector-fortran.h
REM seed 156803762 150429515 -1878569066 -1114649159 -185832953 606659949 -1547399321 -1302055534 -597726438 -133456780 56390673 -1234316351 127233077 1115100111 1081384156 -564800728 -1521337471 -790636391 462380995 59361798 -1557791679 1021333068 -1872132714 927699998 1522464880 1426554580 -1294716098 433059037 -2030088597 -1719817362 -105557588 1759583760 -124247783
REM
CELL 1.54180   50.00000   50.00000   50.00000   90.00000   90.00000   90.00000
LATT -1
SFAC C  
C      1  0.5615220000000  0.5117390000000  0.5145760000000 1.0
C      1  0.4283430000000  0.4966610000000  0.5648720000000 1.0
C      1  0.4634310000000  0.5621830000000  0.4219810000000 1.0
C      1  0.5872470000000  0.4625880000000  0.5355640000000 1.0
C      1  0.5170640000000  0.4670610000000  0.4040800000000 1.0
C      1  0.5162020000000  0.5735820000000  0.5790560000000 1.0
C      1  0.4927840000000  0.5363630000000  0.5760880000000 1.0
C      1  0.4535980000000  0.4996070000000  0.4635770000000 1.0
C      1  0.5617300000000  0.4181990000000  0.5152240000000 1.0
C      1  0.5545220000000  0.4363960000000  0.5599020000000 1.0
C      1  0.5144560000000  0.5375510000000  0.4943570000000 1.0
C      1  0.4161020000000  0.4489290000000  0.5406190000000 1.0
C      1  0.4292990000000  0.4450360000000  0.5665960000000 1.0
C      1  0.4077880000000  0.4563640000000  0.4563370000000 1.0
C      1  0.4188900000000  0.4328000000000  0.4649450000000 1.0
C      1  0.5375460000000  0.5541290000000  0.5874400000000 1.0
C      1  0.4762620000000  0.4113760000000  0.4776240000000 1.0
C      1  0.4633680000000  0.4141760000000  0.4489420000000 1.0
C      1  0.5258160000000  0.5244190000000  0.4496440000000 1.0
C      1  0.5614790000000  0.4845740000000  0.5725080000000 1.0
C      1  0.5277320000000  0.4855380000000  0.5317830000000 1.0
C      1  0.4073780000000  0.4924100000000  0.4761880000000 1.0
C      1  0.5888680000000  0.5158520000000  0.5455810000000 1.0
C      1  0.5057730000000  0.6036610000000  0.5091460000000 1.0
C      1  0.4396720000000  0.4672760000000  0.5289200000000 1.0
C      1  0.4862700000000  0.5109840000000  0.5236250000000 1.0
C      1  0.5679780000000  0.5398090000000  0.4287090000000 1.0
C      1  0.4724550000000  0.4417540000000  0.5881710000000 1.0
C      1  0.5174970000000  0.4543460000000  0.5808340000000 1.0
C      1  0.5363030000000  0.4620820000000  0.5174300000000 1.0
C      1  0.4873440000000  0.4432780000000  0.5252750000000 1.0
C      1  0.4362660000000  0.4908550000000  0.4883240000000 1.0
C      1  0.4663970000000  0.4025830000000  0.5068290000000 1.0
C      1  0.4025490000000  0.4336020000000  0.5209870000000 1.0
C      1  0.4438870000000  0.5433760000000  0.5611170000000 1.0
C      1  0.5791940000000  0.5684560000000  0.4734880000000 1.0
C      1  0.5275780000000  0.4011980000000  0.4900930000000 1.0
C      1  0.5722440000000  0.4373110000000  0.5361340000000 1.0
C      1  0.5300890000000  0.5740630000000  0.4872470000000 1.0
C      1  0.5055700000000  0.5218290000000  0.6020320000000 1.0
C      1  0.5057630000000  0.4919340000000  0.5108590000000 1.0
C      1  0.3881590000000  0.4913870000000  0.4997490000000 1.0
C      1  0.5484560000000  0.5065000000000  0.4511910000000 1.0
C      1  0.5340940000000  0.5967720000000  0.5039470000000 1.0
C      1  0.5086550000000  0.5592700000000  0.4773020000000 1.0
C      1  0.4383870000000  0.4843960000000  0.4344080000000 1.0
C      1  0.4032460000000  0.5408860000000  0.4601340000000 1.0
C      1  0.5404200000000  0.4042970000000  0.5306680000000 1.0
C      1  0.4666790000000  0.5169110000000  0.5025120000000 1.0
C      1  0.4879460000000  0.4099630000000  0.5280690000000 1.0
C      1  0.4570530000000  0.4319080000000  0.5641420000000 1.0
C      1  0.5199880000000  0.4956720000000  0.5583830000000 1.0
C      1  0.4607370000000  0.5100320000000  0.5953990000000 1.0
C      1  0.4401850000000  0.4312480000000  0.4443170000000 1.0
C      1  0.4781560000000  0.5028740000000  0.4076800000000 1.0
C      1  0.4161380000000  0.5386560000000  0.4406960000000 1.0
C      1  0.5987220000000  0.5267520000000  0.5209530000000 1.0
C      1  0.4342360000000  0.4709790000000  0.5783510000000 1.0
C      1  0.4890170000000  0.4762020000000  0.4006740000000 1.0
C      1  0.4625000000000  0.4694840000000  0.5874680000000 1.0
C      1  0.4858350000000  0.5993050000000  0.4887390000000 1.0
C      1  0.4443360000000  0.4162010000000  0.5042850000000 1.0
C      1  0.5459440000000  0.4589380000000  0.5761850000000 1.0
C      1  0.4273080000000  0.4975300000000  0.5339690000000 1.0
C      1  0.5557980000000  0.5116590000000  0.5822740000000 1.0
C      1  0.5607480000000  0.5381680000000  0.5079820000000 1.0
C      1  0.6009430000000  0.4848350000000  0.4591970000000 1.0
C      1  0.5603760000000  0.4572490000000  0.4683230000000 1.0
C      1  0.5534080000000  0.5562740000000  0.4842600000000 1.0
C      1  0.4373930000000  0.5197430000000  0.5792780000000 1.0
C      1  0.5714930000000  0.5300800000000  0.5662340000000 1.0
C      1  0.4828520000000  0.4384900000000  0.4495800000000 1.0
C      1  0.4431830000000  0.5333540000000  0.4287180000000 1.0
C      1  0.5026370000000  0.5942620000000  0.5372300000000 1.0
C      1  0.4514360000000  0.5280120000000  0.4561820000000 1.0
C      1  0.5296530000000  0.4245670000000  0.5499100000000 1.0
C      1  0.4147170000000  0.5585740000000  0.5182260000000 1.0
C      1  0.4591800000000  0.5854880000000  0.4400090000000 1.0
C      1  0.5368500000000  0.5813060000000  0.4317600000000 1.0
C      1  0.4618100000000  0.5668580000000  0.5211900000000 1.0
C      1  0.5436050000000  0.5376530000000  0.4121160000000 1.0
C      1  0.5519210000000  0.5811200000000  0.5517850000000 1.0
C      1  0.3944540000000  0.5419270000000  0.4855560000000 1.0
C      1  0.4612790000000  0.5889470000000  0.4977460000000 1.0
C      1  0.5754750000000  0.5165810000000  0.4455000000000 1.0
C      1  0.4734960000000  0.4397180000000  0.4770190000000 1.0
C      1  0.4719380000000  0.4560010000000  0.4988040000000 1.0
C      1  0.5336420000000  0.5263660000000  0.5968730000000 1.0
C      1  0.4874260000000  0.4995200000000  0.6011140000000 1.0
C      1  0.5556620000000  0.5911220000000  0.5248160000000 1.0
C      1  0.5079160000000  0.4212430000000  0.4832180000000 1.0
C      1  0.5600710000000  0.4291780000000  0.4614940000000 1.0
C      1  0.5408390000000  0.4983030000000  0.4770860000000 1.0
C      1  0.5945840000000  0.5523170000000  0.4894330000000 1.0
C      1  0.5925680000000  0.4599290000000  0.5061590000000 1.0
C      1  0.4754680000000  0.4795060000000  0.5607880000000 1.0
C      1  0.5201870000000  0.5102040000000  0.4925740000000 1.0
C      1  0.5285600000000  0.5132730000000  0.4077470000000 1.0
C      1  0.5258920000000  0.4408630000000  0.4184270000000 1.0
C      1  0.4813930000000  0.4985710000000  0.4741430000000 1.0
C      1  0.4888260000000  0.5914510000000  0.4569130000000 1.0
C      1  0.4660860000000  0.4568830000000  0.5421230000000 1.0
C      1  0.5626900000000  0.4651610000000  0.4977130000000 1.0
C      1  0.4705790000000  0.5312680000000  0.5591800000000 1.0
C      1  0.5812250000000  0.4865660000000  0.5512670000000 1.0
C      1  0.3962800000000  0.5354210000000  0.5130950000000 1.0
C      1  0.5236120000000  0.5599950000000  0.4164830000000 1.0
C      1  0.5379280000000  0.4850330000000  0.4093400000000 1.0
C      1  0.5128320000000  0.4500370000000  0.4852320000000 1.0
C      1  0.5525220000000  0.4397790000000  0.4310540000000 1.0
C      1  0.6048270000000  0.4716530000000  0.4841580000000 1.0
C      1  0.5142510000000  0.5903870000000  0.4435870000000 1.0
C      1  0.4963980000000  0.5491880000000  0.4237410000000 1.0
C      1  0.5894140000000  0.5099620000000  0.4711640000000 1.0
C      1  0.5655010000000  0.4945430000000  0.4918840000000 1.0
C      1  0.4226640000000  0.5718160000000  0.4919810000000 1.0
C      1  0.5600870000000  0.4673030000000  0.4234770000000 1.0
C      1  0.4455750000000  0.5787250000000  0.4746010000000 1.0
C      1  0.4100430000000  0.4827470000000  0.4486890000000 1.0
C      1  0.6050290000000  0.5276550000000  0.4937540000000 1.0
C      1  0.5494710000000  0.5314590000000  0.5316590000000 1.0
C      1  0.5158540000000  0.3977880000000  0.5167100000000 1.0
C      1  0.5243640000000  0.5907230000000  0.5576420000000 1.0
C      1  0.4423560000000  0.4637230000000  0.5012100000000 1.0
C      1  0.4830460000000  0.5750350000000  0.5428590000000 1.0
C      1  0.4981020000000  0.4313290000000  0.5771720000000 1.0
C      1  0.5170920000000  0.4439510000000  0.5302350000000 1.0
C      1  0.4823740000000  0.4654520000000  0.4394970000000 1.0
C      1  0.4824690000000  0.4155180000000  0.5573750000000 1.0
C      1  0.4630140000000  0.5434410000000  0.4992180000000 1.0
C      1  0.4411030000000  0.5103740000000  0.5100860000000 1.0
C      1  0.5594940000000  0.5563930000000  0.5690970000000 1.0
C      1  0.4373290000000  0.5582050000000  0.5372750000000 1.0
C      1  0.5019800000000  0.5063030000000  0.4543560000000 1.0
C      1  0.4731890000000  0.5051020000000  0.5480780000000 1.0
C      1  0.4626060000000  0.5496010000000  0.4710750000000 1.0
C      1  0.5000410000000  0.5226670000000  0.4114730000000 1.0
C      1  0.5032710000000  0.4801680000000  0.5780940000000 1.0
C      1  0.5245550000000  0.4580620000000  0.4591580000000 1.0
C      1  0.4891160000000  0.5594710000000  0.4566090000000 1.0
C      1  0.4904320000000  0.5648090000000  0.5689080000000 1.0
C      1  0.4512330000000  0.5060100000000  0.4182740000000 1.0
C      1  0.5421690000000  0.5466760000000  0.4585510000000 1.0
C      1  0.4711980000000  0.4575260000000  0.4139790000000 1.0
C      1  0.5067700000000  0.4793550000000  0.4454430000000 1.0
C      1  0.5618600000000  0.5643640000000  0.4457770000000 1.0
C      1  0.5552890000000  0.4147080000000  0.4862640000000 1.0
C      1  0.3994790000000  0.5073510000000  0.5218910000000 1.0
C      1  0.4451970000000  0.4558790000000  0.4267950000000 1.0
C      1  0.4245090000000  0.4349550000000  0.4965100000000 1.0
C      1  0.5777770000000  0.4700750000000  0.4462050000000 1.0
C      1  0.5032870000000  0.5347630000000  0.5197590000000 1.0
C      1  0.5145550000000  0.5231380000000  0.5607440000000 1.0
C      1  0.5132950000000  0.4354680000000  0.4434820000000 1.0
C      1  0.4934520000000  0.4729840000000  0.4913130000000 1.0
C      1  0.5230010000000  0.5382440000000  0.5391140000000 1.0
END
