TITL C-883728-9229-127 32.4440778781703 125000 -29214.3553232239 0 0 192 (C1) n - 1
REM
REM in /home/nfs/bkarasulu/CARBON/AIRSS/Generating-Clusters/ReaxFF-fromJPCA2015/Units_Real/with-SteepDescent/Only-C1/SD-CG/Try1-3A/FIRE-CG
REM
REM
REM
REM
REM
REM ./C.cell (11c1c37f851c82e70ff6c80c92926a4b)
REM
REM compiler GCC version 9.2.1 20190827 (Red Hat 9.2.1-1)
REM options -cpp -mtune=generic -march=x86-64 -g -O0 -fpre-include=/usr/include/finclude/math-vector-fortran.h
REM seed -1094116265 274067902 1684817215 1960208022 -2108778874 -595940835 497570925 -1841583957 1914802668 1544902095 1786284658 -1601932382 -920118231 893103631 -1347869688 1552809660 -1288343997 880592295 -271317776 -610084403 -1407501288 -1755685540 -1393574712 245151867 -1008468650 1647796991 1265085290 -667766585 -749819445 -1572478465 1616487664 434807106 -606977369
REM
CELL 1.54180   50.00000   50.00000   50.00000   90.00000   90.00000   90.00000
LATT -1
SFAC C  
C      1  0.4465740000000  0.4567410000000  0.5820280000000 1.0
C      1  0.5160130000000  0.5874280000000  0.5121260000000 1.0
C      1  0.4515150000000  0.5776980000000  0.4338650000000 1.0
C      1  0.5022620000000  0.5569570000000  0.4261940000000 1.0
C      1  0.4250870000000  0.5656530000000  0.4397920000000 1.0
C      1  0.5129330000000  0.4040850000000  0.4578830000000 1.0
C      1  0.4686660000000  0.4771890000000  0.4976780000000 1.0
C      1  0.4204330000000  0.5029880000000  0.5844710000000 1.0
C      1  0.5971650000000  0.4623700000000  0.5591650000000 1.0
C      1  0.4851840000000  0.4682740000000  0.5968640000000 1.0
C      1  0.4314180000000  0.5364020000000  0.4926960000000 1.0
C      1  0.6127630000000  0.5247450000000  0.4660010000000 1.0
C      1  0.4588820000000  0.4387860000000  0.4138340000000 1.0
C      1  0.5770780000000  0.5358210000000  0.5572430000000 1.0
C      1  0.4391040000000  0.5933820000000  0.5025720000000 1.0
C      1  0.4631250000000  0.5651830000000  0.5276840000000 1.0
C      1  0.4231320000000  0.4581330000000  0.5396410000000 1.0
C      1  0.5832070000000  0.5803600000000  0.4968430000000 1.0
C      1  0.5452290000000  0.4512590000000  0.4883040000000 1.0
C      1  0.5514040000000  0.4193810000000  0.4498000000000 1.0
C      1  0.4184530000000  0.5201520000000  0.4153790000000 1.0
C      1  0.4629600000000  0.5366870000000  0.5969100000000 1.0
C      1  0.4050140000000  0.5258930000000  0.5416160000000 1.0
C      1  0.5059870000000  0.5031660000000  0.5088980000000 1.0
C      1  0.5414130000000  0.5091100000000  0.3917710000000 1.0
C      1  0.5346490000000  0.4411860000000  0.5763060000000 1.0
C      1  0.5175310000000  0.5416770000000  0.4028220000000 1.0
C      1  0.5476120000000  0.5721030000000  0.5639870000000 1.0
C      1  0.5488160000000  0.5175430000000  0.5522080000000 1.0
C      1  0.5114720000000  0.4611870000000  0.6097440000000 1.0
C      1  0.5813600000000  0.4399420000000  0.5703500000000 1.0
C      1  0.4499230000000  0.6183110000000  0.4925800000000 1.0
C      1  0.4628980000000  0.4571090000000  0.4566320000000 1.0
C      1  0.4603650000000  0.4535250000000  0.4858700000000 1.0
C      1  0.5788430000000  0.4324600000000  0.4478210000000 1.0
C      1  0.5224140000000  0.5610280000000  0.4968620000000 1.0
C      1  0.4876520000000  0.3906800000000  0.5192210000000 1.0
C      1  0.4553340000000  0.5487530000000  0.4827660000000 1.0
C      1  0.6056240000000  0.5229690000000  0.5215460000000 1.0
C      1  0.4298840000000  0.4471210000000  0.4216180000000 1.0
C      1  0.4051730000000  0.5479100000000  0.4986130000000 1.0
C      1  0.4525400000000  0.4326880000000  0.5057630000000 1.0
C      1  0.5103390000000  0.5859040000000  0.4285780000000 1.0
C      1  0.5216040000000  0.4588830000000  0.5580710000000 1.0
C      1  0.4626790000000  0.6191360000000  0.4664030000000 1.0
C      1  0.6001120000000  0.4759900000000  0.4589220000000 1.0
C      1  0.4313420000000  0.5652480000000  0.5407340000000 1.0
C      1  0.5100750000000  0.4918330000000  0.4839520000000 1.0
C      1  0.4843260000000  0.3915200000000  0.5483930000000 1.0
C      1  0.3973810000000  0.4784200000000  0.5429630000000 1.0
C      1  0.6032030000000  0.4991630000000  0.5375750000000 1.0
C      1  0.4460490000000  0.3932440000000  0.4853100000000 1.0
C      1  0.5902550000000  0.5421040000000  0.4271910000000 1.0
C      1  0.5237620000000  0.4929220000000  0.5292270000000 1.0
C      1  0.5437880000000  0.4235410000000  0.4777480000000 1.0
C      1  0.5013320000000  0.5439990000000  0.5809560000000 1.0
C      1  0.4132490000000  0.4389920000000  0.4440860000000 1.0
C      1  0.5335030000000  0.4809580000000  0.6099990000000 1.0
C      1  0.4417190000000  0.4836370000000  0.5936840000000 1.0
C      1  0.3926900000000  0.5254600000000  0.4550370000000 1.0
C      1  0.4978830000000  0.5124670000000  0.4465130000000 1.0
C      1  0.5760870000000  0.4183960000000  0.5507370000000 1.0
C      1  0.5588870000000  0.5829240000000  0.5390140000000 1.0
C      1  0.5006710000000  0.4635550000000  0.3966810000000 1.0
C      1  0.5844120000000  0.5638860000000  0.4721400000000 1.0
C      1  0.3934660000000  0.4972950000000  0.4480470000000 1.0
C      1  0.5943460000000  0.4358500000000  0.4710470000000 1.0
C      1  0.4724570000000  0.6194280000000  0.5121110000000 1.0
C      1  0.4105130000000  0.4334150000000  0.4902950000000 1.0
C      1  0.4769950000000  0.5172870000000  0.6114320000000 1.0
C      1  0.5265430000000  0.5985340000000  0.4496790000000 1.0
C      1  0.4207400000000  0.5272870000000  0.5668160000000 1.0
C      1  0.4039770000000  0.5024270000000  0.5217560000000 1.0
C      1  0.5335270000000  0.5032840000000  0.5717210000000 1.0
C      1  0.5640720000000  0.5084210000000  0.5069160000000 1.0
C      1  0.4902600000000  0.6071500000000  0.4319070000000 1.0
C      1  0.5516100000000  0.4819160000000  0.3957790000000 1.0
C      1  0.5284300000000  0.3946350000000  0.5390880000000 1.0
C      1  0.5185500000000  0.4170440000000  0.5833530000000 1.0
C      1  0.5024630000000  0.5458910000000  0.4812590000000 1.0
C      1  0.5516280000000  0.4975810000000  0.5295570000000 1.0
C      1  0.4454530000000  0.4911210000000  0.4915440000000 1.0
C      1  0.5459140000000  0.4424520000000  0.4084160000000 1.0
C      1  0.5443640000000  0.5969200000000  0.5176180000000 1.0
C      1  0.4457330000000  0.5150000000000  0.4056970000000 1.0
C      1  0.5293120000000  0.4458870000000  0.5339790000000 1.0
C      1  0.4212920000000  0.4079420000000  0.4787090000000 1.0
C      1  0.5417570000000  0.4883590000000  0.4475160000000 1.0
C      1  0.4293820000000  0.4401500000000  0.5644490000000 1.0
C      1  0.4601820000000  0.4036000000000  0.5095150000000 1.0
C      1  0.4427460000000  0.4185840000000  0.5551460000000 1.0
C      1  0.4616020000000  0.5581810000000  0.5821850000000 1.0
C      1  0.5190600000000  0.5792110000000  0.5660420000000 1.0
C      1  0.5929340000000  0.4907680000000  0.5644450000000 1.0
C      1  0.5066770000000  0.6181710000000  0.4528040000000 1.0
C      1  0.4929420000000  0.5713310000000  0.5797530000000 1.0
C      1  0.4559930000000  0.3987400000000  0.5450380000000 1.0
C      1  0.4466360000000  0.4786560000000  0.5402290000000 1.0
C      1  0.4555030000000  0.4823090000000  0.4449640000000 1.0
C      1  0.4255240000000  0.4737250000000  0.4128490000000 1.0
C      1  0.4258050000000  0.4401930000000  0.5141770000000 1.0
C      1  0.6062880000000  0.4782580000000  0.5160000000000 1.0
C      1  0.4184670000000  0.4101880000000  0.4495770000000 1.0
C      1  0.5820800000000  0.5715090000000  0.5245560000000 1.0
C      1  0.6057920000000  0.5019970000000  0.4477540000000 1.0
C      1  0.4668030000000  0.6129300000000  0.5403680000000 1.0
C      1  0.4823350000000  0.4532390000000  0.5450540000000 1.0
C      1  0.5605820000000  0.4490590000000  0.5881260000000 1.0
C      1  0.5307120000000  0.5100150000000  0.6003260000000 1.0
C      1  0.5143540000000  0.4881280000000  0.5567780000000 1.0
C      1  0.5037870000000  0.4446770000000  0.4779770000000 1.0
C      1  0.4628160000000  0.6039320000000  0.4414450000000 1.0
C      1  0.4539890000000  0.4850620000000  0.4141650000000 1.0
C      1  0.5371390000000  0.4817690000000  0.4759130000000 1.0
C      1  0.6053230000000  0.4856430000000  0.4873300000000 1.0
C      1  0.4900540000000  0.4465120000000  0.4540180000000 1.0
C      1  0.5294660000000  0.4613460000000  0.3922140000000 1.0
C      1  0.3895150000000  0.5273530000000  0.4840020000000 1.0
C      1  0.4736300000000  0.4191730000000  0.4272360000000 1.0
C      1  0.4434540000000  0.3974770000000  0.4436350000000 1.0
C      1  0.5017480000000  0.4370560000000  0.5295450000000 1.0
C      1  0.5630800000000  0.5497990000000  0.5778040000000 1.0
C      1  0.4703880000000  0.5588890000000  0.4199360000000 1.0
C      1  0.4906670000000  0.6187530000000  0.4752320000000 1.0
C      1  0.5057000000000  0.5850070000000  0.5417960000000 1.0
C      1  0.4744920000000  0.4534480000000  0.5735690000000 1.0
C      1  0.5557500000000  0.5028490000000  0.4827620000000 1.0
C      1  0.4864710000000  0.4009010000000  0.4455860000000 1.0
C      1  0.3917160000000  0.5002850000000  0.4943150000000 1.0
C      1  0.4461890000000  0.5019490000000  0.4640210000000 1.0
C      1  0.5529830000000  0.4062110000000  0.5453020000000 1.0
C      1  0.5596800000000  0.4762240000000  0.5992920000000 1.0
C      1  0.5034880000000  0.4962940000000  0.4221350000000 1.0
C      1  0.4376000000000  0.6163580000000  0.5475490000000 1.0
C      1  0.4868870000000  0.5010900000000  0.4710790000000 1.0
C      1  0.4769140000000  0.5852080000000  0.5468320000000 1.0
C      1  0.5467190000000  0.5881240000000  0.4672600000000 1.0
C      1  0.4624900000000  0.3877040000000  0.4611380000000 1.0
C      1  0.4045910000000  0.4528910000000  0.4687930000000 1.0
C      1  0.5746440000000  0.4993240000000  0.5866610000000 1.0
C      1  0.6099740000000  0.5140010000000  0.4930150000000 1.0
C      1  0.4733550000000  0.4622670000000  0.4020510000000 1.0
C      1  0.4581700000000  0.5371290000000  0.4128750000000 1.0
C      1  0.4101000000000  0.5406520000000  0.4359690000000 1.0
C      1  0.4649420000000  0.5241370000000  0.4703340000000 1.0
C      1  0.4612280000000  0.5009550000000  0.5525860000000 1.0
C      1  0.5093460000000  0.3986520000000  0.5614200000000 1.0
C      1  0.5575380000000  0.5622080000000  0.4611480000000 1.0
C      1  0.4366470000000  0.5521910000000  0.5682280000000 1.0
C      1  0.5148010000000  0.3935290000000  0.5116630000000 1.0
C      1  0.5844410000000  0.5135150000000  0.4304190000000 1.0
C      1  0.5826520000000  0.4600270000000  0.4395580000000 1.0
C      1  0.5518020000000  0.4485630000000  0.5157980000000 1.0
C      1  0.4888200000000  0.5993560000000  0.4976750000000 1.0
C      1  0.4703940000000  0.4703050000000  0.5257370000000 1.0
C      1  0.5001270000000  0.5316130000000  0.5523070000000 1.0
C      1  0.5037110000000  0.5264510000000  0.6035440000000 1.0
C      1  0.4357360000000  0.5108970000000  0.5103840000000 1.0
C      1  0.5355440000000  0.5433120000000  0.5156110000000 1.0
C      1  0.5277920000000  0.5340770000000  0.5414210000000 1.0
C      1  0.5592850000000  0.5967960000000  0.4929310000000 1.0
C      1  0.6033560000000  0.4542370000000  0.5313200000000 1.0
C      1  0.5460280000000  0.5388070000000  0.3963480000000 1.0
C      1  0.5639900000000  0.5507000000000  0.4167440000000 1.0
C      1  0.5495900000000  0.5417100000000  0.4408450000000 1.0
C      1  0.4668660000000  0.4893600000000  0.6058030000000 1.0
C      1  0.5807760000000  0.4349310000000  0.5227520000000 1.0
C      1  0.5210430000000  0.4778010000000  0.4331720000000 1.0
C      1  0.4078360000000  0.5502970000000  0.5276430000000 1.0
C      1  0.4280280000000  0.5939530000000  0.5299720000000 1.0
C      1  0.5035380000000  0.5395050000000  0.4523940000000 1.0
C      1  0.5237170000000  0.4016250000000  0.4840540000000 1.0
C      1  0.5104970000000  0.4307630000000  0.6087430000000 1.0
C      1  0.3955380000000  0.4808300000000  0.4721900000000 1.0
C      1  0.6018180000000  0.5488300000000  0.4541890000000 1.0
C      1  0.5316500000000  0.4291150000000  0.4306970000000 1.0
C      1  0.5129700000000  0.5132340000000  0.3993300000000 1.0
C      1  0.5567120000000  0.5128570000000  0.4397660000000 1.0
C      1  0.4067120000000  0.4941240000000  0.4217990000000 1.0
C      1  0.5137440000000  0.4517860000000  0.4390240000000 1.0
C      1  0.5606930000000  0.5242340000000  0.5935490000000 1.0
C      1  0.5028160000000  0.4410550000000  0.5024860000000 1.0
C      1  0.5939220000000  0.4338230000000  0.4971960000000 1.0
C      1  0.5922290000000  0.5457310000000  0.5346440000000 1.0
C      1  0.5656450000000  0.4635000000000  0.4147660000000 1.0
C      1  0.4928900000000  0.5289400000000  0.5036890000000 1.0
C      1  0.3978000000000  0.4904850000000  0.5718950000000 1.0
C      1  0.4549270000000  0.5181180000000  0.5310960000000 1.0
C      1  0.4625990000000  0.5751210000000  0.4988790000000 1.0
C      1  0.4766620000000  0.5377730000000  0.5272740000000 1.0
C      1  0.5501510000000  0.5298980000000  0.4941320000000 1.0
C      1  0.4892380000000  0.5046270000000  0.5581280000000 1.0
END
