TITL C-883739-1268-257 -16.2470905525457 125000 -9662.40400814555 0 0 66 (C1) n - 1
REM
REM in /home/nfs/bkarasulu/CARBON/AIRSS/Generating-Clusters/ReaxFF-fromJPCA2015/Units_Real/with-SteepDescent/Only-C1/SD-CG/Try1-3A/FIRE-CG
REM
REM
REM
REM
REM
REM ./C.cell (11c1c37f851c82e70ff6c80c92926a4b)
REM
REM compiler GCC version 9.2.1 20190827 (Red Hat 9.2.1-1)
REM options -cpp -mtune=generic -march=x86-64 -g -O0 -fpre-include=/usr/include/finclude/math-vector-fortran.h
REM seed 283539300 1336368112 -1593218120 -1348744654 1689175704 -262197755 1235681837 373018959 -1624346385 -487192992 1240247474 -1088298807 2108942886 -23189906 -1637029858 -221729103 -1340647021 580943872 1297037158 -149209227 -966444053 -252178152 -88685545 -534079803 -1631853987 1846969374 2005702319 -624796983 164805635 -1646216034 848378720 -344560184 1824758124
REM
CELL 1.54180   50.00000   50.00000   50.00000   90.00000   90.00000   90.00000
LATT -1
SFAC C  
C      1  0.5191880000000  0.5156260000000  0.4608850000000 1.0
C      1  0.4527290000000  0.4824590000000  0.4327630000000 1.0
C      1  0.4700650000000  0.5555190000000  0.5547150000000 1.0
C      1  0.4753260000000  0.4861670000000  0.4142820000000 1.0
C      1  0.4386450000000  0.5075570000000  0.4393700000000 1.0
C      1  0.4983710000000  0.4716010000000  0.4209110000000 1.0
C      1  0.4783180000000  0.4780820000000  0.5698520000000 1.0
C      1  0.5580550000000  0.4452390000000  0.5092850000000 1.0
C      1  0.5155460000000  0.4612430000000  0.5123120000000 1.0
C      1  0.4908960000000  0.5586140000000  0.4620240000000 1.0
C      1  0.5640330000000  0.4673980000000  0.5286010000000 1.0
C      1  0.5651930000000  0.4742850000000  0.4656580000000 1.0
C      1  0.4228060000000  0.5198510000000  0.5016530000000 1.0
C      1  0.5552830000000  0.5452930000000  0.5157300000000 1.0
C      1  0.4985780000000  0.5264940000000  0.4263430000000 1.0
C      1  0.4564140000000  0.5316970000000  0.4283940000000 1.0
C      1  0.5246470000000  0.4958420000000  0.5526140000000 1.0
C      1  0.5155410000000  0.5644410000000  0.4951730000000 1.0
C      1  0.5371460000000  0.5442540000000  0.5571000000000 1.0
C      1  0.5231100000000  0.4749290000000  0.4867780000000 1.0
C      1  0.4612000000000  0.4408550000000  0.5022380000000 1.0
C      1  0.5401420000000  0.5624190000000  0.5343190000000 1.0
C      1  0.5013270000000  0.5078150000000  0.5116650000000 1.0
C      1  0.5432230000000  0.4695290000000  0.4467790000000 1.0
C      1  0.5047380000000  0.4373170000000  0.4432420000000 1.0
C      1  0.5090210000000  0.5365370000000  0.5568510000000 1.0
C      1  0.5512780000000  0.4633000000000  0.5550980000000 1.0
C      1  0.5579900000000  0.4497050000000  0.4802910000000 1.0
C      1  0.5528010000000  0.4934320000000  0.4864880000000 1.0
C      1  0.4260930000000  0.4950840000000  0.4889470000000 1.0
C      1  0.5040800000000  0.4866330000000  0.5318870000000 1.0
C      1  0.4586590000000  0.4655240000000  0.5189710000000 1.0
C      1  0.5304200000000  0.4544560000000  0.4686210000000 1.0
C      1  0.5284190000000  0.4737620000000  0.5716710000000 1.0
C      1  0.4774350000000  0.5419170000000  0.5097340000000 1.0
C      1  0.4746640000000  0.4858850000000  0.4761220000000 1.0
C      1  0.4995830000000  0.4725990000000  0.5760560000000 1.0
C      1  0.4900590000000  0.5728450000000  0.5401820000000 1.0
C      1  0.4767850000000  0.5073620000000  0.5797500000000 1.0
C      1  0.4716080000000  0.4817230000000  0.5406150000000 1.0
C      1  0.4273740000000  0.5091120000000  0.4645390000000 1.0
C      1  0.5424750000000  0.5212570000000  0.4765490000000 1.0
C      1  0.4679380000000  0.5619590000000  0.5285290000000 1.0
C      1  0.5648600000000  0.4934840000000  0.5140400000000 1.0
C      1  0.4973530000000  0.5297760000000  0.5277680000000 1.0
C      1  0.4871530000000  0.4264390000000  0.4945020000000 1.0
C      1  0.4657060000000  0.5521850000000  0.4468140000000 1.0
C      1  0.4956150000000  0.4310000000000  0.4678100000000 1.0
C      1  0.5624180000000  0.5186950000000  0.5275640000000 1.0
C      1  0.5106020000000  0.5403090000000  0.4474260000000 1.0
C      1  0.4570390000000  0.4464240000000  0.4746320000000 1.0
C      1  0.4550040000000  0.4847680000000  0.4976220000000 1.0
C      1  0.4359920000000  0.5172450000000  0.5230550000000 1.0
C      1  0.5028600000000  0.4965860000000  0.4805850000000 1.0
C      1  0.5057580000000  0.4346460000000  0.5140710000000 1.0
C      1  0.4634090000000  0.5275350000000  0.5619470000000 1.0
C      1  0.5013950000000  0.5237790000000  0.5832600000000 1.0
C      1  0.5145560000000  0.5714670000000  0.5238020000000 1.0
C      1  0.4636470000000  0.4669880000000  0.4557250000000 1.0
C      1  0.5398370000000  0.5458190000000  0.4915350000000 1.0
C      1  0.4771480000000  0.5170120000000  0.4120460000000 1.0
C      1  0.4532640000000  0.5086440000000  0.5426380000000 1.0
C      1  0.5209240000000  0.4573270000000  0.4293850000000 1.0
C      1  0.4896070000000  0.5586970000000  0.4891160000000 1.0
C      1  0.5461420000000  0.5167400000000  0.5518660000000 1.0
C      1  0.5325080000000  0.4368190000000  0.5192000000000 1.0
END
