TITL C-884128-4793-408 39.4559373976999 125000 -15862.5073326174 0 0 106 (C1) n - 1
REM
REM in /home/nfs/bkarasulu/CARBON/AIRSS/Generating-Clusters/ReaxFF-fromJPCA2015/Units_Real/with-SteepDescent/Only-C1/SD-CG/Try1-3A/FIRE-CG
REM
REM
REM
REM
REM
REM ./C.cell (11c1c37f851c82e70ff6c80c92926a4b)
REM
REM compiler GCC version 9.2.1 20190827 (Red Hat 9.2.1-1)
REM options -cpp -mtune=generic -march=x86-64 -g -O0 -fpre-include=/usr/include/finclude/math-vector-fortran.h
REM seed 746801529 -790563413 -297524257 -1056031652 844821215 -1260523669 -910337093 34258448 2005890804 563026092 1890135920 -1580902914 -1499532707 -1052343158 -193195240 -672540475 829476726 -384275109 205286663 -798206371 -1510177045 1354515168 -1410739585 -1422835150 1588587783 29656496 -1408839933 372198015 -205004058 855429324 -1952058297 1847582357 -155492197
REM
CELL 1.54180   50.00000   50.00000   50.00000   90.00000   90.00000   90.00000
LATT -1
SFAC C  
C      1  0.4596930000000  0.4232630000000  0.5132390000000 1.0
C      1  0.4075880000000  0.4398790000000  0.5005380000000 1.0
C      1  0.5300090000000  0.5458820000000  0.4616120000000 1.0
C      1  0.5281330000000  0.5086910000000  0.5375460000000 1.0
C      1  0.4529060000000  0.4821150000000  0.4202730000000 1.0
C      1  0.4637300000000  0.5705800000000  0.5350440000000 1.0
C      1  0.4685490000000  0.5767670000000  0.5090470000000 1.0
C      1  0.4921350000000  0.4746510000000  0.5418220000000 1.0
C      1  0.4866670000000  0.5076010000000  0.4981470000000 1.0
C      1  0.4135710000000  0.4403030000000  0.4732530000000 1.0
C      1  0.5000750000000  0.5113580000000  0.4741450000000 1.0
C      1  0.4449890000000  0.4609150000000  0.4377930000000 1.0
C      1  0.5503000000000  0.4934810000000  0.5287940000000 1.0
C      1  0.5233530000000  0.5928720000000  0.4917330000000 1.0
C      1  0.4790980000000  0.4758450000000  0.4072740000000 1.0
C      1  0.5010640000000  0.4954200000000  0.4017330000000 1.0
C      1  0.4672000000000  0.4422120000000  0.4390490000000 1.0
C      1  0.4679280000000  0.5268880000000  0.5783800000000 1.0
C      1  0.5453700000000  0.5060160000000  0.4989240000000 1.0
C      1  0.4872580000000  0.4731800000000  0.5714000000000 1.0
C      1  0.4654130000000  0.4490800000000  0.5599570000000 1.0
C      1  0.4494310000000  0.4985120000000  0.4863630000000 1.0
C      1  0.4322880000000  0.5246110000000  0.4480020000000 1.0
C      1  0.4405310000000  0.5308030000000  0.5663230000000 1.0
C      1  0.4413650000000  0.5474100000000  0.5406450000000 1.0
C      1  0.5610300000000  0.4395720000000  0.5261770000000 1.0
C      1  0.4434110000000  0.5106980000000  0.4256820000000 1.0
C      1  0.4745250000000  0.4293750000000  0.5404160000000 1.0
C      1  0.5040840000000  0.4815590000000  0.4685410000000 1.0
C      1  0.4667510000000  0.4786400000000  0.5290240000000 1.0
C      1  0.4015930000000  0.5157060000000  0.5272780000000 1.0
C      1  0.5476100000000  0.5811470000000  0.4852380000000 1.0
C      1  0.5250620000000  0.4658400000000  0.4791710000000 1.0
C      1  0.5976540000000  0.4723120000000  0.5026910000000 1.0
C      1  0.4288690000000  0.5558670000000  0.4842060000000 1.0
C      1  0.4621290000000  0.5294870000000  0.5297960000000 1.0
C      1  0.4894740000000  0.5480800000000  0.5729730000000 1.0
C      1  0.4903100000000  0.5286420000000  0.5183530000000 1.0
C      1  0.5269240000000  0.5301330000000  0.4857730000000 1.0
C      1  0.4154260000000  0.5410660000000  0.5210040000000 1.0
C      1  0.5676000000000  0.5639540000000  0.4755400000000 1.0
C      1  0.4349420000000  0.5535710000000  0.4579930000000 1.0
C      1  0.5084900000000  0.5221680000000  0.5453010000000 1.0
C      1  0.4556880000000  0.5042020000000  0.5395930000000 1.0
C      1  0.5627890000000  0.5255660000000  0.5647820000000 1.0
C      1  0.5750350000000  0.4470580000000  0.5013160000000 1.0
C      1  0.5644210000000  0.5239380000000  0.4407640000000 1.0
C      1  0.5512970000000  0.4843690000000  0.4817930000000 1.0
C      1  0.4872370000000  0.4504720000000  0.4196250000000 1.0
C      1  0.5110060000000  0.5463580000000  0.5050790000000 1.0
C      1  0.5008630000000  0.4993290000000  0.4475670000000 1.0
C      1  0.5790770000000  0.5446000000000  0.5242240000000 1.0
C      1  0.5186470000000  0.5404540000000  0.5702690000000 1.0
C      1  0.4760190000000  0.4995560000000  0.5804820000000 1.0
C      1  0.5567990000000  0.4299950000000  0.4861100000000 1.0
C      1  0.4738500000000  0.5724800000000  0.4356350000000 1.0
C      1  0.5113710000000  0.4575620000000  0.5289900000000 1.0
C      1  0.5109510000000  0.5650610000000  0.4540590000000 1.0
C      1  0.5612090000000  0.5497890000000  0.5476540000000 1.0
C      1  0.5188520000000  0.5722580000000  0.5141010000000 1.0
C      1  0.5701670000000  0.4843080000000  0.4585860000000 1.0
C      1  0.5031540000000  0.4286210000000  0.5374490000000 1.0
C      1  0.5174780000000  0.5054640000000  0.4244890000000 1.0
C      1  0.5175110000000  0.4134030000000  0.5178070000000 1.0
C      1  0.5101890000000  0.4260740000000  0.4512570000000 1.0
C      1  0.4310660000000  0.4254620000000  0.5131460000000 1.0
C      1  0.5461520000000  0.4183120000000  0.5112340000000 1.0
C      1  0.4557530000000  0.5743500000000  0.4590530000000 1.0
C      1  0.4735580000000  0.5830930000000  0.4823960000000 1.0
C      1  0.4364440000000  0.5028250000000  0.5609030000000 1.0
C      1  0.5551230000000  0.5485440000000  0.4527890000000 1.0
C      1  0.5039510000000  0.4269460000000  0.4952750000000 1.0
C      1  0.4043840000000  0.4700790000000  0.5011330000000 1.0
C      1  0.5360120000000  0.5616190000000  0.5556600000000 1.0
C      1  0.6124000000000  0.4566430000000  0.5158990000000 1.0
C      1  0.5816050000000  0.5464930000000  0.4954660000000 1.0
C      1  0.4094250000000  0.4809220000000  0.4747770000000 1.0
C      1  0.5555300000000  0.4760830000000  0.4342180000000 1.0
C      1  0.4199970000000  0.4607520000000  0.4556370000000 1.0
C      1  0.4763320000000  0.4206900000000  0.4884690000000 1.0
C      1  0.4817550000000  0.4272210000000  0.4603240000000 1.0
C      1  0.4253030000000  0.5077600000000  0.4741050000000 1.0
C      1  0.5089400000000  0.4555550000000  0.4997520000000 1.0
C      1  0.5142390000000  0.4404720000000  0.4265210000000 1.0
C      1  0.5180180000000  0.4709530000000  0.5839620000000 1.0
C      1  0.4441260000000  0.4598560000000  0.5445030000000 1.0
C      1  0.4159530000000  0.5351880000000  0.4927330000000 1.0
C      1  0.5835540000000  0.5103980000000  0.4577370000000 1.0
C      1  0.4878070000000  0.5688440000000  0.5531930000000 1.0
C      1  0.4684880000000  0.4875520000000  0.5006070000000 1.0
C      1  0.5009830000000  0.5667750000000  0.4249850000000 1.0
C      1  0.5726910000000  0.5052600000000  0.5469220000000 1.0
C      1  0.4050580000000  0.4859190000000  0.5267410000000 1.0
C      1  0.4229420000000  0.4790790000000  0.5492780000000 1.0
C      1  0.5405400000000  0.4508050000000  0.4356790000000 1.0
C      1  0.5295700000000  0.4955250000000  0.5844380000000 1.0
C      1  0.5147760000000  0.5764170000000  0.5432940000000 1.0
C      1  0.5475100000000  0.5033370000000  0.4277250000000 1.0
C      1  0.5017370000000  0.5850660000000  0.4730190000000 1.0
C      1  0.5923450000000  0.5216530000000  0.4836120000000 1.0
C      1  0.5438310000000  0.4608270000000  0.5394040000000 1.0
C      1  0.5981340000000  0.5028760000000  0.5044050000000 1.0
C      1  0.5398060000000  0.5205010000000  0.5827440000000 1.0
C      1  0.5389720000000  0.4562220000000  0.5691820000000 1.0
C      1  0.5910840000000  0.5177470000000  0.5285530000000 1.0
C      1  0.5359650000000  0.4383100000000  0.4626970000000 1.0
END
