TITL C-883732-77-445 -4.70150955282208 125000 -6466.06989863902 0 0 45 (C1) n - 1
REM
REM in /home/nfs/bkarasulu/CARBON/AIRSS/Generating-Clusters/ReaxFF-fromJPCA2015/Units_Real/with-SteepDescent/Only-C1/SD-CG/Try1-3A/FIRE-CG
REM
REM
REM
REM
REM
REM ./C.cell (11c1c37f851c82e70ff6c80c92926a4b)
REM
REM compiler GCC version 9.2.1 20190827 (Red Hat 9.2.1-1)
REM options -cpp -mtune=generic -march=x86-64 -g -O0 -fpre-include=/usr/include/finclude/math-vector-fortran.h
REM seed 503974705 2114803329 -1694980408 76506893 -1116646637 -1595316374 1642299341 -137455880 406608602 -863225378 -2037566442 990116387 2006300932 78631483 2054930891 1483415603 881965912 1197496336 -764648498 -941859719 594655826 -1036655392 627200563 2120011708 1160535670 -287109787 -618255227 1057439025 -1621637705 1058271887 -1885429176 -1898369170 -1864884036
REM
CELL 1.54180   50.00000   50.00000   50.00000   90.00000   90.00000   90.00000
LATT -1
SFAC C  
C      1  0.4471260000000  0.4598610000000  0.5026640000000 1.0
C      1  0.5263280000000  0.5584320000000  0.4833110000000 1.0
C      1  0.5387780000000  0.5420760000000  0.4623100000000 1.0
C      1  0.4993620000000  0.5220020000000  0.5560290000000 1.0
C      1  0.4930090000000  0.4498800000000  0.5493380000000 1.0
C      1  0.5599870000000  0.5235630000000  0.5272030000000 1.0
C      1  0.4746100000000  0.5392650000000  0.4325310000000 1.0
C      1  0.4718490000000  0.5500330000000  0.4885360000000 1.0
C      1  0.4697810000000  0.4436160000000  0.5046740000000 1.0
C      1  0.4560720000000  0.5277680000000  0.4505170000000 1.0
C      1  0.5605700000000  0.5273030000000  0.4739540000000 1.0
C      1  0.4439640000000  0.4600200000000  0.5413020000000 1.0
C      1  0.4291660000000  0.5202050000000  0.4933060000000 1.0
C      1  0.5160630000000  0.4483830000000  0.5316430000000 1.0
C      1  0.5228060000000  0.5236120000000  0.4448220000000 1.0
C      1  0.4240360000000  0.5059340000000  0.5194280000000 1.0
C      1  0.5294670000000  0.4963030000000  0.4506510000000 1.0
C      1  0.5325810000000  0.5383300000000  0.5270880000000 1.0
C      1  0.5656490000000  0.5371540000000  0.5008490000000 1.0
C      1  0.4576980000000  0.4866470000000  0.5034290000000 1.0
C      1  0.5041430000000  0.4492750000000  0.4653400000000 1.0
C      1  0.5128870000000  0.4657610000000  0.5059120000000 1.0
C      1  0.5429790000000  0.4628810000000  0.5027790000000 1.0
C      1  0.5565800000000  0.4972200000000  0.5302870000000 1.0
C      1  0.4775050000000  0.4985620000000  0.5223690000000 1.0
C      1  0.4817040000000  0.4812670000000  0.4589900000000 1.0
C      1  0.4961040000000  0.5326470000000  0.4373650000000 1.0
C      1  0.4593890000000  0.4985340000000  0.4566940000000 1.0
C      1  0.5008130000000  0.5464980000000  0.4936980000000 1.0
C      1  0.5537780000000  0.4742180000000  0.5278690000000 1.0
C      1  0.5447860000000  0.5568350000000  0.5062200000000 1.0
C      1  0.5030510000000  0.4965360000000  0.5093420000000 1.0
C      1  0.5307210000000  0.4683500000000  0.5470960000000 1.0
C      1  0.5038840000000  0.4754630000000  0.5594990000000 1.0
C      1  0.4936010000000  0.4533480000000  0.4850460000000 1.0
C      1  0.5146120000000  0.5442380000000  0.5557800000000 1.0
C      1  0.4862920000000  0.4981360000000  0.5514030000000 1.0
C      1  0.4470770000000  0.5390150000000  0.4777920000000 1.0
C      1  0.4425090000000  0.4981090000000  0.4812450000000 1.0
C      1  0.5553960000000  0.4812440000000  0.4884780000000 1.0
C      1  0.5546840000000  0.4981980000000  0.4665170000000 1.0
C      1  0.4672190000000  0.4439010000000  0.5345550000000 1.0
C      1  0.5132280000000  0.5233720000000  0.5075750000000 1.0
C      1  0.4298080000000  0.4815040000000  0.5336190000000 1.0
C      1  0.5083480000000  0.4744990000000  0.4509430000000 1.0
END
