TITL C-884140-4336-440 4.1989748564617 125000 -1964.52271407779 0 0 15 (C1) n - 1
REM
REM in /home/nfs/bkarasulu/CARBON/AIRSS/Generating-Clusters/ReaxFF-fromJPCA2015/Units_Real/with-SteepDescent/Only-C1/SD-CG/Try1-3A/FIRE-CG
REM
REM
REM
REM
REM
REM ./C.cell (11c1c37f851c82e70ff6c80c92926a4b)
REM
REM compiler GCC version 9.2.1 20190827 (Red Hat 9.2.1-1)
REM options -cpp -mtune=generic -march=x86-64 -g -O0 -fpre-include=/usr/include/finclude/math-vector-fortran.h
REM seed -2030869732 -1193288855 307713293 -1069389007 1568529709 66405885 -35203783 144171014 1947404369 -315107652 -584400974 -2124730020 16019968 254336902 -2049933184 -1964844410 993028267 -463947706 -1837150587 -212740006 -207540665 1840998634 -1554143975 -1170233022 1284457527 -13011867 -50354900 -1311801972 -25055466 -653404079 -317842425 -1798486166 -676742017
REM
CELL 1.54180   50.00000   50.00000   50.00000   90.00000   90.00000   90.00000
LATT -1
SFAC C  
C      1  0.5227370000000  0.5259250000000  0.5017200000000 1.0
C      1  0.5012580000000  0.5426360000000  0.5569160000000 1.0
C      1  0.5048930000000  0.5283900000000  0.4802800000000 1.0
C      1  0.5017120000000  0.4538140000000  0.5301650000000 1.0
C      1  0.4909420000000  0.4620100000000  0.4623050000000 1.0
C      1  0.5184330000000  0.5343280000000  0.5426430000000 1.0
C      1  0.4946840000000  0.4774570000000  0.4373870000000 1.0
C      1  0.4844090000000  0.5076310000000  0.4750870000000 1.0
C      1  0.5115780000000  0.5279370000000  0.4494480000000 1.0
C      1  0.4907290000000  0.5069310000000  0.4461670000000 1.0
C      1  0.4845880000000  0.4804460000000  0.4857250000000 1.0
C      1  0.4844290000000  0.4729890000000  0.5138010000000 1.0
C      1  0.4760510000000  0.4880500000000  0.5389330000000 1.0
C      1  0.4923180000000  0.4680910000000  0.5554690000000 1.0
C      1  0.5412400000000  0.5233680000000  0.5239520000000 1.0
END
