TITL C-884127-5181-408 19.5170045662355 125000 -29804.1225827777 0 0 198 (C1) n - 1
REM
REM in /home/nfs/bkarasulu/CARBON/AIRSS/Generating-Clusters/ReaxFF-fromJPCA2015/Units_Real/with-SteepDescent/Only-C1/SD-CG/Try1-3A/FIRE-CG
REM
REM
REM
REM
REM
REM ./C.cell (11c1c37f851c82e70ff6c80c92926a4b)
REM
REM compiler GCC version 9.2.1 20190827 (Red Hat 9.2.1-1)
REM options -cpp -mtune=generic -march=x86-64 -g -O0 -fpre-include=/usr/include/finclude/math-vector-fortran.h
REM seed -700149591 1663565961 840382840 -268104442 -458408386 1977324351 1541151994 -990963999 -658351545 1632603112 -1903512993 929231740 -255942353 -2107051289 -731946675 1762587303 -270867549 1283988763 368606796 -996914003 1024105608 -293479654 1812253517 2030533979 -238416006 -374195416 -2037315081 718366296 -1560595919 -1666690639 1646111193 -146228097 -1970156381
REM
CELL 1.54180   50.00000   50.00000   50.00000   90.00000   90.00000   90.00000
LATT -1
SFAC C  
C      1  0.4151280000000  0.4524700000000  0.5636110000000 1.0
C      1  0.5145980000000  0.4156880000000  0.5585170000000 1.0
C      1  0.5525560000000  0.5082970000000  0.4558820000000 1.0
C      1  0.5730020000000  0.4803210000000  0.5855300000000 1.0
C      1  0.4829250000000  0.4470640000000  0.4814520000000 1.0
C      1  0.5298020000000  0.5560100000000  0.5984900000000 1.0
C      1  0.4902640000000  0.5549770000000  0.6059570000000 1.0
C      1  0.5667640000000  0.4499310000000  0.5462260000000 1.0
C      1  0.5772990000000  0.5813930000000  0.5106640000000 1.0
C      1  0.6049330000000  0.5438240000000  0.4995470000000 1.0
C      1  0.5876180000000  0.4107930000000  0.5119420000000 1.0
C      1  0.4841670000000  0.5216010000000  0.4950290000000 1.0
C      1  0.4987580000000  0.3813020000000  0.5102600000000 1.0
C      1  0.4826410000000  0.5302290000000  0.4633420000000 1.0
C      1  0.5507180000000  0.4586830000000  0.4877100000000 1.0
C      1  0.5524290000000  0.5559690000000  0.5838210000000 1.0
C      1  0.5570450000000  0.5763750000000  0.5596220000000 1.0
C      1  0.4790940000000  0.5071510000000  0.4465390000000 1.0
C      1  0.5197940000000  0.4258110000000  0.5790510000000 1.0
C      1  0.5235310000000  0.5099100000000  0.4554980000000 1.0
C      1  0.5777440000000  0.5718540000000  0.5385890000000 1.0
C      1  0.5192280000000  0.4726380000000  0.5927980000000 1.0
C      1  0.4237110000000  0.4740280000000  0.5812380000000 1.0
C      1  0.5487410000000  0.4809370000000  0.5112430000000 1.0
C      1  0.4029370000000  0.4547740000000  0.5387340000000 1.0
C      1  0.5240970000000  0.3917070000000  0.5194110000000 1.0
C      1  0.6141810000000  0.5408750000000  0.5273860000000 1.0
C      1  0.4858240000000  0.5876080000000  0.5294950000000 1.0
C      1  0.4834210000000  0.6003990000000  0.4595710000000 1.0
C      1  0.6030940000000  0.5073380000000  0.4476020000000 1.0
C      1  0.5503170000000  0.4234410000000  0.4350240000000 1.0
C      1  0.5762080000000  0.4386790000000  0.4421180000000 1.0
C      1  0.5152090000000  0.4646450000000  0.5417630000000 1.0
C      1  0.4568210000000  0.5998630000000  0.5571290000000 1.0
C      1  0.6165340000000  0.5126640000000  0.5335620000000 1.0
C      1  0.5431280000000  0.4710470000000  0.5398090000000 1.0
C      1  0.4678500000000  0.4365390000000  0.5218300000000 1.0
C      1  0.5074490000000  0.5157770000000  0.6100260000000 1.0
C      1  0.5988530000000  0.4589170000000  0.5093480000000 1.0
C      1  0.3937410000000  0.4584470000000  0.5127360000000 1.0
C      1  0.5604860000000  0.6051230000000  0.5023580000000 1.0
C      1  0.4217310000000  0.4918860000000  0.5377020000000 1.0
C      1  0.3946410000000  0.5068740000000  0.4573750000000 1.0
C      1  0.5347570000000  0.5113550000000  0.5090860000000 1.0
C      1  0.4174470000000  0.5772130000000  0.5441210000000 1.0
C      1  0.5900840000000  0.5665240000000  0.4895830000000 1.0
C      1  0.4374390000000  0.5797360000000  0.5658300000000 1.0
C      1  0.5086960000000  0.5679990000000  0.4889910000000 1.0
C      1  0.5642100000000  0.5649430000000  0.4402270000000 1.0
C      1  0.4424350000000  0.5071770000000  0.4849060000000 1.0
C      1  0.5729090000000  0.4236270000000  0.5349020000000 1.0
C      1  0.4368520000000  0.5340520000000  0.4474360000000 1.0
C      1  0.5374870000000  0.5840990000000  0.4425990000000 1.0
C      1  0.5312440000000  0.4554740000000  0.4648420000000 1.0
C      1  0.4716250000000  0.5528390000000  0.5603710000000 1.0
C      1  0.5834820000000  0.4703750000000  0.4873960000000 1.0
C      1  0.4649850000000  0.4238230000000  0.6023990000000 1.0
C      1  0.4080590000000  0.5328910000000  0.4514740000000 1.0
C      1  0.4485800000000  0.4149600000000  0.5824720000000 1.0
C      1  0.4598560000000  0.4937470000000  0.6060700000000 1.0
C      1  0.4579330000000  0.5679850000000  0.4801610000000 1.0
C      1  0.5930200000000  0.4611790000000  0.5401940000000 1.0
C      1  0.4879090000000  0.6211020000000  0.4805030000000 1.0
C      1  0.4786530000000  0.5805120000000  0.5574200000000 1.0
C      1  0.4413520000000  0.3961950000000  0.5016660000000 1.0
C      1  0.4742650000000  0.4614160000000  0.5334800000000 1.0
C      1  0.5060150000000  0.4379020000000  0.4628190000000 1.0
C      1  0.4306450000000  0.4824780000000  0.4272000000000 1.0
C      1  0.4321690000000  0.4651380000000  0.4935900000000 1.0
C      1  0.4486370000000  0.6115400000000  0.4871480000000 1.0
C      1  0.5314290000000  0.6089230000000  0.5063800000000 1.0
C      1  0.5939340000000  0.4801250000000  0.5622350000000 1.0
C      1  0.4286610000000  0.4990490000000  0.5666890000000 1.0
C      1  0.5190770000000  0.5881630000000  0.5256800000000 1.0
C      1  0.4104230000000  0.4417040000000  0.4917190000000 1.0
C      1  0.4770640000000  0.5051370000000  0.3934940000000 1.0
C      1  0.5340100000000  0.5916100000000  0.5531720000000 1.0
C      1  0.5938800000000  0.5178780000000  0.4905720000000 1.0
C      1  0.5897590000000  0.4338450000000  0.4665090000000 1.0
C      1  0.4767950000000  0.3916220000000  0.4641910000000 1.0
C      1  0.3956790000000  0.5020170000000  0.5322000000000 1.0
C      1  0.4887850000000  0.5319130000000  0.5503450000000 1.0
C      1  0.4655280000000  0.5435190000000  0.6008830000000 1.0
C      1  0.5336410000000  0.4689130000000  0.4396290000000 1.0
C      1  0.4460490000000  0.5504200000000  0.5760940000000 1.0
C      1  0.5962220000000  0.5515010000000  0.5477900000000 1.0
C      1  0.4689130000000  0.4970440000000  0.4936810000000 1.0
C      1  0.4369380000000  0.4287830000000  0.4616120000000 1.0
C      1  0.4124990000000  0.4847640000000  0.4497700000000 1.0
C      1  0.5435830000000  0.4311230000000  0.4972950000000 1.0
C      1  0.4584430000000  0.5458560000000  0.4620580000000 1.0
C      1  0.4034570000000  0.5610350000000  0.4565680000000 1.0
C      1  0.4488590000000  0.4383970000000  0.4145260000000 1.0
C      1  0.5580360000000  0.6126000000000  0.4754140000000 1.0
C      1  0.5198870000000  0.5735540000000  0.4198790000000 1.0
C      1  0.6060290000000  0.5064380000000  0.5600560000000 1.0
C      1  0.4765540000000  0.5153550000000  0.6081590000000 1.0
C      1  0.4344630000000  0.5293230000000  0.5004230000000 1.0
C      1  0.4915180000000  0.3998420000000  0.5601850000000 1.0
C      1  0.5127890000000  0.5351760000000  0.4571470000000 1.0
C      1  0.5469370000000  0.5339610000000  0.4955560000000 1.0
C      1  0.5321220000000  0.4457930000000  0.5953900000000 1.0
C      1  0.4674830000000  0.4528280000000  0.6037650000000 1.0
C      1  0.5570660000000  0.4584340000000  0.5906720000000 1.0
C      1  0.4106100000000  0.5459370000000  0.5045510000000 1.0
C      1  0.3867620000000  0.4872230000000  0.5090860000000 1.0
C      1  0.5283390000000  0.5712760000000  0.4683370000000 1.0
C      1  0.4846850000000  0.5780710000000  0.4780590000000 1.0
C      1  0.3771360000000  0.5310780000000  0.4858670000000 1.0
C      1  0.4626420000000  0.5679440000000  0.5137520000000 1.0
C      1  0.4358000000000  0.5902690000000  0.4750760000000 1.0
C      1  0.5125960000000  0.4743660000000  0.3926480000000 1.0
C      1  0.5882780000000  0.4673030000000  0.4398260000000 1.0
C      1  0.5182650000000  0.5283560000000  0.3941980000000 1.0
C      1  0.4513400000000  0.4467050000000  0.4770360000000 1.0
C      1  0.4030740000000  0.5530210000000  0.5325280000000 1.0
C      1  0.4492440000000  0.5585620000000  0.4105970000000 1.0
C      1  0.4611350000000  0.5348990000000  0.5146870000000 1.0
C      1  0.4375790000000  0.5754810000000  0.5246070000000 1.0
C      1  0.5658800000000  0.5189210000000  0.4793500000000 1.0
C      1  0.5889000000000  0.4940460000000  0.4259710000000 1.0
C      1  0.4723240000000  0.5922710000000  0.4332770000000 1.0
C      1  0.3914400000000  0.5555220000000  0.4832000000000 1.0
C      1  0.4698660000000  0.6120640000000  0.5322320000000 1.0
C      1  0.5175030000000  0.6182350000000  0.4822520000000 1.0
C      1  0.5571240000000  0.4094560000000  0.4825180000000 1.0
C      1  0.5379170000000  0.5219590000000  0.5383580000000 1.0
C      1  0.5060040000000  0.5073640000000  0.5078560000000 1.0
C      1  0.4379880000000  0.4788840000000  0.5195640000000 1.0
C      1  0.5990750000000  0.4324850000000  0.4942170000000 1.0
C      1  0.4212370000000  0.4162710000000  0.4954330000000 1.0
C      1  0.5188180000000  0.4223700000000  0.5122850000000 1.0
C      1  0.5047420000000  0.4722330000000  0.5690890000000 1.0
C      1  0.4260760000000  0.4863080000000  0.4753840000000 1.0
C      1  0.5711560000000  0.4955670000000  0.5235450000000 1.0
C      1  0.5639290000000  0.5127710000000  0.4267510000000 1.0
C      1  0.4479260000000  0.4207370000000  0.5346050000000 1.0
C      1  0.4977120000000  0.4226980000000  0.4243500000000 1.0
C      1  0.5580780000000  0.5445650000000  0.4220190000000 1.0
C      1  0.5431640000000  0.4052860000000  0.4564310000000 1.0
C      1  0.4244570000000  0.5276910000000  0.5680960000000 1.0
C      1  0.5284050000000  0.4983050000000  0.6012640000000 1.0
C      1  0.5710940000000  0.3897480000000  0.4994680000000 1.0
C      1  0.4663110000000  0.4052470000000  0.4881450000000 1.0
C      1  0.5030410000000  0.4794650000000  0.5125110000000 1.0
C      1  0.4914180000000  0.5767670000000  0.4164740000000 1.0
C      1  0.5204980000000  0.5587500000000  0.5148400000000 1.0
C      1  0.4677780000000  0.5172830000000  0.5375140000000 1.0
C      1  0.5540360000000  0.4999250000000  0.5472200000000 1.0
C      1  0.4438020000000  0.4712790000000  0.6037610000000 1.0
C      1  0.4335360000000  0.5351800000000  0.4186810000000 1.0
C      1  0.4665840000000  0.5075680000000  0.4207050000000 1.0
C      1  0.5497140000000  0.3768450000000  0.5159330000000 1.0
C      1  0.4899150000000  0.5315920000000  0.3909330000000 1.0
C      1  0.4498500000000  0.4193780000000  0.4370780000000 1.0
C      1  0.4732780000000  0.4032840000000  0.5831130000000 1.0
C      1  0.5497970000000  0.4671040000000  0.4145670000000 1.0
C      1  0.5015520000000  0.3859580000000  0.4792620000000 1.0
C      1  0.4766620000000  0.4066940000000  0.4380170000000 1.0
C      1  0.4646620000000  0.4895790000000  0.5242900000000 1.0
C      1  0.5526040000000  0.4946320000000  0.4046710000000 1.0
C      1  0.4677810000000  0.6226000000000  0.5039070000000 1.0
C      1  0.5356720000000  0.6111360000000  0.4590010000000 1.0
C      1  0.5328620000000  0.5501320000000  0.4088600000000 1.0
C      1  0.4904010000000  0.4761870000000  0.4857680000000 1.0
C      1  0.3801030000000  0.5030700000000  0.4837140000000 1.0
C      1  0.4038820000000  0.5281320000000  0.5477320000000 1.0
C      1  0.4999840000000  0.4904010000000  0.4547940000000 1.0
C      1  0.5674460000000  0.5297180000000  0.5846370000000 1.0
C      1  0.5965390000000  0.5345610000000  0.4526980000000 1.0
C      1  0.4795090000000  0.4629610000000  0.5784030000000 1.0
C      1  0.4380350000000  0.5069030000000  0.4143430000000 1.0
C      1  0.5982530000000  0.4795810000000  0.4638320000000 1.0
C      1  0.4456480000000  0.5807580000000  0.4297080000000 1.0
C      1  0.5138060000000  0.5437550000000  0.6180550000000 1.0
C      1  0.4632950000000  0.4577040000000  0.3988790000000 1.0
C      1  0.5983940000000  0.5001240000000  0.5139120000000 1.0
C      1  0.4534600000000  0.3928600000000  0.5289650000000 1.0
C      1  0.4817780000000  0.3877370000000  0.5331360000000 1.0
C      1  0.5152720000000  0.5399170000000  0.5370910000000 1.0
C      1  0.4849050000000  0.4257430000000  0.5013990000000 1.0
C      1  0.4535970000000  0.4631920000000  0.4249780000000 1.0
C      1  0.5357120000000  0.5445280000000  0.4712610000000 1.0
C      1  0.4892010000000  0.4474740000000  0.4367700000000 1.0
C      1  0.5562340000000  0.5043050000000  0.5931980000000 1.0
C      1  0.5269150000000  0.4273810000000  0.4175100000000 1.0
C      1  0.4629310000000  0.4544830000000  0.5581160000000 1.0
C      1  0.5856980000000  0.5599950000000  0.4594940000000 1.0
C      1  0.5179670000000  0.4354420000000  0.5391070000000 1.0
C      1  0.5300710000000  0.4510550000000  0.4005800000000 1.0
C      1  0.4412970000000  0.4331850000000  0.5611430000000 1.0
C      1  0.5155580000000  0.4079500000000  0.4657090000000 1.0
C      1  0.5051170000000  0.4719880000000  0.4331730000000 1.0
C      1  0.4769130000000  0.5559270000000  0.4017560000000 1.0
C      1  0.4836700000000  0.4767510000000  0.3897110000000 1.0
C      1  0.4238240000000  0.5814480000000  0.4499270000000 1.0
C      1  0.5912560000000  0.5306990000000  0.5681140000000 1.0
C      1  0.5274060000000  0.5006500000000  0.3923750000000 1.0
END
