TITL C-883730-8503-390 25.2226303592715 125000 -16322.1523161956 0 0 112 (C1) n - 1
REM
REM in /home/nfs/bkarasulu/CARBON/AIRSS/Generating-Clusters/ReaxFF-fromJPCA2015/Units_Real/with-SteepDescent/Only-C1/SD-CG/Try1-3A/FIRE-CG
REM
REM
REM
REM
REM
REM ./C.cell (11c1c37f851c82e70ff6c80c92926a4b)
REM
REM compiler GCC version 9.2.1 20190827 (Red Hat 9.2.1-1)
REM options -cpp -mtune=generic -march=x86-64 -g -O0 -fpre-include=/usr/include/finclude/math-vector-fortran.h
REM seed -591293712 422424165 110747279 -1801350884 -1819892922 2078446465 77940364 -2136429067 1549169047 -1828451676 -1147380297 997965036 548742544 -303848224 1140480388 1338058404 44401843 592421532 2091114526 -1133533986 1377208694 994714235 -1649304289 884231746 -71632634 -1942036490 -1724500749 2096440010 937436992 273707257 945490723 206113127 739577962
REM
CELL 1.54180   50.00000   50.00000   50.00000   90.00000   90.00000   90.00000
LATT -1
SFAC C  
C      1  0.5428490000000  0.5406260000000  0.4094660000000 1.0
C      1  0.4834120000000  0.5879610000000  0.4834690000000 1.0
C      1  0.4379730000000  0.5180360000000  0.4367470000000 1.0
C      1  0.4767530000000  0.4769580000000  0.5693160000000 1.0
C      1  0.4281420000000  0.4736030000000  0.5382630000000 1.0
C      1  0.4699810000000  0.4237730000000  0.4520160000000 1.0
C      1  0.5891490000000  0.5359580000000  0.5072290000000 1.0
C      1  0.4602880000000  0.5193090000000  0.5374600000000 1.0
C      1  0.5766070000000  0.5606860000000  0.5175120000000 1.0
C      1  0.4512880000000  0.4205670000000  0.4981330000000 1.0
C      1  0.4858560000000  0.5615740000000  0.5284370000000 1.0
C      1  0.5044700000000  0.5005630000000  0.4391330000000 1.0
C      1  0.5497020000000  0.4618500000000  0.5643230000000 1.0
C      1  0.5354580000000  0.4371340000000  0.5550570000000 1.0
C      1  0.5677720000000  0.5183270000000  0.4337510000000 1.0
C      1  0.5779620000000  0.4589420000000  0.4616050000000 1.0
C      1  0.4555370000000  0.5873640000000  0.4953530000000 1.0
C      1  0.5858580000000  0.5267280000000  0.4796290000000 1.0
C      1  0.6057540000000  0.4575830000000  0.5055400000000 1.0
C      1  0.4791540000000  0.5076670000000  0.4269740000000 1.0
C      1  0.4247530000000  0.4657130000000  0.5099020000000 1.0
C      1  0.5363180000000  0.5111500000000  0.5173140000000 1.0
C      1  0.4884560000000  0.5036640000000  0.4957320000000 1.0
C      1  0.5203910000000  0.5028260000000  0.5751440000000 1.0
C      1  0.5729420000000  0.5322950000000  0.5636630000000 1.0
C      1  0.4211640000000  0.5047200000000  0.4782410000000 1.0
C      1  0.5506990000000  0.4641540000000  0.4560030000000 1.0
C      1  0.5181570000000  0.4166320000000  0.5084060000000 1.0
C      1  0.5154910000000  0.5911160000000  0.5244110000000 1.0
C      1  0.4806940000000  0.4545450000000  0.4152400000000 1.0
C      1  0.4919150000000  0.4996400000000  0.5705150000000 1.0
C      1  0.5817550000000  0.5385070000000  0.4506380000000 1.0
C      1  0.4242730000000  0.4441050000000  0.4655860000000 1.0
C      1  0.4696670000000  0.4805780000000  0.4876850000000 1.0
C      1  0.5859300000000  0.5111960000000  0.5225750000000 1.0
C      1  0.4908970000000  0.5492250000000  0.5043510000000 1.0
C      1  0.4418180000000  0.4902650000000  0.4272150000000 1.0
C      1  0.5082940000000  0.5691420000000  0.5435200000000 1.0
C      1  0.5661110000000  0.4653650000000  0.5106520000000 1.0
C      1  0.5296470000000  0.4516000000000  0.4807610000000 1.0
C      1  0.5313930000000  0.4831150000000  0.5559510000000 1.0
C      1  0.4639990000000  0.5312240000000  0.4349970000000 1.0
C      1  0.4566360000000  0.4300490000000  0.5527850000000 1.0
C      1  0.4371550000000  0.5028140000000  0.5781710000000 1.0
C      1  0.4952160000000  0.4598170000000  0.5753200000000 1.0
C      1  0.5497230000000  0.5556590000000  0.4326930000000 1.0
C      1  0.4425880000000  0.5712340000000  0.5164830000000 1.0
C      1  0.5292300000000  0.4786420000000  0.4159650000000 1.0
C      1  0.4475580000000  0.4754620000000  0.5824300000000 1.0
C      1  0.4856050000000  0.5432870000000  0.5663780000000 1.0
C      1  0.4565750000000  0.4964440000000  0.5214510000000 1.0
C      1  0.5126850000000  0.5545020000000  0.5695620000000 1.0
C      1  0.4782510000000  0.5296220000000  0.4861210000000 1.0
C      1  0.5368670000000  0.5824850000000  0.4818660000000 1.0
C      1  0.5832020000000  0.5065380000000  0.5513590000000 1.0
C      1  0.4529740000000  0.4634270000000  0.4245980000000 1.0
C      1  0.4408230000000  0.5257410000000  0.5598250000000 1.0
C      1  0.5395870000000  0.4560310000000  0.5103900000000 1.0
C      1  0.5405720000000  0.5360100000000  0.5318940000000 1.0
C      1  0.5183810000000  0.4332520000000  0.4406070000000 1.0
C      1  0.4578890000000  0.4762610000000  0.5413500000000 1.0
C      1  0.5032380000000  0.4101540000000  0.4853190000000 1.0
C      1  0.5231210000000  0.4244080000000  0.4681240000000 1.0
C      1  0.4773760000000  0.4672590000000  0.4635240000000 1.0
C      1  0.5837640000000  0.4515920000000  0.4904630000000 1.0
C      1  0.4868500000000  0.5187920000000  0.5493380000000 1.0
C      1  0.5156470000000  0.5432210000000  0.4913860000000 1.0
C      1  0.4732040000000  0.5719310000000  0.4606690000000 1.0
C      1  0.4424630000000  0.4503290000000  0.5685180000000 1.0
C      1  0.4602610000000  0.5663680000000  0.5387770000000 1.0
C      1  0.5067560000000  0.5009300000000  0.5180990000000 1.0
C      1  0.4194910000000  0.5253170000000  0.5211720000000 1.0
C      1  0.5217460000000  0.5417400000000  0.4637110000000 1.0
C      1  0.5112740000000  0.5901590000000  0.4942650000000 1.0
C      1  0.4942690000000  0.4539960000000  0.5282290000000 1.0
C      1  0.4811140000000  0.4917890000000  0.4504960000000 1.0
C      1  0.5369950000000  0.5647070000000  0.4574750000000 1.0
C      1  0.5037790000000  0.4698650000000  0.4111520000000 1.0
C      1  0.5741580000000  0.5013000000000  0.4795820000000 1.0
C      1  0.4063480000000  0.4903660000000  0.4618270000000 1.0
C      1  0.4239330000000  0.5268690000000  0.4620060000000 1.0
C      1  0.5006060000000  0.4575490000000  0.4796830000000 1.0
C      1  0.4452560000000  0.5741340000000  0.4712890000000 1.0
C      1  0.5255070000000  0.5310760000000  0.5800390000000 1.0
C      1  0.5257080000000  0.5170320000000  0.4489810000000 1.0
C      1  0.4248510000000  0.5498930000000  0.5065430000000 1.0
C      1  0.5409240000000  0.5097200000000  0.4243920000000 1.0
C      1  0.5638000000000  0.5504590000000  0.5422540000000 1.0
C      1  0.5084310000000  0.4371510000000  0.5671450000000 1.0
C      1  0.5715290000000  0.4853850000000  0.4566900000000 1.0
C      1  0.4833690000000  0.4568800000000  0.5017250000000 1.0
C      1  0.4738770000000  0.4146580000000  0.4788500000000 1.0
C      1  0.5418780000000  0.5832530000000  0.5241750000000 1.0
C      1  0.4572700000000  0.5510620000000  0.5636560000000 1.0
C      1  0.5355610000000  0.4300930000000  0.5262050000000 1.0
C      1  0.5170380000000  0.4746330000000  0.5294320000000 1.0
C      1  0.5660490000000  0.4940640000000  0.5072340000000 1.0
C      1  0.4505750000000  0.4465310000000  0.4495990000000 1.0
C      1  0.4076160000000  0.4657060000000  0.4598120000000 1.0
C      1  0.4397330000000  0.4888390000000  0.4970340000000 1.0
C      1  0.5485830000000  0.5336500000000  0.5774610000000 1.0
C      1  0.4286330000000  0.5507230000000  0.4776670000000 1.0
C      1  0.4903830000000  0.4322050000000  0.4322420000000 1.0
C      1  0.5364450000000  0.5358490000000  0.5052890000000 1.0
C      1  0.5591140000000  0.5799990000000  0.5024690000000 1.0
C      1  0.4184150000000  0.5007990000000  0.5325120000000 1.0
C      1  0.4290930000000  0.4409300000000  0.4943630000000 1.0
C      1  0.4514430000000  0.4235350000000  0.5258600000000 1.0
C      1  0.4755240000000  0.5426840000000  0.4593150000000 1.0
C      1  0.5363690000000  0.4548920000000  0.4305190000000 1.0
C      1  0.5729890000000  0.4799400000000  0.5599590000000 1.0
C      1  0.4873980000000  0.4323270000000  0.5463140000000 1.0
END
