TITL C-884136-4169-351 11.0299949290824 125000 -22975.1314760213 0 0 154 (C1) n - 1
REM
REM in /home/nfs/bkarasulu/CARBON/AIRSS/Generating-Clusters/ReaxFF-fromJPCA2015/Units_Real/with-SteepDescent/Only-C1/SD-CG/Try1-3A/FIRE-CG
REM
REM
REM
REM
REM
REM ./C.cell (11c1c37f851c82e70ff6c80c92926a4b)
REM
REM compiler GCC version 9.2.1 20190827 (Red Hat 9.2.1-1)
REM options -cpp -mtune=generic -march=x86-64 -g -O0 -fpre-include=/usr/include/finclude/math-vector-fortran.h
REM seed -76728798 283715975 -920251880 989800768 -1000318122 1465147896 -272982090 1760724779 1744599133 -991084555 1039760548 1151925896 2017369129 1851959871 -588662455 434082176 1869032776 -146211054 -527399225 -995575805 1795377662 -1088027038 1329332758 1529847719 1254218241 -1998379044 1667745522 1782505544 680574462 -2106097884 1891835429 -483049495 831561162
REM
CELL 1.54180   50.00000   50.00000   50.00000   90.00000   90.00000   90.00000
LATT -1
SFAC C  
C      1  0.4707180000000  0.4609010000000  0.5933500000000 1.0
C      1  0.4315920000000  0.5559160000000  0.4907770000000 1.0
C      1  0.5073880000000  0.4191910000000  0.4191240000000 1.0
C      1  0.5098960000000  0.3923050000000  0.5289390000000 1.0
C      1  0.4802660000000  0.4229550000000  0.4820940000000 1.0
C      1  0.5677190000000  0.5755020000000  0.5189650000000 1.0
C      1  0.4655150000000  0.5741600000000  0.4544100000000 1.0
C      1  0.4110980000000  0.4477540000000  0.5216350000000 1.0
C      1  0.4124600000000  0.4579800000000  0.5500780000000 1.0
C      1  0.5784820000000  0.5341960000000  0.5472030000000 1.0
C      1  0.5673930000000  0.4504940000000  0.4408140000000 1.0
C      1  0.5004580000000  0.5527470000000  0.6024770000000 1.0
C      1  0.5396640000000  0.5512170000000  0.5892560000000 1.0
C      1  0.5577490000000  0.5134310000000  0.5549700000000 1.0
C      1  0.4094920000000  0.4569600000000  0.4154950000000 1.0
C      1  0.5663290000000  0.4257140000000  0.5105940000000 1.0
C      1  0.5302640000000  0.5222700000000  0.5594690000000 1.0
C      1  0.4792290000000  0.5091390000000  0.5229260000000 1.0
C      1  0.5753400000000  0.4791020000000  0.4377400000000 1.0
C      1  0.4528080000000  0.4162130000000  0.4673930000000 1.0
C      1  0.5138380000000  0.6043950000000  0.4857190000000 1.0
C      1  0.4182110000000  0.5384960000000  0.5552000000000 1.0
C      1  0.5500220000000  0.5186800000000  0.4108780000000 1.0
C      1  0.5801550000000  0.5660950000000  0.4939740000000 1.0
C      1  0.5196670000000  0.5384560000000  0.4730260000000 1.0
C      1  0.5237630000000  0.5382570000000  0.6086740000000 1.0
C      1  0.4947910000000  0.5142260000000  0.4194330000000 1.0
C      1  0.5788870000000  0.4461370000000  0.4945670000000 1.0
C      1  0.4492370000000  0.5501920000000  0.5812540000000 1.0
C      1  0.5244740000000  0.5597040000000  0.4263410000000 1.0
C      1  0.5331950000000  0.4408010000000  0.4830030000000 1.0
C      1  0.4042470000000  0.5338980000000  0.5278980000000 1.0
C      1  0.4973720000000  0.6080250000000  0.5310370000000 1.0
C      1  0.4387940000000  0.4814610000000  0.4938660000000 1.0
C      1  0.4911670000000  0.4060430000000  0.4370100000000 1.0
C      1  0.4847380000000  0.4813010000000  0.5258200000000 1.0
C      1  0.4978950000000  0.4593410000000  0.6054850000000 1.0
C      1  0.5708000000000  0.4839650000000  0.4665560000000 1.0
C      1  0.4941880000000  0.4609400000000  0.5076960000000 1.0
C      1  0.4935650000000  0.5838380000000  0.4576700000000 1.0
C      1  0.4942340000000  0.5883290000000  0.4859770000000 1.0
C      1  0.4634480000000  0.5477810000000  0.4407450000000 1.0
C      1  0.4852180000000  0.4522340000000  0.4823930000000 1.0
C      1  0.5049140000000  0.5226540000000  0.4558550000000 1.0
C      1  0.4038340000000  0.5203970000000  0.4993870000000 1.0
C      1  0.5839560000000  0.5257610000000  0.4466830000000 1.0
C      1  0.4188880000000  0.5094430000000  0.4370700000000 1.0
C      1  0.5008920000000  0.4627420000000  0.4605600000000 1.0
C      1  0.4093290000000  0.4910380000000  0.4873340000000 1.0
C      1  0.5045720000000  0.5115910000000  0.6106050000000 1.0
C      1  0.4099080000000  0.4905490000000  0.4566310000000 1.0
C      1  0.5226220000000  0.4559370000000  0.5888990000000 1.0
C      1  0.5245320000000  0.5445450000000  0.5421120000000 1.0
C      1  0.4356300000000  0.5026060000000  0.4108920000000 1.0
C      1  0.5021300000000  0.4242830000000  0.5550190000000 1.0
C      1  0.5979460000000  0.4936180000000  0.5330630000000 1.0
C      1  0.5689390000000  0.5617280000000  0.5452230000000 1.0
C      1  0.5347650000000  0.5334350000000  0.5177420000000 1.0
C      1  0.4892230000000  0.5240130000000  0.5011980000000 1.0
C      1  0.4860830000000  0.5132730000000  0.3940040000000 1.0
C      1  0.4897220000000  0.5061310000000  0.5852150000000 1.0
C      1  0.4318450000000  0.5261210000000  0.5790340000000 1.0
C      1  0.5504270000000  0.5468090000000  0.4224420000000 1.0
C      1  0.5962610000000  0.4931220000000  0.4798860000000 1.0
C      1  0.5340480000000  0.5026750000000  0.5160580000000 1.0
C      1  0.4117180000000  0.5360030000000  0.4481930000000 1.0
C      1  0.5387900000000  0.4588250000000  0.5280710000000 1.0
C      1  0.5704090000000  0.5512840000000  0.4441760000000 1.0
C      1  0.5406600000000  0.4408090000000  0.4345660000000 1.0
C      1  0.4712480000000  0.4361570000000  0.5502490000000 1.0
C      1  0.4664720000000  0.4630180000000  0.5373540000000 1.0
C      1  0.4105610000000  0.4455510000000  0.4750870000000 1.0
C      1  0.5854630000000  0.4774190000000  0.5572430000000 1.0
C      1  0.4759900000000  0.5223000000000  0.4519150000000 1.0
C      1  0.5761670000000  0.4367920000000  0.4657610000000 1.0
C      1  0.5872730000000  0.5352980000000  0.4989050000000 1.0
C      1  0.4599910000000  0.4091940000000  0.4406150000000 1.0
C      1  0.4015770000000  0.4612250000000  0.4975080000000 1.0
C      1  0.4080690000000  0.5394440000000  0.4785800000000 1.0
C      1  0.4325940000000  0.4979380000000  0.5332820000000 1.0
C      1  0.5956730000000  0.5208580000000  0.4731240000000 1.0
C      1  0.5746600000000  0.4514060000000  0.5610180000000 1.0
C      1  0.5141670000000  0.5001640000000  0.5693140000000 1.0
C      1  0.4757390000000  0.6145330000000  0.5100380000000 1.0
C      1  0.4477000000000  0.5801130000000  0.4766760000000 1.0
C      1  0.4840410000000  0.4706190000000  0.4388960000000 1.0
C      1  0.5493600000000  0.5663340000000  0.5674100000000 1.0
C      1  0.5385400000000  0.6018280000000  0.4879620000000 1.0
C      1  0.4565020000000  0.5501300000000  0.5359490000000 1.0
C      1  0.4378180000000  0.5604700000000  0.5561660000000 1.0
C      1  0.5339790000000  0.4808550000000  0.5775200000000 1.0
C      1  0.5181310000000  0.3876070000000  0.5047650000000 1.0
C      1  0.4085220000000  0.5594700000000  0.5155870000000 1.0
C      1  0.5038300000000  0.4196830000000  0.5264880000000 1.0
C      1  0.5262670000000  0.5078120000000  0.3977660000000 1.0
C      1  0.5216140000000  0.5721840000000  0.5524860000000 1.0
C      1  0.4563900000000  0.4406460000000  0.5772940000000 1.0
C      1  0.4212190000000  0.4869080000000  0.5571040000000 1.0
C      1  0.5536300000000  0.4835490000000  0.5258840000000 1.0
C      1  0.4319160000000  0.4478770000000  0.5664280000000 1.0
C      1  0.4749560000000  0.5678720000000  0.5266510000000 1.0
C      1  0.5260900000000  0.3946620000000  0.4786630000000 1.0
C      1  0.5178350000000  0.4922120000000  0.4672510000000 1.0
C      1  0.4531000000000  0.5225690000000  0.5243030000000 1.0
C      1  0.5231780000000  0.5951060000000  0.5324790000000 1.0
C      1  0.4313030000000  0.4282540000000  0.5127190000000 1.0
C      1  0.4360030000000  0.5475650000000  0.4412990000000 1.0
C      1  0.5230710000000  0.4594350000000  0.5035920000000 1.0
C      1  0.4439670000000  0.4740310000000  0.5221430000000 1.0
C      1  0.5677700000000  0.5693410000000  0.4673020000000 1.0
C      1  0.5620050000000  0.4895710000000  0.5713250000000 1.0
C      1  0.5250350000000  0.4334250000000  0.5698880000000 1.0
C      1  0.4383240000000  0.4974420000000  0.5793210000000 1.0
C      1  0.4653740000000  0.4884990000000  0.5864160000000 1.0
C      1  0.5457270000000  0.5944290000000  0.5147590000000 1.0
C      1  0.5514680000000  0.4345120000000  0.5325400000000 1.0
C      1  0.5262890000000  0.4565060000000  0.3878600000000 1.0
C      1  0.5574460000000  0.5331330000000  0.4993910000000 1.0
C      1  0.5290460000000  0.4342760000000  0.4078610000000 1.0
C      1  0.4563130000000  0.4219530000000  0.5266200000000 1.0
C      1  0.5540850000000  0.4317440000000  0.5608320000000 1.0
C      1  0.5716520000000  0.5061380000000  0.4275820000000 1.0
C      1  0.5985520000000  0.4800730000000  0.5069890000000 1.0
C      1  0.5461880000000  0.4998070000000  0.4641440000000 1.0
C      1  0.5070150000000  0.4843590000000  0.6154920000000 1.0
C      1  0.5948730000000  0.5212110000000  0.5275490000000 1.0
C      1  0.4938670000000  0.5769950000000  0.5685390000000 1.0
C      1  0.5000660000000  0.4865790000000  0.4212730000000 1.0
C      1  0.4439170000000  0.4649520000000  0.4375520000000 1.0
C      1  0.4672610000000  0.5192170000000  0.4802970000000 1.0
C      1  0.5130670000000  0.5329830000000  0.4300060000000 1.0
C      1  0.4290250000000  0.4252340000000  0.4833270000000 1.0
C      1  0.5221960000000  0.4882570000000  0.4956500000000 1.0
C      1  0.5095100000000  0.5435820000000  0.4986170000000 1.0
C      1  0.5125980000000  0.4823800000000  0.3924480000000 1.0
C      1  0.5728670000000  0.4719400000000  0.5047820000000 1.0
C      1  0.4591730000000  0.4907630000000  0.4762500000000 1.0
C      1  0.4905170000000  0.5645870000000  0.5023250000000 1.0
C      1  0.4617210000000  0.4845460000000  0.4487630000000 1.0
C      1  0.4782780000000  0.4132100000000  0.5111670000000 1.0
C      1  0.4484210000000  0.5329620000000  0.4971480000000 1.0
C      1  0.5204360000000  0.5790130000000  0.4473350000000 1.0
C      1  0.4783050000000  0.5592580000000  0.5854560000000 1.0
C      1  0.4611480000000  0.5089330000000  0.4010020000000 1.0
C      1  0.5052080000000  0.4106070000000  0.4634510000000 1.0
C      1  0.4153510000000  0.4623350000000  0.4490460000000 1.0
C      1  0.5436420000000  0.5860900000000  0.4647380000000 1.0
C      1  0.4573910000000  0.6008510000000  0.4933200000000 1.0
C      1  0.5597460000000  0.4139270000000  0.4680810000000 1.0
C      1  0.5454160000000  0.5270090000000  0.4739180000000 1.0
C      1  0.4332070000000  0.4724190000000  0.4106010000000 1.0
C      1  0.5467390000000  0.4163390000000  0.4896000000000 1.0
C      1  0.5205430000000  0.4397930000000  0.4577720000000 1.0
C      1  0.4808030000000  0.5896010000000  0.5463400000000 1.0
END
