TITL C-883728-9229-456 1.58793987173702 125000 -4342.35613082693 0 0 30 (C1) n - 1
REM
REM in /home/nfs/bkarasulu/CARBON/AIRSS/Generating-Clusters/ReaxFF-fromJPCA2015/Units_Real/with-SteepDescent/Only-C1/SD-CG/Try1-3A/FIRE-CG
REM
REM
REM
REM
REM
REM ./C.cell (11c1c37f851c82e70ff6c80c92926a4b)
REM
REM compiler GCC version 9.2.1 20190827 (Red Hat 9.2.1-1)
REM options -cpp -mtune=generic -march=x86-64 -g -O0 -fpre-include=/usr/include/finclude/math-vector-fortran.h
REM seed 1764305490 1753266207 583202936 -1992062383 1485211159 -1030700486 127891653 427357165 -517435662 1850966833 -371996524 1360039265 -1590927037 -939954434 981645551 965869249 -1204990696 -1857495443 -1113418993 730676645 -1866922309 127878468 490631004 -1248733984 -535716800 2122279341 -861422207 924117245 -176945975 -552583658 1962476526 -232282459 -1937178501
REM
CELL 1.54180   50.00000   50.00000   50.00000   90.00000   90.00000   90.00000
LATT -1
SFAC C  
C      1  0.4772740000000  0.4761770000000  0.4579790000000 1.0
C      1  0.4825230000000  0.4894570000000  0.4832010000000 1.0
C      1  0.4864940000000  0.4820170000000  0.5481050000000 1.0
C      1  0.4993850000000  0.5207070000000  0.4451650000000 1.0
C      1  0.4491040000000  0.4489830000000  0.4904160000000 1.0
C      1  0.5371940000000  0.5387450000000  0.4754480000000 1.0
C      1  0.4897910000000  0.4867840000000  0.4086400000000 1.0
C      1  0.4577320000000  0.4543790000000  0.4619590000000 1.0
C      1  0.4871310000000  0.4948070000000  0.4338760000000 1.0
C      1  0.4910610000000  0.5451550000000  0.4902260000000 1.0
C      1  0.5189190000000  0.5093980000000  0.5375370000000 1.0
C      1  0.5232720000000  0.4931060000000  0.5127630000000 1.0
C      1  0.5367330000000  0.5522120000000  0.5020730000000 1.0
C      1  0.4520280000000  0.4913680000000  0.5187930000000 1.0
C      1  0.4687560000000  0.5042840000000  0.5402290000000 1.0
C      1  0.4727720000000  0.5298290000000  0.5300720000000 1.0
C      1  0.4602560000000  0.5054270000000  0.4946720000000 1.0
C      1  0.5375950000000  0.4738350000000  0.5494780000000 1.0
C      1  0.5086100000000  0.5497390000000  0.5127510000000 1.0
C      1  0.4842440000000  0.4644400000000  0.5248380000000 1.0
C      1  0.4996150000000  0.5317300000000  0.5352700000000 1.0
C      1  0.5137290000000  0.4881450000000  0.5571230000000 1.0
C      1  0.5075040000000  0.5372680000000  0.4662550000000 1.0
C      1  0.5001670000000  0.4771830000000  0.5035600000000 1.0
C      1  0.5658120000000  0.4939220000000  0.4869700000000 1.0
C      1  0.5506340000000  0.4826470000000  0.5096820000000 1.0
C      1  0.4677630000000  0.5324820000000  0.5020540000000 1.0
C      1  0.5570690000000  0.5176370000000  0.4707490000000 1.0
C      1  0.5608680000000  0.4657210000000  0.5346180000000 1.0
C      1  0.4559620000000  0.4624170000000  0.5154970000000 1.0
END
