TITL C-884142-5251-362 17.5495038409781 125000 -13487.8997734526 0 0 91 (C1) n - 1
REM
REM in /home/nfs/bkarasulu/CARBON/AIRSS/Generating-Clusters/ReaxFF-fromJPCA2015/Units_Real/with-SteepDescent/Only-C1/SD-CG/Try1-3A/FIRE-CG
REM
REM
REM
REM
REM
REM ./C.cell (11c1c37f851c82e70ff6c80c92926a4b)
REM
REM compiler GCC version 9.2.1 20190827 (Red Hat 9.2.1-1)
REM options -cpp -mtune=generic -march=x86-64 -g -O0 -fpre-include=/usr/include/finclude/math-vector-fortran.h
REM seed 2126835997 -2076347778 -2025955464 619747533 -1869189519 1995846630 -687612186 2022790257 1449889451 339163200 -734160387 720084737 2085065847 -220469142 -412438397 -704701478 -1312002067 814597582 -1011405569 -1383759797 -1273398751 -89355850 399597233 -1328595622 1912605659 1656421789 457203840 -532675810 1843808706 -1281281161 -1694374040 1041994270 626363471
REM
CELL 1.54180   50.00000   50.00000   50.00000   90.00000   90.00000   90.00000
LATT -1
SFAC C  
C      1  0.4248670000000  0.4860120000000  0.5507300000000 1.0
C      1  0.4513140000000  0.4885360000000  0.5609320000000 1.0
C      1  0.4820120000000  0.4392470000000  0.5545540000000 1.0
C      1  0.5486550000000  0.5395920000000  0.5434320000000 1.0
C      1  0.5585130000000  0.5063030000000  0.4832720000000 1.0
C      1  0.5248000000000  0.5108240000000  0.5826790000000 1.0
C      1  0.5136200000000  0.5575110000000  0.4414780000000 1.0
C      1  0.4735420000000  0.5352360000000  0.4328510000000 1.0
C      1  0.5646480000000  0.4894650000000  0.5557830000000 1.0
C      1  0.5669830000000  0.5617660000000  0.4862760000000 1.0
C      1  0.4107520000000  0.5018150000000  0.4579340000000 1.0
C      1  0.5923450000000  0.4690950000000  0.4957800000000 1.0
C      1  0.5227360000000  0.5320880000000  0.4271570000000 1.0
C      1  0.4520980000000  0.4930230000000  0.4481450000000 1.0
C      1  0.5376220000000  0.5357330000000  0.4656490000000 1.0
C      1  0.5626130000000  0.4396280000000  0.4977020000000 1.0
C      1  0.4849490000000  0.5568220000000  0.4487800000000 1.0
C      1  0.4558990000000  0.5153250000000  0.5720020000000 1.0
C      1  0.4864680000000  0.5163320000000  0.4839230000000 1.0
C      1  0.5138660000000  0.5188460000000  0.4666250000000 1.0
C      1  0.5870090000000  0.5098960000000  0.4898140000000 1.0
C      1  0.4706170000000  0.4825450000000  0.5344720000000 1.0
C      1  0.4753010000000  0.4766070000000  0.4348970000000 1.0
C      1  0.4985620000000  0.5529720000000  0.5228130000000 1.0
C      1  0.5263370000000  0.5779370000000  0.4583710000000 1.0
C      1  0.4827760000000  0.5285990000000  0.5119480000000 1.0
C      1  0.5419610000000  0.4858570000000  0.5758250000000 1.0
C      1  0.5270890000000  0.4361170000000  0.4663160000000 1.0
C      1  0.4517150000000  0.4416200000000  0.5488050000000 1.0
C      1  0.4465050000000  0.5602900000000  0.5142160000000 1.0
C      1  0.4730760000000  0.4622590000000  0.5116760000000 1.0
C      1  0.4706120000000  0.4330520000000  0.5131870000000 1.0
C      1  0.4170480000000  0.5175340000000  0.5128140000000 1.0
C      1  0.5106680000000  0.4494550000000  0.4470440000000 1.0
C      1  0.4318470000000  0.4699720000000  0.5060750000000 1.0
C      1  0.4518670000000  0.5541000000000  0.5411690000000 1.0
C      1  0.5278700000000  0.4604200000000  0.5777310000000 1.0
C      1  0.4775730000000  0.4721320000000  0.4849130000000 1.0
C      1  0.5595780000000  0.5192360000000  0.4567610000000 1.0
C      1  0.5821700000000  0.5378840000000  0.4890470000000 1.0
C      1  0.4961720000000  0.4910420000000  0.4965920000000 1.0
C      1  0.5264340000000  0.5269430000000  0.5570930000000 1.0
C      1  0.5467270000000  0.5136950000000  0.4313800000000 1.0
C      1  0.4373590000000  0.5309820000000  0.5554240000000 1.0
C      1  0.4838900000000  0.4570990000000  0.4541790000000 1.0
C      1  0.4967570000000  0.5153070000000  0.5828790000000 1.0
C      1  0.4934780000000  0.4256780000000  0.5322040000000 1.0
C      1  0.5417330000000  0.4842130000000  0.4852340000000 1.0
C      1  0.5407270000000  0.4428830000000  0.5170090000000 1.0
C      1  0.5160500000000  0.4263390000000  0.5138490000000 1.0
C      1  0.5431760000000  0.5689860000000  0.5033780000000 1.0
C      1  0.4759860000000  0.5661630000000  0.4755030000000 1.0
C      1  0.4543740000000  0.4370930000000  0.4726390000000 1.0
C      1  0.5327670000000  0.5533350000000  0.5245740000000 1.0
C      1  0.5819510000000  0.4532950000000  0.5172320000000 1.0
C      1  0.5379930000000  0.4714570000000  0.5111650000000 1.0
C      1  0.4183470000000  0.5141140000000  0.5418750000000 1.0
C      1  0.5891620000000  0.4827520000000  0.4721220000000 1.0
C      1  0.5545980000000  0.4470800000000  0.4705010000000 1.0
C      1  0.4484520000000  0.5218690000000  0.4377180000000 1.0
C      1  0.4807540000000  0.5527480000000  0.5470310000000 1.0
C      1  0.5724800000000  0.4713850000000  0.5380720000000 1.0
C      1  0.4991310000000  0.4600910000000  0.5668680000000 1.0
C      1  0.5165450000000  0.4898060000000  0.5166250000000 1.0
C      1  0.5516140000000  0.4851220000000  0.4354860000000 1.0
C      1  0.4430380000000  0.4215760000000  0.5309700000000 1.0
C      1  0.4779470000000  0.4235680000000  0.4846290000000 1.0
C      1  0.4238810000000  0.5501630000000  0.4726240000000 1.0
C      1  0.5130170000000  0.5038670000000  0.5422080000000 1.0
C      1  0.5078170000000  0.4251720000000  0.4860320000000 1.0
C      1  0.5205610000000  0.5799780000000  0.4874650000000 1.0
C      1  0.4802580000000  0.5332800000000  0.5702460000000 1.0
C      1  0.5214240000000  0.4768330000000  0.4369080000000 1.0
C      1  0.5727980000000  0.5197390000000  0.5470090000000 1.0
C      1  0.4944330000000  0.4845150000000  0.5531430000000 1.0
C      1  0.5217240000000  0.4912310000000  0.4653980000000 1.0
C      1  0.4475030000000  0.5644660000000  0.4864600000000 1.0
C      1  0.4318870000000  0.4623690000000  0.5342880000000 1.0
C      1  0.5500670000000  0.5619300000000  0.4609780000000 1.0
C      1  0.4636330000000  0.5093170000000  0.5208830000000 1.0
C      1  0.4618000000000  0.4982120000000  0.4770710000000 1.0
C      1  0.4972080000000  0.4906180000000  0.4231860000000 1.0
C      1  0.4951210000000  0.5708880000000  0.4964840000000 1.0
C      1  0.4246550000000  0.5288040000000  0.4521560000000 1.0
C      1  0.5669280000000  0.4703840000000  0.4563010000000 1.0
C      1  0.4415710000000  0.4994370000000  0.5022700000000 1.0
C      1  0.4323010000000  0.4573720000000  0.4797110000000 1.0
C      1  0.4969500000000  0.5195530000000  0.4218720000000 1.0
C      1  0.4151260000000  0.5407120000000  0.4973250000000 1.0
C      1  0.4262390000000  0.4774360000000  0.4581840000000 1.0
C      1  0.5969720000000  0.5274160000000  0.5459900000000 1.0
END
