TITL C-883737-113-81 -16.8538842373438 125000 -10169.3455039951 0 0 69 (C1) n - 1
REM
REM in /home/nfs/bkarasulu/CARBON/AIRSS/Generating-Clusters/ReaxFF-fromJPCA2015/Units_Real/with-SteepDescent/Only-C1/SD-CG/Try1-3A/FIRE-CG
REM
REM
REM
REM
REM
REM ./C.cell (11c1c37f851c82e70ff6c80c92926a4b)
REM
REM compiler GCC version 9.2.1 20190827 (Red Hat 9.2.1-1)
REM options -cpp -mtune=generic -march=x86-64 -g -O0 -fpre-include=/usr/include/finclude/math-vector-fortran.h
REM seed -92697938 1876255328 2055814286 -1813720080 1785095711 484255209 -1881118643 -156816571 -1682965206 -1607290217 803203312 136201878 -827550903 -401780808 663332718 988677584 -1730857992 27984678 141653992 -599083371 -1892728223 -1307554687 -1928148447 942575245 -462966 -736109286 1294639766 -1858385004 1237472822 -1649577108 -659249113 -844338060 -7684340
REM
CELL 1.54180   50.00000   50.00000   50.00000   90.00000   90.00000   90.00000
LATT -1
SFAC C  
C      1  0.5720880000000  0.4943890000000  0.4800830000000 1.0
C      1  0.5058600000000  0.4488580000000  0.5495210000000 1.0
C      1  0.4955640000000  0.5292150000000  0.5460880000000 1.0
C      1  0.5336130000000  0.5537190000000  0.5210670000000 1.0
C      1  0.4725110000000  0.4761730000000  0.5638420000000 1.0
C      1  0.5014930000000  0.4890750000000  0.4309540000000 1.0
C      1  0.5446190000000  0.5683620000000  0.4828700000000 1.0
C      1  0.4688590000000  0.4295050000000  0.4955050000000 1.0
C      1  0.4270630000000  0.5469690000000  0.5274620000000 1.0
C      1  0.5448630000000  0.5125290000000  0.4317020000000 1.0
C      1  0.4541880000000  0.5457520000000  0.4420870000000 1.0
C      1  0.5262300000000  0.4925400000000  0.4932870000000 1.0
C      1  0.5498350000000  0.4836870000000  0.4296300000000 1.0
C      1  0.4857270000000  0.5207700000000  0.5180270000000 1.0
C      1  0.5069400000000  0.4741200000000  0.5017430000000 1.0
C      1  0.4750640000000  0.4792720000000  0.4411380000000 1.0
C      1  0.4852340000000  0.5901960000000  0.5183490000000 1.0
C      1  0.4796240000000  0.5644870000000  0.4786790000000 1.0
C      1  0.4492170000000  0.4925240000000  0.4432430000000 1.0
C      1  0.4736150000000  0.5204270000000  0.4781990000000 1.0
C      1  0.4797770000000  0.5559800000000  0.4494510000000 1.0
C      1  0.5777650000000  0.4640740000000  0.5268760000000 1.0
C      1  0.4322510000000  0.5199780000000  0.4868510000000 1.0
C      1  0.4763870000000  0.4576650000000  0.4617610000000 1.0
C      1  0.5454600000000  0.4822040000000  0.4776200000000 1.0
C      1  0.5045010000000  0.5384590000000  0.4440720000000 1.0
C      1  0.4184670000000  0.4729080000000  0.5035130000000 1.0
C      1  0.5519000000000  0.5023200000000  0.5411870000000 1.0
C      1  0.4698890000000  0.5425090000000  0.4984190000000 1.0
C      1  0.5124180000000  0.4645580000000  0.5734010000000 1.0
C      1  0.4568360000000  0.4815710000000  0.5184400000000 1.0
C      1  0.5500480000000  0.4716040000000  0.5412390000000 1.0
C      1  0.4592740000000  0.4632680000000  0.5426090000000 1.0
C      1  0.5571400000000  0.4415670000000  0.4929730000000 1.0
C      1  0.5754000000000  0.4641710000000  0.4985630000000 1.0
C      1  0.4831440000000  0.4924520000000  0.5126170000000 1.0
C      1  0.5141770000000  0.5562240000000  0.5407190000000 1.0
C      1  0.5217670000000  0.4517330000000  0.4558510000000 1.0
C      1  0.4485080000000  0.5194120000000  0.4602560000000 1.0
C      1  0.4544530000000  0.4419290000000  0.4757370000000 1.0
C      1  0.5702770000000  0.5189750000000  0.4971300000000 1.0
C      1  0.4816270000000  0.4210180000000  0.5190780000000 1.0
C      1  0.4380620000000  0.5441210000000  0.5002820000000 1.0
C      1  0.4733620000000  0.5499670000000  0.5524770000000 1.0
C      1  0.5483710000000  0.4536320000000  0.4683570000000 1.0
C      1  0.5394790000000  0.4750220000000  0.5699060000000 1.0
C      1  0.5013420000000  0.5247320000000  0.4696340000000 1.0
C      1  0.5659180000000  0.4999340000000  0.4476450000000 1.0
C      1  0.5237500000000  0.4567880000000  0.5264570000000 1.0
C      1  0.5363250000000  0.5042200000000  0.5665230000000 1.0
C      1  0.4454000000000  0.5410270000000  0.5505660000000 1.0
C      1  0.4885400000000  0.5727820000000  0.5420190000000 1.0
C      1  0.5016300000000  0.4574300000000  0.4758590000000 1.0
C      1  0.4936360000000  0.4881150000000  0.5782950000000 1.0
C      1  0.5230900000000  0.5193920000000  0.4881240000000 1.0
C      1  0.5078010000000  0.4228230000000  0.5076220000000 1.0
C      1  0.4789010000000  0.4405990000000  0.5428260000000 1.0
C      1  0.5738070000000  0.5172700000000  0.5262040000000 1.0
C      1  0.5148960000000  0.5154840000000  0.4299480000000 1.0
C      1  0.4328790000000  0.5000470000000  0.5117730000000 1.0
C      1  0.5240050000000  0.5875760000000  0.4821850000000 1.0
C      1  0.5338250000000  0.4328110000000  0.5106490000000 1.0
C      1  0.4297200000000  0.5203390000000  0.5368920000000 1.0
C      1  0.5084240000000  0.5111140000000  0.5676830000000 1.0
C      1  0.4348100000000  0.4741700000000  0.4580250000000 1.0
C      1  0.4937500000000  0.5864630000000  0.4900350000000 1.0
C      1  0.4264330000000  0.4581480000000  0.4798200000000 1.0
C      1  0.5232910000000  0.4703100000000  0.4330310000000 1.0
C      1  0.5448770000000  0.5385370000000  0.4953260000000 1.0
END
