TITL C-883730-8503-236 83.6366599841548 125000 -29324.750671127 0 0 199 (C1) n - 1
REM
REM in /home/nfs/bkarasulu/CARBON/AIRSS/Generating-Clusters/ReaxFF-fromJPCA2015/Units_Real/with-SteepDescent/Only-C1/SD-CG/Try1-3A/FIRE-CG
REM
REM
REM
REM
REM
REM ./C.cell (11c1c37f851c82e70ff6c80c92926a4b)
REM
REM compiler GCC version 9.2.1 20190827 (Red Hat 9.2.1-1)
REM options -cpp -mtune=generic -march=x86-64 -g -O0 -fpre-include=/usr/include/finclude/math-vector-fortran.h
REM seed -767601370 -2039865441 -1535334717 107076114 1095234911 -1746905825 -2025443606 1061359394 -22266771 2114275753 1649301771 1959721959 53769897 -2051027026 -578193728 728841458 -1578496914 -1627701245 -546827643 -1385200549 179598623 -1701902818 -2069372062 445368041 -1741489531 -160298168 -441900867 1554066754 -643517405 1573846638 -428089889 -1176617806 463453736
REM
CELL 1.54180   50.00000   50.00000   50.00000   90.00000   90.00000   90.00000
LATT -1
SFAC C  
C      1  0.4738720000000  0.4422730000000  0.5681280000000 1.0
C      1  0.5894530000000  0.4350690000000  0.5510930000000 1.0
C      1  0.4010390000000  0.4696840000000  0.4549550000000 1.0
C      1  0.4359690000000  0.4116580000000  0.5189960000000 1.0
C      1  0.5250960000000  0.5214370000000  0.5747230000000 1.0
C      1  0.5099170000000  0.4202210000000  0.5788130000000 1.0
C      1  0.5849970000000  0.5725310000000  0.5406290000000 1.0
C      1  0.4956590000000  0.4283300000000  0.4066520000000 1.0
C      1  0.5500720000000  0.5104490000000  0.4350050000000 1.0
C      1  0.5255500000000  0.5333470000000  0.4974830000000 1.0
C      1  0.5839290000000  0.6142590000000  0.4658110000000 1.0
C      1  0.4994540000000  0.6073580000000  0.5604030000000 1.0
C      1  0.4753650000000  0.5973770000000  0.4572650000000 1.0
C      1  0.4743470000000  0.4726150000000  0.6085040000000 1.0
C      1  0.5217170000000  0.4951420000000  0.3806280000000 1.0
C      1  0.5518950000000  0.6185140000000  0.5061610000000 1.0
C      1  0.4783310000000  0.4805740000000  0.4945460000000 1.0
C      1  0.5325740000000  0.5293380000000  0.4273410000000 1.0
C      1  0.5526200000000  0.5658290000000  0.4897030000000 1.0
C      1  0.4922830000000  0.4442880000000  0.4481340000000 1.0
C      1  0.4826140000000  0.4345530000000  0.5158230000000 1.0
C      1  0.4315310000000  0.4952160000000  0.5214970000000 1.0
C      1  0.4159680000000  0.5345310000000  0.4476730000000 1.0
C      1  0.6119500000000  0.5288640000000  0.4802470000000 1.0
C      1  0.4403050000000  0.4079460000000  0.5479360000000 1.0
C      1  0.5351580000000  0.5270790000000  0.4744480000000 1.0
C      1  0.4283680000000  0.4302360000000  0.5637510000000 1.0
C      1  0.4296330000000  0.5028090000000  0.5914630000000 1.0
C      1  0.4265450000000  0.5064110000000  0.4449630000000 1.0
C      1  0.4367890000000  0.4162480000000  0.4380810000000 1.0
C      1  0.5156580000000  0.5885580000000  0.5731270000000 1.0
C      1  0.4968880000000  0.5042140000000  0.4909830000000 1.0
C      1  0.4631720000000  0.4060660000000  0.4415320000000 1.0
C      1  0.4126800000000  0.5585760000000  0.5374730000000 1.0
C      1  0.4104650000000  0.4462570000000  0.4448780000000 1.0
C      1  0.5250910000000  0.4183630000000  0.5512350000000 1.0
C      1  0.5537970000000  0.6151530000000  0.4752100000000 1.0
C      1  0.4593450000000  0.5268080000000  0.5431220000000 1.0
C      1  0.5561170000000  0.4918150000000  0.4586000000000 1.0
C      1  0.5561850000000  0.4449780000000  0.5791870000000 1.0
C      1  0.4497830000000  0.5174130000000  0.6009230000000 1.0
C      1  0.5911870000000  0.4421580000000  0.4257140000000 1.0
C      1  0.5488580000000  0.4015680000000  0.5096450000000 1.0
C      1  0.5072510000000  0.4948180000000  0.4477620000000 1.0
C      1  0.5451170000000  0.4501190000000  0.3999530000000 1.0
C      1  0.6103220000000  0.4609060000000  0.4949290000000 1.0
C      1  0.5011640000000  0.5235950000000  0.5603150000000 1.0
C      1  0.4499300000000  0.5029550000000  0.4048000000000 1.0
C      1  0.4750100000000  0.3796460000000  0.5052160000000 1.0
C      1  0.4537330000000  0.4798410000000  0.5196830000000 1.0
C      1  0.4511420000000  0.4912780000000  0.4528790000000 1.0
C      1  0.5341400000000  0.5873550000000  0.4336200000000 1.0
C      1  0.5401100000000  0.5174240000000  0.3887310000000 1.0
C      1  0.4780290000000  0.5957600000000  0.5387700000000 1.0
C      1  0.3949230000000  0.4374560000000  0.5248250000000 1.0
C      1  0.5097760000000  0.5059380000000  0.5348120000000 1.0
C      1  0.4446330000000  0.5343280000000  0.4986260000000 1.0
C      1  0.5316720000000  0.4950960000000  0.5715440000000 1.0
C      1  0.4401840000000  0.5583000000000  0.4839360000000 1.0
C      1  0.4832220000000  0.3891740000000  0.5313890000000 1.0
C      1  0.4254610000000  0.4361320000000  0.4220610000000 1.0
C      1  0.5739390000000  0.5167570000000  0.5616380000000 1.0
C      1  0.4722160000000  0.5154360000000  0.3905790000000 1.0
C      1  0.5558310000000  0.4068880000000  0.4814060000000 1.0
C      1  0.5432470000000  0.5539810000000  0.5399500000000 1.0
C      1  0.4577260000000  0.5706200000000  0.4623420000000 1.0
C      1  0.5906730000000  0.5325630000000  0.4312090000000 1.0
C      1  0.5684460000000  0.5852090000000  0.5613960000000 1.0
C      1  0.4875160000000  0.5983590000000  0.4307190000000 1.0
C      1  0.4820100000000  0.4143880000000  0.5735030000000 1.0
C      1  0.5578070000000  0.5212260000000  0.5362070000000 1.0
C      1  0.4685910000000  0.5566550000000  0.5903960000000 1.0
C      1  0.5190620000000  0.4951770000000  0.6095360000000 1.0
C      1  0.5018260000000  0.4693310000000  0.6078090000000 1.0
C      1  0.5009600000000  0.4136490000000  0.5264710000000 1.0
C      1  0.3933950000000  0.4657810000000  0.5552170000000 1.0
C      1  0.4733390000000  0.5174220000000  0.5671820000000 1.0
C      1  0.4229180000000  0.5476200000000  0.5620660000000 1.0
C      1  0.4893940000000  0.4616510000000  0.5531070000000 1.0
C      1  0.5502380000000  0.4073350000000  0.5376040000000 1.0
C      1  0.4987010000000  0.5642240000000  0.5853620000000 1.0
C      1  0.4616730000000  0.4154090000000  0.4696870000000 1.0
C      1  0.3914520000000  0.5507420000000  0.4905770000000 1.0
C      1  0.6017860000000  0.4415530000000  0.4739030000000 1.0
C      1  0.3938190000000  0.5446740000000  0.5190350000000 1.0
C      1  0.5716030000000  0.5384470000000  0.5791400000000 1.0
C      1  0.5608200000000  0.5691580000000  0.5216340000000 1.0
C      1  0.5403760000000  0.4667040000000  0.4560440000000 1.0
C      1  0.4691740000000  0.5486570000000  0.4454840000000 1.0
C      1  0.4868360000000  0.5335420000000  0.4557390000000 1.0
C      1  0.5356900000000  0.4181500000000  0.4346740000000 1.0
C      1  0.5287710000000  0.5802900000000  0.4827360000000 1.0
C      1  0.4890410000000  0.5144470000000  0.4383770000000 1.0
C      1  0.4601560000000  0.4711240000000  0.4716440000000 1.0
C      1  0.6009630000000  0.4813010000000  0.5403050000000 1.0
C      1  0.4018590000000  0.4397940000000  0.5533380000000 1.0
C      1  0.4863340000000  0.4223980000000  0.4314720000000 1.0
C      1  0.5772520000000  0.5938220000000  0.4465180000000 1.0
C      1  0.5811330000000  0.4869010000000  0.4124720000000 1.0
C      1  0.6241390000000  0.5113030000000  0.5030630000000 1.0
C      1  0.5377360000000  0.4657050000000  0.5349580000000 1.0
C      1  0.4140350000000  0.5687570000000  0.4861040000000 1.0
C      1  0.4734100000000  0.5318260000000  0.6048780000000 1.0
C      1  0.5000180000000  0.5814600000000  0.5244130000000 1.0
C      1  0.4936010000000  0.4593260000000  0.5082860000000 1.0
C      1  0.3809300000000  0.4824570000000  0.5450190000000 1.0
C      1  0.4230960000000  0.5947800000000  0.4772130000000 1.0
C      1  0.4995430000000  0.5510520000000  0.5587680000000 1.0
C      1  0.4879310000000  0.6050070000000  0.4821580000000 1.0
C      1  0.5336850000000  0.4721060000000  0.3905150000000 1.0
C      1  0.5370380000000  0.4962160000000  0.5427100000000 1.0
C      1  0.5048430000000  0.5215730000000  0.6104820000000 1.0
C      1  0.5417430000000  0.5442820000000  0.5852820000000 1.0
C      1  0.5736310000000  0.4219940000000  0.5338610000000 1.0
C      1  0.4839090000000  0.5524770000000  0.5004340000000 1.0
C      1  0.4117570000000  0.4225810000000  0.5073170000000 1.0
C      1  0.4798520000000  0.3926760000000  0.4781100000000 1.0
C      1  0.4682270000000  0.4966240000000  0.4283020000000 1.0
C      1  0.5584370000000  0.5988380000000  0.5254840000000 1.0
C      1  0.5356410000000  0.4596060000000  0.4863950000000 1.0
C      1  0.3939300000000  0.4788660000000  0.4882840000000 1.0
C      1  0.4744140000000  0.5438570000000  0.4004780000000 1.0
C      1  0.4464960000000  0.4485760000000  0.5755700000000 1.0
C      1  0.5989950000000  0.5046040000000  0.4675080000000 1.0
C      1  0.5645490000000  0.5116220000000  0.5090910000000 1.0
C      1  0.4392900000000  0.4573180000000  0.5113220000000 1.0
C      1  0.4118890000000  0.4529440000000  0.5035780000000 1.0
C      1  0.5256740000000  0.5397470000000  0.4030630000000 1.0
C      1  0.4998710000000  0.5802330000000  0.4967950000000 1.0
C      1  0.6066930000000  0.4494240000000  0.4480780000000 1.0
C      1  0.4158480000000  0.5161390000000  0.5668080000000 1.0
C      1  0.4643430000000  0.5410400000000  0.5185320000000 1.0
C      1  0.5074490000000  0.4697770000000  0.5314540000000 1.0
C      1  0.5342670000000  0.4013520000000  0.4609480000000 1.0
C      1  0.5588060000000  0.5459110000000  0.4697570000000 1.0
C      1  0.4111620000000  0.4850180000000  0.4320680000000 1.0
C      1  0.5707690000000  0.4980640000000  0.5815070000000 1.0
C      1  0.5150550000000  0.4409910000000  0.5998320000000 1.0
C      1  0.4355590000000  0.5980140000000  0.5052850000000 1.0
C      1  0.3843130000000  0.5177740000000  0.5259350000000 1.0
C      1  0.5784390000000  0.4206620000000  0.4699770000000 1.0
C      1  0.6182180000000  0.4873570000000  0.4863070000000 1.0
C      1  0.4874820000000  0.5301930000000  0.4829680000000 1.0
C      1  0.5700560000000  0.5022620000000  0.4829250000000 1.0
C      1  0.5729700000000  0.4594700000000  0.4099220000000 1.0
C      1  0.5369700000000  0.4448250000000  0.5577660000000 1.0
C      1  0.5190640000000  0.5011440000000  0.4731710000000 1.0
C      1  0.4477920000000  0.5622700000000  0.5703460000000 1.0
C      1  0.5084470000000  0.4674950000000  0.4384030000000 1.0
C      1  0.4895150000000  0.4744970000000  0.4117910000000 1.0
C      1  0.4666570000000  0.3977300000000  0.5544950000000 1.0
C      1  0.4322180000000  0.5823490000000  0.4518240000000 1.0
C      1  0.4063510000000  0.5056670000000  0.4823170000000 1.0
C      1  0.6125410000000  0.4999660000000  0.5255470000000 1.0
C      1  0.5131240000000  0.5576970000000  0.5357030000000 1.0
C      1  0.3970460000000  0.5308390000000  0.4696960000000 1.0
C      1  0.4459530000000  0.4540160000000  0.4074460000000 1.0
C      1  0.5006820000000  0.5565740000000  0.4036710000000 1.0
C      1  0.5254990000000  0.4358300000000  0.4927030000000 1.0
C      1  0.5614730000000  0.5773280000000  0.4301540000000 1.0
C      1  0.5715420000000  0.5525910000000  0.4438180000000 1.0
C      1  0.4754450000000  0.6275610000000  0.4977540000000 1.0
C      1  0.5514770000000  0.4404110000000  0.4457870000000 1.0
C      1  0.4935690000000  0.4953620000000  0.3906970000000 1.0
C      1  0.5529140000000  0.4605210000000  0.5107620000000 1.0
C      1  0.5438580000000  0.4397070000000  0.6066070000000 1.0
C      1  0.5872550000000  0.4786590000000  0.5675490000000 1.0
C      1  0.5180000000000  0.5461870000000  0.6047490000000 1.0
C      1  0.4287530000000  0.5582310000000  0.4352420000000 1.0
C      1  0.4752140000000  0.4495900000000  0.4034620000000 1.0
C      1  0.5747360000000  0.4434840000000  0.5151530000000 1.0
C      1  0.4331710000000  0.4795560000000  0.4096570000000 1.0
C      1  0.3812910000000  0.4915740000000  0.5119430000000 1.0
C      1  0.5996150000000  0.4563210000000  0.5220290000000 1.0
C      1  0.5946040000000  0.5040300000000  0.4334180000000 1.0
C      1  0.4585710000000  0.6114350000000  0.5167120000000 1.0
C      1  0.5827550000000  0.4508250000000  0.5712770000000 1.0
C      1  0.5412080000000  0.5716500000000  0.5645440000000 1.0
C      1  0.5620100000000  0.5087230000000  0.4068060000000 1.0
C      1  0.4283950000000  0.5113450000000  0.4993030000000 1.0
C      1  0.4522980000000  0.5821020000000  0.5488660000000 1.0
C      1  0.5124490000000  0.5307780000000  0.5202120000000 1.0
C      1  0.5850090000000  0.5616090000000  0.5676810000000 1.0
C      1  0.5243570000000  0.4295880000000  0.4107460000000 1.0
C      1  0.4337220000000  0.5126310000000  0.5434610000000 1.0
C      1  0.5089350000000  0.5802200000000  0.4195060000000 1.0
C      1  0.5336590000000  0.5992920000000  0.4609780000000 1.0
C      1  0.3889310000000  0.5067530000000  0.5534000000000 1.0
C      1  0.4539180000000  0.5495800000000  0.4210120000000 1.0
C      1  0.5080350000000  0.3928710000000  0.4680700000000 1.0
C      1  0.5741090000000  0.4252510000000  0.4432680000000 1.0
C      1  0.4705440000000  0.4440690000000  0.4667050000000 1.0
C      1  0.4308200000000  0.5816680000000  0.5295970000000 1.0
C      1  0.4545530000000  0.4335150000000  0.5128510000000 1.0
C      1  0.4668660000000  0.4765590000000  0.5461300000000 1.0
C      1  0.4485420000000  0.4763750000000  0.5907650000000 1.0
C      1  0.5453930000000  0.4903710000000  0.5961970000000 1.0
C      1  0.4646760000000  0.4907950000000  0.5697010000000 1.0
C      1  0.5211110000000  0.4105040000000  0.5039980000000 1.0
END
