TITL C-883733-4178-410 25.6198384163883 125000 -9477.57741888561 0 0 66 (C1) n - 1
REM
REM in /home/nfs/bkarasulu/CARBON/AIRSS/Generating-Clusters/ReaxFF-fromJPCA2015/Units_Real/with-SteepDescent/Only-C1/SD-CG/Try1-3A/FIRE-CG
REM
REM
REM
REM
REM
REM ./C.cell (11c1c37f851c82e70ff6c80c92926a4b)
REM
REM compiler GCC version 9.2.1 20190827 (Red Hat 9.2.1-1)
REM options -cpp -mtune=generic -march=x86-64 -g -O0 -fpre-include=/usr/include/finclude/math-vector-fortran.h
REM seed 1687240535 1360195653 714789178 -1026842065 1307074927 -620158234 1328495907 -873432940 -1325916540 1529699380 258080898 1141650545 653439136 -359472808 256603813 955978751 -262881473 665762926 919756061 1428761892 467194868 78698164 2050582894 -1816922058 -1164433840 1888363038 982326059 -1702852507 641450363 1923903019 -2068182757 509538134 1317329266
REM
CELL 1.54180   50.00000   50.00000   50.00000   90.00000   90.00000   90.00000
LATT -1
SFAC C  
C      1  0.5093790000000  0.5260620000000  0.5612640000000 1.0
C      1  0.4884480000000  0.4141850000000  0.4893240000000 1.0
C      1  0.5600580000000  0.4804460000000  0.4551250000000 1.0
C      1  0.5640730000000  0.4497740000000  0.5389030000000 1.0
C      1  0.5565680000000  0.5011020000000  0.4352650000000 1.0
C      1  0.4299820000000  0.5104910000000  0.5181940000000 1.0
C      1  0.5164630000000  0.4857140000000  0.5175130000000 1.0
C      1  0.4603790000000  0.4920630000000  0.4871070000000 1.0
C      1  0.4908860000000  0.4627030000000  0.5585130000000 1.0
C      1  0.5609010000000  0.4998570000000  0.5379070000000 1.0
C      1  0.4532990000000  0.4490680000000  0.5286560000000 1.0
C      1  0.4841790000000  0.5121950000000  0.4903120000000 1.0
C      1  0.4725620000000  0.4384660000000  0.4822290000000 1.0
C      1  0.4731100000000  0.4418400000000  0.5486130000000 1.0
C      1  0.5485270000000  0.4613530000000  0.4761760000000 1.0
C      1  0.4409970000000  0.4751000000000  0.5356000000000 1.0
C      1  0.5329600000000  0.5638270000000  0.4574410000000 1.0
C      1  0.4873010000000  0.5684830000000  0.4700410000000 1.0
C      1  0.5293890000000  0.5113970000000  0.4713050000000 1.0
C      1  0.4944190000000  0.4851420000000  0.5398110000000 1.0
C      1  0.5407540000000  0.4868860000000  0.5562890000000 1.0
C      1  0.4997300000000  0.4365870000000  0.5563520000000 1.0
C      1  0.5456810000000  0.5555360000000  0.4830600000000 1.0
C      1  0.4430420000000  0.5525970000000  0.4860230000000 1.0
C      1  0.4671620000000  0.5354600000000  0.4411360000000 1.0
C      1  0.5107170000000  0.5644110000000  0.5213890000000 1.0
C      1  0.5021170000000  0.5088490000000  0.4701470000000 1.0
C      1  0.5683730000000  0.4606840000000  0.5131180000000 1.0
C      1  0.4778450000000  0.4855180000000  0.4253510000000 1.0
C      1  0.5548620000000  0.5425870000000  0.5377700000000 1.0
C      1  0.5380760000000  0.4642530000000  0.5061120000000 1.0
C      1  0.4759460000000  0.5431640000000  0.5334850000000 1.0
C      1  0.4906790000000  0.5247180000000  0.5159870000000 1.0
C      1  0.4581050000000  0.5168390000000  0.4817710000000 1.0
C      1  0.4482680000000  0.5342250000000  0.4630140000000 1.0
C      1  0.5226610000000  0.5404510000000  0.5380700000000 1.0
C      1  0.5198650000000  0.5436360000000  0.4412480000000 1.0
C      1  0.4835180000000  0.4556370000000  0.4605290000000 1.0
C      1  0.4820560000000  0.5674410000000  0.5179240000000 1.0
C      1  0.5158400000000  0.4165160000000  0.5009120000000 1.0
C      1  0.4927980000000  0.5435420000000  0.4534470000000 1.0
C      1  0.4819040000000  0.5347770000000  0.5613050000000 1.0
C      1  0.5134960000000  0.4968960000000  0.5608110000000 1.0
C      1  0.5579740000000  0.5230090000000  0.5166080000000 1.0
C      1  0.5136390000000  0.5806650000000  0.4730170000000 1.0
C      1  0.5839100000000  0.4842300000000  0.5264410000000 1.0
C      1  0.5467120000000  0.5269240000000  0.4885860000000 1.0
C      1  0.4752840000000  0.5152170000000  0.4213800000000 1.0
C      1  0.4330770000000  0.5345690000000  0.5063140000000 1.0
C      1  0.4617500000000  0.4957460000000  0.5413890000000 1.0
C      1  0.5261060000000  0.4362600000000  0.5466080000000 1.0
C      1  0.4599550000000  0.5135660000000  0.5646320000000 1.0
C      1  0.5297990000000  0.4363650000000  0.5174950000000 1.0
C      1  0.5266900000000  0.5729930000000  0.4985460000000 1.0
C      1  0.4447960000000  0.4780840000000  0.4672940000000 1.0
C      1  0.4628520000000  0.4692250000000  0.4457090000000 1.0
C      1  0.5162700000000  0.5139640000000  0.5185720000000 1.0
C      1  0.5029870000000  0.4800510000000  0.4634340000000 1.0
C      1  0.4247650000000  0.4830890000000  0.5126110000000 1.0
C      1  0.4301830000000  0.4646620000000  0.4892410000000 1.0
C      1  0.4501930000000  0.4457970000000  0.4999780000000 1.0
C      1  0.5444010000000  0.4573140000000  0.5577990000000 1.0
C      1  0.5236290000000  0.4625020000000  0.4640030000000 1.0
C      1  0.4683400000000  0.5677940000000  0.4916740000000 1.0
C      1  0.5282230000000  0.5147760000000  0.4400490000000 1.0
C      1  0.5010890000000  0.5027180000000  0.4240720000000 1.0
END
