TITL C-884134-5972-231 15.059117483317 125000 -17668.7770314786 0 0 119 (C1) n - 1
REM
REM in /home/nfs/bkarasulu/CARBON/AIRSS/Generating-Clusters/ReaxFF-fromJPCA2015/Units_Real/with-SteepDescent/Only-C1/SD-CG/Try1-3A/FIRE-CG
REM
REM
REM
REM
REM
REM ./C.cell (11c1c37f851c82e70ff6c80c92926a4b)
REM
REM compiler GCC version 9.2.1 20190827 (Red Hat 9.2.1-1)
REM options -cpp -mtune=generic -march=x86-64 -g -O0 -fpre-include=/usr/include/finclude/math-vector-fortran.h
REM seed -1444876899 979737052 783261009 -1689007319 -800325370 -2078737137 1588050824 57798813 585120731 -328968195 337074722 1960344800 1624257533 -187832823 -1564820251 1402176155 466016468 -1354865657 476179774 1488891548 -504930849 825992124 2000050620 -884088418 -1319984945 1697514217 -1167579319 -771115424 -1657676800 -1665476842 1222094575 628496414 -1887275615
REM
CELL 1.54180   50.00000   50.00000   50.00000   90.00000   90.00000   90.00000
LATT -1
SFAC C  
C      1  0.5774830000000  0.4618830000000  0.4967800000000 1.0
C      1  0.4988480000000  0.5843590000000  0.5070370000000 1.0
C      1  0.5376980000000  0.4843450000000  0.4923230000000 1.0
C      1  0.4260860000000  0.4831310000000  0.5587850000000 1.0
C      1  0.5172550000000  0.4165610000000  0.5247790000000 1.0
C      1  0.5575570000000  0.4517390000000  0.4627660000000 1.0
C      1  0.5077500000000  0.4799490000000  0.4501950000000 1.0
C      1  0.4705110000000  0.4149710000000  0.5023970000000 1.0
C      1  0.5388970000000  0.5083210000000  0.5091050000000 1.0
C      1  0.5280550000000  0.5875490000000  0.5019640000000 1.0
C      1  0.4871880000000  0.5667190000000  0.5294980000000 1.0
C      1  0.5154580000000  0.4661040000000  0.4952250000000 1.0
C      1  0.4674770000000  0.4698580000000  0.4066310000000 1.0
C      1  0.5053690000000  0.4073300000000  0.4744160000000 1.0
C      1  0.4976240000000  0.4885300000000  0.5917140000000 1.0
C      1  0.5126410000000  0.4271690000000  0.5509880000000 1.0
C      1  0.4588070000000  0.5664480000000  0.5239410000000 1.0
C      1  0.4795390000000  0.4551980000000  0.5298950000000 1.0
C      1  0.5917630000000  0.4881300000000  0.4904700000000 1.0
C      1  0.4991710000000  0.5385760000000  0.5264350000000 1.0
C      1  0.5532490000000  0.5590750000000  0.4642960000000 1.0
C      1  0.4965350000000  0.5008400000000  0.4333990000000 1.0
C      1  0.5219930000000  0.5994090000000  0.4768260000000 1.0
C      1  0.5243680000000  0.5552490000000  0.4630860000000 1.0
C      1  0.4062660000000  0.4752380000000  0.4995060000000 1.0
C      1  0.4702220000000  0.5193670000000  0.5898730000000 1.0
C      1  0.4985810000000  0.5967170000000  0.4611380000000 1.0
C      1  0.5122690000000  0.5348520000000  0.4798720000000 1.0
C      1  0.5413470000000  0.4373690000000  0.4464910000000 1.0
C      1  0.4385540000000  0.4345810000000  0.4709040000000 1.0
C      1  0.5664470000000  0.5234600000000  0.5757540000000 1.0
C      1  0.5323890000000  0.4557560000000  0.5839120000000 1.0
C      1  0.4986530000000  0.4081250000000  0.5031290000000 1.0
C      1  0.4066710000000  0.5018760000000  0.4905120000000 1.0
C      1  0.5649490000000  0.4452730000000  0.5189910000000 1.0
C      1  0.5655360000000  0.5540760000000  0.4902560000000 1.0
C      1  0.5484580000000  0.4873790000000  0.4275010000000 1.0
C      1  0.5816910000000  0.5284830000000  0.4897570000000 1.0
C      1  0.5581880000000  0.4699610000000  0.4801440000000 1.0
C      1  0.4614060000000  0.4965140000000  0.4062230000000 1.0
C      1  0.5461150000000  0.5475210000000  0.4165140000000 1.0
C      1  0.4365900000000  0.5077050000000  0.4148980000000 1.0
C      1  0.5369550000000  0.4377190000000  0.5617380000000 1.0
C      1  0.4467810000000  0.5327090000000  0.4173250000000 1.0
C      1  0.5614430000000  0.4486120000000  0.5472430000000 1.0
C      1  0.5703360000000  0.4704770000000  0.5616180000000 1.0
C      1  0.4456660000000  0.5082210000000  0.5026230000000 1.0
C      1  0.5506370000000  0.5685610000000  0.5103050000000 1.0
C      1  0.5134650000000  0.5291890000000  0.5740530000000 1.0
C      1  0.5287650000000  0.4386030000000  0.4905110000000 1.0
C      1  0.4692970000000  0.5475470000000  0.5857210000000 1.0
C      1  0.4250970000000  0.5377640000000  0.5516530000000 1.0
C      1  0.4962370000000  0.4815230000000  0.4741100000000 1.0
C      1  0.5198660000000  0.5090040000000  0.5947120000000 1.0
C      1  0.4889410000000  0.4424010000000  0.5666180000000 1.0
C      1  0.4766440000000  0.4492520000000  0.4185140000000 1.0
C      1  0.4891150000000  0.5150860000000  0.4781850000000 1.0
C      1  0.4452430000000  0.5581210000000  0.4599580000000 1.0
C      1  0.5177020000000  0.5421760000000  0.4134260000000 1.0
C      1  0.4492910000000  0.4643720000000  0.4754320000000 1.0
C      1  0.5316520000000  0.4196150000000  0.4683200000000 1.0
C      1  0.5548130000000  0.5089390000000  0.5327060000000 1.0
C      1  0.4629420000000  0.4775150000000  0.5282570000000 1.0
C      1  0.4275100000000  0.4681940000000  0.4492780000000 1.0
C      1  0.5204160000000  0.5315910000000  0.5075090000000 1.0
C      1  0.4435300000000  0.5290000000000  0.4636400000000 1.0
C      1  0.4813380000000  0.5870180000000  0.4842010000000 1.0
C      1  0.5008360000000  0.5729500000000  0.5581730000000 1.0
C      1  0.5630970000000  0.5550650000000  0.4378100000000 1.0
C      1  0.5040630000000  0.4612190000000  0.5856620000000 1.0
C      1  0.5483780000000  0.5037910000000  0.5899500000000 1.0
C      1  0.5108290000000  0.4884050000000  0.5384340000000 1.0
C      1  0.4201280000000  0.5110830000000  0.4651600000000 1.0
C      1  0.4742940000000  0.4707690000000  0.4696600000000 1.0
C      1  0.4698900000000  0.4998290000000  0.5451330000000 1.0
C      1  0.5666870000000  0.5301280000000  0.4267910000000 1.0
C      1  0.4613340000000  0.4343380000000  0.5218000000000 1.0
C      1  0.4331640000000  0.4547740000000  0.5568550000000 1.0
C      1  0.4237680000000  0.5089520000000  0.5573130000000 1.0
C      1  0.5140320000000  0.5092150000000  0.5538750000000 1.0
C      1  0.4402390000000  0.5670750000000  0.5104790000000 1.0
C      1  0.4553830000000  0.5567550000000  0.4302800000000 1.0
C      1  0.4550470000000  0.5730190000000  0.4826670000000 1.0
C      1  0.5051300000000  0.4664740000000  0.5236160000000 1.0
C      1  0.5557460000000  0.5326230000000  0.5491980000000 1.0
C      1  0.5431670000000  0.4270600000000  0.5126090000000 1.0
C      1  0.5014980000000  0.4909760000000  0.4069210000000 1.0
C      1  0.4790580000000  0.5202990000000  0.5283710000000 1.0
C      1  0.5179480000000  0.4520840000000  0.4338570000000 1.0
C      1  0.4614520000000  0.4171450000000  0.4741910000000 1.0
C      1  0.4216810000000  0.4941430000000  0.4409270000000 1.0
C      1  0.5264840000000  0.5687600000000  0.5524100000000 1.0
C      1  0.4462280000000  0.4795180000000  0.5049190000000 1.0
C      1  0.4961970000000  0.5584450000000  0.4252320000000 1.0
C      1  0.4733930000000  0.4966310000000  0.5750660000000 1.0
C      1  0.4719420000000  0.5200520000000  0.5023290000000 1.0
C      1  0.4459980000000  0.5448110000000  0.5686240000000 1.0
C      1  0.4597700000000  0.4449230000000  0.5638370000000 1.0
C      1  0.5988670000000  0.5045940000000  0.5380880000000 1.0
C      1  0.4846500000000  0.4161090000000  0.4563000000000 1.0
C      1  0.4922860000000  0.4331360000000  0.4330300000000 1.0
C      1  0.4777170000000  0.5451130000000  0.4405640000000 1.0
C      1  0.5910810000000  0.5170730000000  0.5624130000000 1.0
C      1  0.5268400000000  0.4735510000000  0.4140920000000 1.0
C      1  0.4187660000000  0.4375680000000  0.4912220000000 1.0
C      1  0.5747700000000  0.4869560000000  0.5398740000000 1.0
C      1  0.5666470000000  0.5050710000000  0.4417740000000 1.0
C      1  0.4977160000000  0.5530130000000  0.5768360000000 1.0
C      1  0.5535400000000  0.4763620000000  0.5836510000000 1.0
C      1  0.4226400000000  0.5467200000000  0.5220180000000 1.0
C      1  0.4714720000000  0.5216620000000  0.4547620000000 1.0
C      1  0.5498510000000  0.5616250000000  0.5392390000000 1.0
C      1  0.4339880000000  0.4421390000000  0.5298980000000 1.0
C      1  0.4202250000000  0.5209550000000  0.5089670000000 1.0
C      1  0.5972050000000  0.5105340000000  0.5083550000000 1.0
C      1  0.4134250000000  0.4512070000000  0.5092450000000 1.0
C      1  0.5119690000000  0.5150970000000  0.4157050000000 1.0
C      1  0.5106230000000  0.5750170000000  0.4453230000000 1.0
C      1  0.5795300000000  0.5062800000000  0.4705170000000 1.0
END
