TITL C-883731-9874-69 57.2763405392251 125000 -29053.5316980569 0 0 194 (C1) n - 1
REM
REM in /home/nfs/bkarasulu/CARBON/AIRSS/Generating-Clusters/ReaxFF-fromJPCA2015/Units_Real/with-SteepDescent/Only-C1/SD-CG/Try1-3A/FIRE-CG
REM
REM
REM
REM
REM
REM ./C.cell (11c1c37f851c82e70ff6c80c92926a4b)
REM
REM compiler GCC version 9.2.1 20190827 (Red Hat 9.2.1-1)
REM options -cpp -mtune=generic -march=x86-64 -g -O0 -fpre-include=/usr/include/finclude/math-vector-fortran.h
REM seed -1919507408 -1520642355 -192398689 -949355302 1136367870 -1188032551 -635498459 1469699965 1895453479 725220730 -58167682 -39548142 -2074044820 -1877954690 -428083455 -1301204202 1541407784 613610051 1121139508 -667792412 1445545571 305761847 829583827 -1927604180 1423014010 -1228316267 1699477302 1683104690 -825808685 -2123375689 263058546 820039137 1284448277
REM
CELL 1.54180   50.00000   50.00000   50.00000   90.00000   90.00000   90.00000
LATT -1
SFAC C  
C      1  0.5059160000000  0.4364830000000  0.4313070000000 1.0
C      1  0.4815710000000  0.5385770000000  0.5390070000000 1.0
C      1  0.4547770000000  0.5238810000000  0.4567190000000 1.0
C      1  0.4338120000000  0.3983700000000  0.4788500000000 1.0
C      1  0.4429300000000  0.4826120000000  0.5007080000000 1.0
C      1  0.5134690000000  0.4209620000000  0.5042650000000 1.0
C      1  0.4929570000000  0.5695190000000  0.4088240000000 1.0
C      1  0.5005060000000  0.5207490000000  0.5286580000000 1.0
C      1  0.5105900000000  0.5675170000000  0.5196920000000 1.0
C      1  0.4322900000000  0.5402870000000  0.4381490000000 1.0
C      1  0.5597480000000  0.4023830000000  0.4647290000000 1.0
C      1  0.5032560000000  0.4372690000000  0.5931220000000 1.0
C      1  0.4408840000000  0.5646580000000  0.4862500000000 1.0
C      1  0.5726260000000  0.5546460000000  0.4450600000000 1.0
C      1  0.5090140000000  0.5348850000000  0.4340710000000 1.0
C      1  0.4513460000000  0.4222560000000  0.4793000000000 1.0
C      1  0.5599680000000  0.5311020000000  0.3978570000000 1.0
C      1  0.4278540000000  0.5056110000000  0.4054430000000 1.0
C      1  0.4597830000000  0.5805470000000  0.5745910000000 1.0
C      1  0.4058600000000  0.4760620000000  0.4337540000000 1.0
C      1  0.4678810000000  0.4318300000000  0.5566070000000 1.0
C      1  0.4812930000000  0.4579440000000  0.4657780000000 1.0
C      1  0.4415320000000  0.4789090000000  0.4030960000000 1.0
C      1  0.5396240000000  0.5014310000000  0.5011780000000 1.0
C      1  0.4802530000000  0.4252380000000  0.4414980000000 1.0
C      1  0.6008500000000  0.5443870000000  0.5399390000000 1.0
C      1  0.5284780000000  0.4143220000000  0.4383550000000 1.0
C      1  0.5801560000000  0.4397310000000  0.5499130000000 1.0
C      1  0.5610240000000  0.5284480000000  0.4412270000000 1.0
C      1  0.4295940000000  0.4827710000000  0.4755210000000 1.0
C      1  0.4022220000000  0.5336070000000  0.5534610000000 1.0
C      1  0.5511680000000  0.5893100000000  0.4728260000000 1.0
C      1  0.4528180000000  0.5792830000000  0.4400720000000 1.0
C      1  0.4826650000000  0.4568970000000  0.4942080000000 1.0
C      1  0.5067640000000  0.4597660000000  0.5063970000000 1.0
C      1  0.5643660000000  0.5837550000000  0.5502590000000 1.0
C      1  0.5522070000000  0.4962670000000  0.6167260000000 1.0
C      1  0.4413140000000  0.5621100000000  0.5846340000000 1.0
C      1  0.5248000000000  0.5182070000000  0.4786210000000 1.0
C      1  0.4453210000000  0.5260720000000  0.3938620000000 1.0
C      1  0.5634740000000  0.4558980000000  0.5086050000000 1.0
C      1  0.4033140000000  0.4546900000000  0.5209440000000 1.0
C      1  0.5403740000000  0.4898110000000  0.4192220000000 1.0
C      1  0.4943840000000  0.5114930000000  0.4835680000000 1.0
C      1  0.5156610000000  0.5826500000000  0.4260760000000 1.0
C      1  0.5173870000000  0.5966270000000  0.5535740000000 1.0
C      1  0.5070600000000  0.4535330000000  0.4548020000000 1.0
C      1  0.4123160000000  0.4407240000000  0.4938330000000 1.0
C      1  0.4740950000000  0.6053020000000  0.5108790000000 1.0
C      1  0.6065460000000  0.4886670000000  0.5443680000000 1.0
C      1  0.5680880000000  0.4976250000000  0.4976000000000 1.0
C      1  0.5624580000000  0.4783720000000  0.5510550000000 1.0
C      1  0.5096340000000  0.4057810000000  0.5499540000000 1.0
C      1  0.5313360000000  0.4502550000000  0.5455690000000 1.0
C      1  0.4138090000000  0.5176570000000  0.4278650000000 1.0
C      1  0.4782110000000  0.4880480000000  0.4624000000000 1.0
C      1  0.5839270000000  0.4895380000000  0.4221170000000 1.0
C      1  0.5412910000000  0.4885070000000  0.4469810000000 1.0
C      1  0.4139110000000  0.4347040000000  0.5390210000000 1.0
C      1  0.4619180000000  0.5435530000000  0.5948480000000 1.0
C      1  0.6087250000000  0.4880160000000  0.5154100000000 1.0
C      1  0.4162360000000  0.5419810000000  0.5772750000000 1.0
C      1  0.5172400000000  0.4003380000000  0.4609450000000 1.0
C      1  0.3969650000000  0.4825170000000  0.5237540000000 1.0
C      1  0.4906300000000  0.4757790000000  0.4061580000000 1.0
C      1  0.4348680000000  0.5670220000000  0.4566230000000 1.0
C      1  0.4108380000000  0.4668180000000  0.5786700000000 1.0
C      1  0.4452460000000  0.5845530000000  0.5304130000000 1.0
C      1  0.5936990000000  0.4370880000000  0.4626270000000 1.0
C      1  0.3804390000000  0.5190780000000  0.4899510000000 1.0
C      1  0.4076580000000  0.4953790000000  0.5720290000000 1.0
C      1  0.4491510000000  0.5180370000000  0.5984930000000 1.0
C      1  0.5022340000000  0.6058510000000  0.5033630000000 1.0
C      1  0.4533270000000  0.4498310000000  0.5972930000000 1.0
C      1  0.5325940000000  0.4753070000000  0.6158680000000 1.0
C      1  0.3947120000000  0.5420810000000  0.4905710000000 1.0
C      1  0.4852650000000  0.3978710000000  0.5333040000000 1.0
C      1  0.5179750000000  0.5015170000000  0.3836170000000 1.0
C      1  0.5057130000000  0.4918600000000  0.5619190000000 1.0
C      1  0.5361240000000  0.5475870000000  0.5129920000000 1.0
C      1  0.5339230000000  0.5436170000000  0.4853220000000 1.0
C      1  0.5101040000000  0.4941020000000  0.6166240000000 1.0
C      1  0.5578190000000  0.5603380000000  0.4001750000000 1.0
C      1  0.5903920000000  0.5645380000000  0.4891900000000 1.0
C      1  0.4499890000000  0.4957090000000  0.4603000000000 1.0
C      1  0.5031680000000  0.5433010000000  0.4040320000000 1.0
C      1  0.5576500000000  0.5873110000000  0.5210290000000 1.0
C      1  0.5210500000000  0.5181190000000  0.6006400000000 1.0
C      1  0.4564980000000  0.3823660000000  0.4741800000000 1.0
C      1  0.5364780000000  0.5622630000000  0.5883240000000 1.0
C      1  0.5613660000000  0.5578330000000  0.5185910000000 1.0
C      1  0.4875960000000  0.4006260000000  0.4565000000000 1.0
C      1  0.5268780000000  0.4750700000000  0.4933430000000 1.0
C      1  0.5859790000000  0.4393580000000  0.5194560000000 1.0
C      1  0.5766510000000  0.5178730000000  0.4179860000000 1.0
C      1  0.4308900000000  0.4122110000000  0.5274800000000 1.0
C      1  0.4879520000000  0.5119590000000  0.5747740000000 1.0
C      1  0.5685100000000  0.4751400000000  0.4571860000000 1.0
C      1  0.5555340000000  0.4209740000000  0.4422070000000 1.0
C      1  0.4820520000000  0.5213410000000  0.4388840000000 1.0
C      1  0.5536190000000  0.4282490000000  0.5528840000000 1.0
C      1  0.4686290000000  0.4989170000000  0.5886290000000 1.0
C      1  0.5126000000000  0.6013240000000  0.4535970000000 1.0
C      1  0.4588880000000  0.4610970000000  0.5097800000000 1.0
C      1  0.4424560000000  0.5086260000000  0.5387570000000 1.0
C      1  0.5384520000000  0.4075140000000  0.5400090000000 1.0
C      1  0.5276020000000  0.5056580000000  0.5745370000000 1.0
C      1  0.4536610000000  0.4845540000000  0.5599830000000 1.0
C      1  0.5490790000000  0.4035200000000  0.5112800000000 1.0
C      1  0.4662460000000  0.4851380000000  0.3900210000000 1.0
C      1  0.4869080000000  0.5873970000000  0.5573290000000 1.0
C      1  0.4957060000000  0.5651310000000  0.4928230000000 1.0
C      1  0.4900760000000  0.4476170000000  0.4086250000000 1.0
C      1  0.5541860000000  0.5017910000000  0.5657640000000 1.0
C      1  0.5348690000000  0.5175790000000  0.4502720000000 1.0
C      1  0.4370200000000  0.5593450000000  0.5388840000000 1.0
C      1  0.5838780000000  0.4138760000000  0.4780000000000 1.0
C      1  0.5602680000000  0.5202970000000  0.6093780000000 1.0
C      1  0.4185460000000  0.4404360000000  0.5669320000000 1.0
C      1  0.4587700000000  0.4106760000000  0.5376660000000 1.0
C      1  0.5415430000000  0.4657860000000  0.4065840000000 1.0
C      1  0.5956660000000  0.5180320000000  0.4688450000000 1.0
C      1  0.4969190000000  0.5221230000000  0.3846320000000 1.0
C      1  0.5168220000000  0.5611670000000  0.4454130000000 1.0
C      1  0.5593750000000  0.5447500000000  0.5942380000000 1.0
C      1  0.4641990000000  0.5717070000000  0.4150680000000 1.0
C      1  0.5369280000000  0.3968300000000  0.4834290000000 1.0
C      1  0.4547930000000  0.5344930000000  0.4866890000000 1.0
C      1  0.4187510000000  0.4094490000000  0.5013770000000 1.0
C      1  0.4532340000000  0.5084350000000  0.5096320000000 1.0
C      1  0.4885660000000  0.5406900000000  0.5803610000000 1.0
C      1  0.4422020000000  0.4428780000000  0.4971890000000 1.0
C      1  0.4905600000000  0.4821120000000  0.5351340000000 1.0
C      1  0.4989360000000  0.5906330000000  0.4785600000000 1.0
C      1  0.3956470000000  0.5003690000000  0.4432160000000 1.0
C      1  0.4648120000000  0.4381650000000  0.4200440000000 1.0
C      1  0.6029490000000  0.4577930000000  0.4797400000000 1.0
C      1  0.5842340000000  0.5635010000000  0.5560990000000 1.0
C      1  0.4964190000000  0.5618240000000  0.5458460000000 1.0
C      1  0.4529070000000  0.5360600000000  0.5420830000000 1.0
C      1  0.6084230000000  0.4606130000000  0.5072660000000 1.0
C      1  0.4089130000000  0.5649420000000  0.4911900000000 1.0
C      1  0.4516310000000  0.5875480000000  0.5033030000000 1.0
C      1  0.4850790000000  0.4821830000000  0.6090670000000 1.0
C      1  0.5372930000000  0.6111640000000  0.4625800000000 1.0
C      1  0.5132880000000  0.5464930000000  0.5954620000000 1.0
C      1  0.5682150000000  0.5409010000000  0.5656150000000 1.0
C      1  0.5194240000000  0.4658450000000  0.5681740000000 1.0
C      1  0.5927730000000  0.5128120000000  0.4983150000000 1.0
C      1  0.4834680000000  0.5389420000000  0.4847230000000 1.0
C      1  0.5697340000000  0.4642670000000  0.4156410000000 1.0
C      1  0.5475810000000  0.4687370000000  0.5280340000000 1.0
C      1  0.5728790000000  0.5872240000000  0.4933570000000 1.0
C      1  0.5131640000000  0.4411620000000  0.5242940000000 1.0
C      1  0.4175280000000  0.4566080000000  0.4683480000000 1.0
C      1  0.5898420000000  0.4950280000000  0.4505710000000 1.0
C      1  0.5674760000000  0.5730750000000  0.4234080000000 1.0
C      1  0.6043840000000  0.5167740000000  0.5447900000000 1.0
C      1  0.5731840000000  0.4716220000000  0.4861960000000 1.0
C      1  0.5257060000000  0.4712480000000  0.4652540000000 1.0
C      1  0.4867730000000  0.4941440000000  0.4340740000000 1.0
C      1  0.5395790000000  0.5831870000000  0.5665680000000 1.0
C      1  0.5925080000000  0.5472160000000  0.4654140000000 1.0
C      1  0.4176500000000  0.4512810000000  0.4396330000000 1.0
C      1  0.3954660000000  0.5754860000000  0.5164760000000 1.0
C      1  0.4448290000000  0.4320480000000  0.5764520000000 1.0
C      1  0.4691500000000  0.5125750000000  0.3824580000000 1.0
C      1  0.5308380000000  0.5211510000000  0.5270210000000 1.0
C      1  0.4212290000000  0.5165960000000  0.5893550000000 1.0
C      1  0.5230690000000  0.5961090000000  0.5244580000000 1.0
C      1  0.5393550000000  0.5109210000000  0.4007800000000 1.0
C      1  0.4955580000000  0.4223080000000  0.5685360000000 1.0
C      1  0.4672140000000  0.6002430000000  0.5393010000000 1.0
C      1  0.4742780000000  0.3990790000000  0.4808160000000 1.0
C      1  0.4406890000000  0.4546840000000  0.4199200000000 1.0
C      1  0.5349050000000  0.5643220000000  0.4670860000000 1.0
C      1  0.4453270000000  0.5484040000000  0.4122570000000 1.0
C      1  0.4852700000000  0.5026620000000  0.5132450000000 1.0
C      1  0.5167960000000  0.4736230000000  0.3921600000000 1.0
C      1  0.5873040000000  0.5444770000000  0.5115030000000 1.0
C      1  0.5428990000000  0.5807580000000  0.4132940000000 1.0
C      1  0.4075540000000  0.5590450000000  0.5392150000000 1.0
C      1  0.4943480000000  0.3997140000000  0.5059700000000 1.0
C      1  0.3844860000000  0.4909490000000  0.4993360000000 1.0
C      1  0.4389460000000  0.4721290000000  0.5832480000000 1.0
C      1  0.5523420000000  0.5238160000000  0.5479260000000 1.0
C      1  0.4684980000000  0.4648590000000  0.5429890000000 1.0
C      1  0.5262380000000  0.4559410000000  0.5939770000000 1.0
C      1  0.5879490000000  0.4666920000000  0.5570130000000 1.0
C      1  0.5734550000000  0.4463170000000  0.4407340000000 1.0
C      1  0.3984340000000  0.4996470000000  0.4741680000000 1.0
C      1  0.4812740000000  0.4539910000000  0.6052430000000 1.0
C      1  0.5759710000000  0.4133500000000  0.5056660000000 1.0
C      1  0.4101110000000  0.5048940000000  0.5434870000000 1.0
END
