TITL C-884127-5181-414 -0.677666135459495 125000 -7768.23269195877 0 0 53 (C1) n - 1
REM
REM in /home/nfs/bkarasulu/CARBON/AIRSS/Generating-Clusters/ReaxFF-fromJPCA2015/Units_Real/with-SteepDescent/Only-C1/SD-CG/Try1-3A/FIRE-CG
REM
REM
REM
REM
REM
REM ./C.cell (11c1c37f851c82e70ff6c80c92926a4b)
REM
REM compiler GCC version 9.2.1 20190827 (Red Hat 9.2.1-1)
REM options -cpp -mtune=generic -march=x86-64 -g -O0 -fpre-include=/usr/include/finclude/math-vector-fortran.h
REM seed -958328304 148458744 -1523533097 -1419472395 -753211267 -1675639945 -383476060 107100486 430580487 1573159512 -822646933 -909540376 -356444108 -1279686845 1378448399 -1328004626 -226026153 694116818 1853716133 687356854 -1037915348 1261228932 1118276274 -829764167 845025906 81500777 375729842 -1185801266 1950818060 -527509054 -951425206 1318108525 2105181454
REM
CELL 1.54180   50.00000   50.00000   50.00000   90.00000   90.00000   90.00000
LATT -1
SFAC C  
C      1  0.4252750000000  0.4655240000000  0.4978050000000 1.0
C      1  0.5423350000000  0.4980400000000  0.4482410000000 1.0
C      1  0.5084050000000  0.4707950000000  0.4973560000000 1.0
C      1  0.4541150000000  0.4913740000000  0.4493540000000 1.0
C      1  0.5150340000000  0.4476670000000  0.4514260000000 1.0
C      1  0.4820860000000  0.5556630000000  0.4764080000000 1.0
C      1  0.4702050000000  0.4801900000000  0.4910380000000 1.0
C      1  0.4372270000000  0.5359750000000  0.4904500000000 1.0
C      1  0.4942280000000  0.5453630000000  0.5257930000000 1.0
C      1  0.4663050000000  0.5178380000000  0.4509470000000 1.0
C      1  0.4556750000000  0.5079760000000  0.5573920000000 1.0
C      1  0.5204880000000  0.5146450000000  0.4952450000000 1.0
C      1  0.5083840000000  0.4370740000000  0.4776580000000 1.0
C      1  0.4467380000000  0.4731960000000  0.4731850000000 1.0
C      1  0.4868090000000  0.5457790000000  0.5547300000000 1.0
C      1  0.5421760000000  0.5682230000000  0.5163070000000 1.0
C      1  0.5003440000000  0.4699970000000  0.5679690000000 1.0
C      1  0.4826000000000  0.5181630000000  0.5659000000000 1.0
C      1  0.4703430000000  0.4693660000000  0.4372510000000 1.0
C      1  0.5105830000000  0.4956530000000  0.4500160000000 1.0
C      1  0.5227570000000  0.5027150000000  0.5416360000000 1.0
C      1  0.4944460000000  0.5216850000000  0.4459990000000 1.0
C      1  0.5047850000000  0.4942970000000  0.4826650000000 1.0
C      1  0.5517660000000  0.4673160000000  0.4886110000000 1.0
C      1  0.5619550000000  0.5188050000000  0.5192880000000 1.0
C      1  0.4438580000000  0.5193720000000  0.5145640000000 1.0
C      1  0.4866580000000  0.4530010000000  0.4969780000000 1.0
C      1  0.4385380000000  0.5277000000000  0.5439280000000 1.0
C      1  0.5559210000000  0.4914660000000  0.4732130000000 1.0
C      1  0.5218300000000  0.5692800000000  0.4949610000000 1.0
C      1  0.4776650000000  0.4617200000000  0.5501780000000 1.0
C      1  0.5513880000000  0.4953270000000  0.5326520000000 1.0
C      1  0.5534090000000  0.5421530000000  0.4706080000000 1.0
C      1  0.4610210000000  0.4951690000000  0.5144340000000 1.0
C      1  0.5265340000000  0.4560060000000  0.5643550000000 1.0
C      1  0.5585710000000  0.5466890000000  0.5287970000000 1.0
C      1  0.4538820000000  0.4495890000000  0.4518060000000 1.0
C      1  0.5029220000000  0.5467320000000  0.4578220000000 1.0
C      1  0.5549720000000  0.4701560000000  0.5183430000000 1.0
C      1  0.4942020000000  0.5634230000000  0.5019150000000 1.0
C      1  0.4580230000000  0.5400750000000  0.4696520000000 1.0
C      1  0.5482790000000  0.5251780000000  0.4497860000000 1.0
C      1  0.5126070000000  0.4682850000000  0.5241830000000 1.0
C      1  0.5354180000000  0.4467540000000  0.4744630000000 1.0
C      1  0.4898270000000  0.4501620000000  0.5272920000000 1.0
C      1  0.5513740000000  0.5173480000000  0.4907330000000 1.0
C      1  0.5000410000000  0.4695090000000  0.4396930000000 1.0
C      1  0.5050580000000  0.4990850000000  0.5648800000000 1.0
C      1  0.5113620000000  0.5215140000000  0.5216970000000 1.0
C      1  0.5287210000000  0.5572830000000  0.4684620000000 1.0
C      1  0.5371500000000  0.4550600000000  0.5363010000000 1.0
C      1  0.4558940000000  0.4810230000000  0.5415780000000 1.0
C      1  0.4298130000000  0.4676200000000  0.5240550000000 1.0
END
