TITL C-884136-4169-434 92.7980473871954 125000 -25955.2180414401 0 0 176 (C1) n - 1
REM
REM in /home/nfs/bkarasulu/CARBON/AIRSS/Generating-Clusters/ReaxFF-fromJPCA2015/Units_Real/with-SteepDescent/Only-C1/SD-CG/Try1-3A/FIRE-CG
REM
REM
REM
REM
REM
REM ./C.cell (11c1c37f851c82e70ff6c80c92926a4b)
REM
REM compiler GCC version 9.2.1 20190827 (Red Hat 9.2.1-1)
REM options -cpp -mtune=generic -march=x86-64 -g -O0 -fpre-include=/usr/include/finclude/math-vector-fortran.h
REM seed -459617817 -1747487436 -1177600601 -986263061 -420241832 458744778 172225052 -1207736215 -1031796658 567486612 -689202248 -406364717 -944240981 1885816678 -1251053501 144091582 -1710033103 -2140721816 -495647862 715580674 -735371700 -1408277244 -210723660 -862491305 -1906508882 -1450241551 -1255713462 -1501332320 -840931035 1108089497 1228974181 -1579579269 1004462917
REM
CELL 1.54180   50.00000   50.00000   50.00000   90.00000   90.00000   90.00000
LATT -1
SFAC C  
C      1  0.5401550000000  0.5608300000000  0.5859620000000 1.0
C      1  0.5060510000000  0.5869730000000  0.4404190000000 1.0
C      1  0.4708820000000  0.4375950000000  0.5880450000000 1.0
C      1  0.5270680000000  0.4555960000000  0.3996130000000 1.0
C      1  0.5078290000000  0.4620550000000  0.5019490000000 1.0
C      1  0.4924460000000  0.5860810000000  0.5675220000000 1.0
C      1  0.4760500000000  0.3848300000000  0.4896320000000 1.0
C      1  0.5536220000000  0.5563070000000  0.4711680000000 1.0
C      1  0.4869450000000  0.4115710000000  0.4550660000000 1.0
C      1  0.5370360000000  0.5144180000000  0.5709220000000 1.0
C      1  0.4712730000000  0.5088910000000  0.4450470000000 1.0
C      1  0.5649360000000  0.5967470000000  0.4997780000000 1.0
C      1  0.5625370000000  0.5936320000000  0.4530470000000 1.0
C      1  0.4456170000000  0.5855990000000  0.5408590000000 1.0
C      1  0.5739910000000  0.4336560000000  0.5264740000000 1.0
C      1  0.5617180000000  0.4635040000000  0.5933420000000 1.0
C      1  0.5968490000000  0.4687360000000  0.4702720000000 1.0
C      1  0.4421000000000  0.5786080000000  0.4748230000000 1.0
C      1  0.4828120000000  0.4124230000000  0.5383910000000 1.0
C      1  0.5867250000000  0.5635880000000  0.5261150000000 1.0
C      1  0.4827170000000  0.4843390000000  0.5238260000000 1.0
C      1  0.5476280000000  0.5041840000000  0.3935030000000 1.0
C      1  0.5242560000000  0.4927320000000  0.6240740000000 1.0
C      1  0.4787060000000  0.5416110000000  0.5338230000000 1.0
C      1  0.5840320000000  0.5500470000000  0.4453410000000 1.0
C      1  0.4701870000000  0.5073790000000  0.6177180000000 1.0
C      1  0.4106070000000  0.4645120000000  0.5721750000000 1.0
C      1  0.5728640000000  0.4905360000000  0.5901490000000 1.0
C      1  0.5490910000000  0.4879780000000  0.4955410000000 1.0
C      1  0.5517820000000  0.4402260000000  0.4773320000000 1.0
C      1  0.5974860000000  0.5120150000000  0.5005790000000 1.0
C      1  0.4097890000000  0.4561750000000  0.4658870000000 1.0
C      1  0.4981280000000  0.5095270000000  0.4399160000000 1.0
C      1  0.5236130000000  0.4167760000000  0.5837040000000 1.0
C      1  0.5488200000000  0.4495800000000  0.5264800000000 1.0
C      1  0.4700030000000  0.4451830000000  0.4840130000000 1.0
C      1  0.5433530000000  0.3897780000000  0.5173130000000 1.0
C      1  0.5210350000000  0.5889300000000  0.4870840000000 1.0
C      1  0.5206340000000  0.5377610000000  0.5085430000000 1.0
C      1  0.5401730000000  0.4959960000000  0.4689500000000 1.0
C      1  0.5294580000000  0.6156170000000  0.4867040000000 1.0
C      1  0.5632730000000  0.5124970000000  0.4654080000000 1.0
C      1  0.5270440000000  0.4426370000000  0.4589240000000 1.0
C      1  0.4476010000000  0.4847610000000  0.4757920000000 1.0
C      1  0.5329660000000  0.4721570000000  0.4460060000000 1.0
C      1  0.4653500000000  0.5827350000000  0.5609360000000 1.0
C      1  0.5040180000000  0.5293110000000  0.5291820000000 1.0
C      1  0.4443700000000  0.4965320000000  0.6070820000000 1.0
C      1  0.5486160000000  0.5332150000000  0.5115380000000 1.0
C      1  0.5321600000000  0.5928170000000  0.5431330000000 1.0
C      1  0.4269370000000  0.5727790000000  0.5573530000000 1.0
C      1  0.5209720000000  0.5023880000000  0.3822030000000 1.0
C      1  0.4173750000000  0.4449080000000  0.4395370000000 1.0
C      1  0.4448290000000  0.4208130000000  0.4797860000000 1.0
C      1  0.5481210000000  0.4172640000000  0.5667720000000 1.0
C      1  0.5011860000000  0.4647120000000  0.4106010000000 1.0
C      1  0.4566280000000  0.4904070000000  0.3976680000000 1.0
C      1  0.4988840000000  0.4317550000000  0.4743380000000 1.0
C      1  0.5116990000000  0.4375980000000  0.5647110000000 1.0
C      1  0.5088530000000  0.4140090000000  0.5245810000000 1.0
C      1  0.4585130000000  0.4546480000000  0.5450980000000 1.0
C      1  0.5004880000000  0.5064790000000  0.6138700000000 1.0
C      1  0.5747420000000  0.4542100000000  0.4409920000000 1.0
C      1  0.5113650000000  0.4327740000000  0.5012910000000 1.0
C      1  0.4156170000000  0.5096620000000  0.4232160000000 1.0
C      1  0.5511650000000  0.5020660000000  0.5488750000000 1.0
C      1  0.5280070000000  0.5525580000000  0.4655240000000 1.0
C      1  0.4413330000000  0.5279150000000  0.4730320000000 1.0
C      1  0.4204560000000  0.4499760000000  0.5144350000000 1.0
C      1  0.4391940000000  0.5533330000000  0.4597180000000 1.0
C      1  0.4560540000000  0.5391310000000  0.4106230000000 1.0
C      1  0.4641710000000  0.5301100000000  0.5568390000000 1.0
C      1  0.6050110000000  0.5433320000000  0.5370890000000 1.0
C      1  0.4810340000000  0.4596110000000  0.5105020000000 1.0
C      1  0.5523250000000  0.5336680000000  0.5858170000000 1.0
C      1  0.5115790000000  0.5091350000000  0.4710410000000 1.0
C      1  0.4577750000000  0.4836760000000  0.5395280000000 1.0
C      1  0.5446060000000  0.5834110000000  0.5182610000000 1.0
C      1  0.5283470000000  0.4551810000000  0.5478500000000 1.0
C      1  0.4041690000000  0.5454980000000  0.4861150000000 1.0
C      1  0.4708760000000  0.5628240000000  0.4204220000000 1.0
C      1  0.4054490000000  0.5555400000000  0.5489620000000 1.0
C      1  0.5771670000000  0.5180440000000  0.5822890000000 1.0
C      1  0.5354310000000  0.5691950000000  0.5599930000000 1.0
C      1  0.5082080000000  0.4996100000000  0.5307250000000 1.0
C      1  0.5639590000000  0.4110700000000  0.4821460000000 1.0
C      1  0.4005100000000  0.5361010000000  0.4585360000000 1.0
C      1  0.4974880000000  0.4818330000000  0.5765250000000 1.0
C      1  0.6003110000000  0.4890530000000  0.4857390000000 1.0
C      1  0.5559160000000  0.6108340000000  0.4743910000000 1.0
C      1  0.5134320000000  0.5677670000000  0.5786590000000 1.0
C      1  0.5071340000000  0.5332440000000  0.4135340000000 1.0
C      1  0.4009540000000  0.5079110000000  0.4490140000000 1.0
C      1  0.4710220000000  0.4976070000000  0.4873820000000 1.0
C      1  0.4204510000000  0.4396020000000  0.4866060000000 1.0
C      1  0.5448610000000  0.4387630000000  0.4172380000000 1.0
C      1  0.4800640000000  0.4352020000000  0.5585820000000 1.0
C      1  0.4694140000000  0.5161450000000  0.3966420000000 1.0
C      1  0.4384730000000  0.5220970000000  0.5941010000000 1.0
C      1  0.4833560000000  0.5610560000000  0.4914380000000 1.0
C      1  0.5128950000000  0.4001240000000  0.4455910000000 1.0
C      1  0.4003530000000  0.4965120000000  0.4944360000000 1.0
C      1  0.4721120000000  0.4649830000000  0.4001310000000 1.0
C      1  0.4538670000000  0.3987790000000  0.4991150000000 1.0
C      1  0.4590030000000  0.4455190000000  0.4148550000000 1.0
C      1  0.4215660000000  0.4631240000000  0.4194970000000 1.0
C      1  0.6093500000000  0.5191620000000  0.5256590000000 1.0
C      1  0.3997530000000  0.4855250000000  0.4679680000000 1.0
C      1  0.5342060000000  0.4062730000000  0.5394730000000 1.0
C      1  0.4478230000000  0.4518080000000  0.5896320000000 1.0
C      1  0.4278370000000  0.5361430000000  0.4177990000000 1.0
C      1  0.4778950000000  0.5798450000000  0.4439960000000 1.0
C      1  0.4653170000000  0.5323860000000  0.6029350000000 1.0
C      1  0.5361890000000  0.4794970000000  0.3867040000000 1.0
C      1  0.5812710000000  0.4955780000000  0.5476100000000 1.0
C      1  0.5413320000000  0.5026820000000  0.5207830000000 1.0
C      1  0.5870590000000  0.4415790000000  0.5536040000000 1.0
C      1  0.4367070000000  0.5228970000000  0.5647490000000 1.0
C      1  0.5216920000000  0.5781010000000  0.4620260000000 1.0
C      1  0.5681670000000  0.5729190000000  0.4348500000000 1.0
C      1  0.4058930000000  0.4600960000000  0.5439090000000 1.0
C      1  0.4974850000000  0.5611660000000  0.4093980000000 1.0
C      1  0.4449480000000  0.5075920000000  0.4524050000000 1.0
C      1  0.5851250000000  0.5762420000000  0.5000190000000 1.0
C      1  0.5347200000000  0.5392960000000  0.4157350000000 1.0
C      1  0.4823170000000  0.5303570000000  0.5791390000000 1.0
C      1  0.5658550000000  0.4405890000000  0.5741380000000 1.0
C      1  0.5810680000000  0.4237490000000  0.5009470000000 1.0
C      1  0.6006580000000  0.5192760000000  0.5530810000000 1.0
C      1  0.4906950000000  0.6040280000000  0.5185990000000 1.0
C      1  0.4285470000000  0.4875730000000  0.4074620000000 1.0
C      1  0.5000640000000  0.6073710000000  0.4897950000000 1.0
C      1  0.4979510000000  0.3781050000000  0.4781330000000 1.0
C      1  0.4573120000000  0.4109140000000  0.5254580000000 1.0
C      1  0.5733890000000  0.5257400000000  0.4893920000000 1.0
C      1  0.4169490000000  0.5514150000000  0.4400040000000 1.0
C      1  0.5391710000000  0.4673150000000  0.6130050000000 1.0
C      1  0.3993260000000  0.4855840000000  0.5549240000000 1.0
C      1  0.4883740000000  0.5765920000000  0.5153010000000 1.0
C      1  0.5548780000000  0.4614950000000  0.4278400000000 1.0
C      1  0.5804150000000  0.5527710000000  0.4775110000000 1.0
C      1  0.4438110000000  0.4291300000000  0.4315520000000 1.0
C      1  0.5715360000000  0.5246080000000  0.4402400000000 1.0
C      1  0.5236780000000  0.3833420000000  0.4678550000000 1.0
C      1  0.4981190000000  0.4880010000000  0.4865250000000 1.0
C      1  0.4119170000000  0.5130530000000  0.5515320000000 1.0
C      1  0.4615820000000  0.5460150000000  0.5118820000000 1.0
C      1  0.5054730000000  0.5104160000000  0.5829000000000 1.0
C      1  0.5082950000000  0.4808030000000  0.4324840000000 1.0
C      1  0.5823530000000  0.4447000000000  0.4653830000000 1.0
C      1  0.4226900000000  0.5683200000000  0.4947530000000 1.0
C      1  0.4411760000000  0.4977780000000  0.5203730000000 1.0
C      1  0.5194110000000  0.5785810000000  0.4160150000000 1.0
C      1  0.4982580000000  0.5168250000000  0.3923910000000 1.0
C      1  0.5496620000000  0.4604980000000  0.4999260000000 1.0
C      1  0.4614090000000  0.4617170000000  0.4610190000000 1.0
C      1  0.5874040000000  0.4687890000000  0.5512250000000 1.0
C      1  0.4886970000000  0.4603100000000  0.5967310000000 1.0
C      1  0.3968180000000  0.5244130000000  0.5043280000000 1.0
C      1  0.5449690000000  0.5639050000000  0.4164170000000 1.0
C      1  0.4319630000000  0.4718060000000  0.5941420000000 1.0
C      1  0.5562590000000  0.5240490000000  0.4139220000000 1.0
C      1  0.5140230000000  0.4566740000000  0.6074830000000 1.0
C      1  0.4529490000000  0.5186320000000  0.4994290000000 1.0
C      1  0.5577380000000  0.5581990000000  0.5278000000000 1.0
C      1  0.5049820000000  0.6018940000000  0.5446500000000 1.0
C      1  0.5097700000000  0.5387350000000  0.4835530000000 1.0
C      1  0.4577370000000  0.4143630000000  0.4531880000000 1.0
C      1  0.4250300000000  0.4813440000000  0.5033180000000 1.0
C      1  0.4711460000000  0.5826410000000  0.4724210000000 1.0
C      1  0.4433910000000  0.4371560000000  0.5296850000000 1.0
C      1  0.5456310000000  0.3889210000000  0.4870610000000 1.0
C      1  0.4391420000000  0.5654610000000  0.5185820000000 1.0
C      1  0.5131810000000  0.4792860000000  0.5529480000000 1.0
C      1  0.5300890000000  0.4227310000000  0.4380920000000 1.0
C      1  0.3978690000000  0.5305160000000  0.5332910000000 1.0
END
