TITL C-883740-3686-431 53.6266889088883 125000 -26883.1800847006 0 0 182 (C1) n - 1
REM
REM in /home/nfs/bkarasulu/CARBON/AIRSS/Generating-Clusters/ReaxFF-fromJPCA2015/Units_Real/with-SteepDescent/Only-C1/SD-CG/Try1-3A/FIRE-CG
REM
REM
REM
REM
REM
REM ./C.cell (11c1c37f851c82e70ff6c80c92926a4b)
REM
REM compiler GCC version 9.2.1 20190827 (Red Hat 9.2.1-1)
REM options -cpp -mtune=generic -march=x86-64 -g -O0 -fpre-include=/usr/include/finclude/math-vector-fortran.h
REM seed -528354593 625739926 -1297670996 2080687705 322706514 -312302528 -1318756661 635261635 -2061066549 -654929998 -1802971182 1357346947 -994698227 -738186961 893045844 -432440225 1419841543 567457189 -1439350542 1911086711 -845654867 76377914 -2052377203 663229152 -462319206 1407566051 -199856261 -1976137395 -749740317 369910826 1553094271 749411485 -1211251492
REM
CELL 1.54180   50.00000   50.00000   50.00000   90.00000   90.00000   90.00000
LATT -1
SFAC C  
C      1  0.5016960000000  0.5610540000000  0.5866360000000 1.0
C      1  0.5424710000000  0.5589130000000  0.4892120000000 1.0
C      1  0.5111600000000  0.5161540000000  0.6013400000000 1.0
C      1  0.5486570000000  0.5846600000000  0.4766440000000 1.0
C      1  0.5282310000000  0.4001290000000  0.5356620000000 1.0
C      1  0.4020750000000  0.5298950000000  0.5238900000000 1.0
C      1  0.5142140000000  0.4515100000000  0.5467090000000 1.0
C      1  0.5371670000000  0.5696950000000  0.5533490000000 1.0
C      1  0.5090270000000  0.4428360000000  0.5036880000000 1.0
C      1  0.4399540000000  0.4108150000000  0.5178060000000 1.0
C      1  0.4001010000000  0.4723960000000  0.5121080000000 1.0
C      1  0.5260230000000  0.5126280000000  0.3917870000000 1.0
C      1  0.5376880000000  0.4486720000000  0.5083580000000 1.0
C      1  0.4195710000000  0.4272210000000  0.5330750000000 1.0
C      1  0.4774160000000  0.5456420000000  0.5907560000000 1.0
C      1  0.5685200000000  0.5218100000000  0.5902950000000 1.0
C      1  0.4576440000000  0.4636800000000  0.5508330000000 1.0
C      1  0.4871580000000  0.5790410000000  0.4272280000000 1.0
C      1  0.4064740000000  0.4438560000000  0.5117520000000 1.0
C      1  0.4134040000000  0.5351690000000  0.5751680000000 1.0
C      1  0.4362210000000  0.4857620000000  0.4081710000000 1.0
C      1  0.4200100000000  0.5194930000000  0.4412990000000 1.0
C      1  0.5728900000000  0.4172780000000  0.4508780000000 1.0
C      1  0.5012630000000  0.4966010000000  0.3968590000000 1.0
C      1  0.4874500000000  0.3931890000000  0.5015170000000 1.0
C      1  0.4485440000000  0.4294670000000  0.4522040000000 1.0
C      1  0.5165640000000  0.4400770000000  0.4555110000000 1.0
C      1  0.4437960000000  0.5319220000000  0.4557900000000 1.0
C      1  0.5298010000000  0.4191990000000  0.4377100000000 1.0
C      1  0.5556220000000  0.5929940000000  0.5071800000000 1.0
C      1  0.5260550000000  0.5945960000000  0.5484490000000 1.0
C      1  0.4679100000000  0.4900140000000  0.6011800000000 1.0
C      1  0.5771330000000  0.5784850000000  0.5197640000000 1.0
C      1  0.4938800000000  0.5441710000000  0.4560780000000 1.0
C      1  0.5323490000000  0.3936410000000  0.4857480000000 1.0
C      1  0.5436090000000  0.4202630000000  0.5749860000000 1.0
C      1  0.4988120000000  0.5553750000000  0.4954580000000 1.0
C      1  0.5893610000000  0.4675570000000  0.5580930000000 1.0
C      1  0.4037260000000  0.5176320000000  0.5508520000000 1.0
C      1  0.4237710000000  0.4884890000000  0.5201390000000 1.0
C      1  0.4483460000000  0.5334960000000  0.5410380000000 1.0
C      1  0.5664190000000  0.5683150000000  0.4524530000000 1.0
C      1  0.4608110000000  0.5484930000000  0.5206890000000 1.0
C      1  0.5689540000000  0.5016950000000  0.5185360000000 1.0
C      1  0.3890400000000  0.4778280000000  0.4652210000000 1.0
C      1  0.5551360000000  0.5544730000000  0.4290650000000 1.0
C      1  0.5163310000000  0.5396860000000  0.3971410000000 1.0
C      1  0.4511660000000  0.4509340000000  0.5985930000000 1.0
C      1  0.5604560000000  0.5640450000000  0.5671120000000 1.0
C      1  0.4717420000000  0.4157900000000  0.4471070000000 1.0
C      1  0.4891010000000  0.5314030000000  0.4313650000000 1.0
C      1  0.5815050000000  0.5681320000000  0.5470550000000 1.0
C      1  0.4436560000000  0.5838670000000  0.5648370000000 1.0
C      1  0.5579840000000  0.4029590000000  0.4959550000000 1.0
C      1  0.5000090000000  0.4680830000000  0.3864440000000 1.0
C      1  0.5621910000000  0.5094890000000  0.4923090000000 1.0
C      1  0.5305880000000  0.6001540000000  0.5188920000000 1.0
C      1  0.5538530000000  0.4090430000000  0.5239070000000 1.0
C      1  0.5465530000000  0.5397470000000  0.4739260000000 1.0
C      1  0.4610980000000  0.6044860000000  0.4749850000000 1.0
C      1  0.5707730000000  0.5036660000000  0.4156160000000 1.0
C      1  0.4779230000000  0.5970780000000  0.4995880000000 1.0
C      1  0.5017540000000  0.4317630000000  0.4782570000000 1.0
C      1  0.4543100000000  0.5466910000000  0.4926760000000 1.0
C      1  0.5144010000000  0.3914140000000  0.5104140000000 1.0
C      1  0.4923620000000  0.4045410000000  0.4708670000000 1.0
C      1  0.6086530000000  0.4882980000000  0.5695590000000 1.0
C      1  0.4657630000000  0.4524050000000  0.5240970000000 1.0
C      1  0.4474230000000  0.4300440000000  0.5768650000000 1.0
C      1  0.4772300000000  0.5622400000000  0.5373920000000 1.0
C      1  0.5126060000000  0.4822730000000  0.4845550000000 1.0
C      1  0.4504370000000  0.5537510000000  0.4151280000000 1.0
C      1  0.5576490000000  0.5251620000000  0.4305760000000 1.0
C      1  0.5600660000000  0.4310110000000  0.4306240000000 1.0
C      1  0.4932860000000  0.4373720000000  0.5288110000000 1.0
C      1  0.5356380000000  0.5098640000000  0.4431510000000 1.0
C      1  0.4227650000000  0.5490520000000  0.5312220000000 1.0
C      1  0.5653150000000  0.4851350000000  0.5659570000000 1.0
C      1  0.5187580000000  0.4787140000000  0.5370830000000 1.0
C      1  0.5554130000000  0.5360490000000  0.5006850000000 1.0
C      1  0.4716750000000  0.4152490000000  0.5677480000000 1.0
C      1  0.4389480000000  0.5415570000000  0.5877580000000 1.0
C      1  0.4262000000000  0.4384970000000  0.5593510000000 1.0
C      1  0.4838960000000  0.4271530000000  0.4226590000000 1.0
C      1  0.5147320000000  0.5804110000000  0.4256160000000 1.0
C      1  0.6017260000000  0.5409840000000  0.4844400000000 1.0
C      1  0.4755990000000  0.4992940000000  0.5443040000000 1.0
C      1  0.4490450000000  0.4947210000000  0.5067490000000 1.0
C      1  0.5102030000000  0.6010650000000  0.4970670000000 1.0
C      1  0.4178310000000  0.4927870000000  0.5483330000000 1.0
C      1  0.4890090000000  0.5036890000000  0.4217200000000 1.0
C      1  0.4180550000000  0.5790630000000  0.4904670000000 1.0
C      1  0.5460450000000  0.4663490000000  0.4024910000000 1.0
C      1  0.5208210000000  0.4507940000000  0.3988210000000 1.0
C      1  0.4420600000000  0.5119590000000  0.3956000000000 1.0
C      1  0.4463540000000  0.5595110000000  0.4434270000000 1.0
C      1  0.5383760000000  0.4703210000000  0.4905300000000 1.0
C      1  0.5870130000000  0.5086520000000  0.5716390000000 1.0
C      1  0.4551700000000  0.5867800000000  0.4512830000000 1.0
C      1  0.4254340000000  0.4416280000000  0.4893010000000 1.0
C      1  0.5122300000000  0.4285780000000  0.4150650000000 1.0
C      1  0.4108010000000  0.4677740000000  0.4480900000000 1.0
C      1  0.4734520000000  0.5254860000000  0.5523420000000 1.0
C      1  0.4040190000000  0.5309460000000  0.4702510000000 1.0
C      1  0.4803000000000  0.5538400000000  0.4136340000000 1.0
C      1  0.4342850000000  0.5954260000000  0.4711230000000 1.0
C      1  0.5870800000000  0.4540250000000  0.5323560000000 1.0
C      1  0.5021290000000  0.5739810000000  0.4520340000000 1.0
C      1  0.4658100000000  0.3960560000000  0.5207680000000 1.0
C      1  0.6051730000000  0.5506190000000  0.5373400000000 1.0
C      1  0.5200050000000  0.3991500000000  0.4602810000000 1.0
C      1  0.5810660000000  0.4472290000000  0.4759800000000 1.0
C      1  0.6014860000000  0.4902070000000  0.4682870000000 1.0
C      1  0.5306150000000  0.5603630000000  0.4128840000000 1.0
C      1  0.5793150000000  0.4827010000000  0.4341850000000 1.0
C      1  0.5850000000000  0.5544060000000  0.4663270000000 1.0
C      1  0.4652670000000  0.5636010000000  0.5654390000000 1.0
C      1  0.5231160000000  0.5432290000000  0.5945340000000 1.0
C      1  0.4916030000000  0.5333110000000  0.3774420000000 1.0
C      1  0.6020500000000  0.4688590000000  0.5124820000000 1.0
C      1  0.5229590000000  0.4634320000000  0.5938920000000 1.0
C      1  0.5197960000000  0.5921940000000  0.4729070000000 1.0
C      1  0.4105110000000  0.5548040000000  0.4790700000000 1.0
C      1  0.5016570000000  0.5601750000000  0.5233730000000 1.0
C      1  0.4855370000000  0.5998290000000  0.5491370000000 1.0
C      1  0.5433310000000  0.4430300000000  0.5568490000000 1.0
C      1  0.5743870000000  0.4925140000000  0.4616660000000 1.0
C      1  0.4671660000000  0.6039070000000  0.5286390000000 1.0
C      1  0.4995470000000  0.4444140000000  0.5967160000000 1.0
C      1  0.5466350000000  0.4953630000000  0.5427960000000 1.0
C      1  0.5295990000000  0.5138090000000  0.5579900000000 1.0
C      1  0.5514420000000  0.4988440000000  0.5882560000000 1.0
C      1  0.4824950000000  0.5162490000000  0.5985060000000 1.0
C      1  0.4405510000000  0.5940580000000  0.5362900000000 1.0
C      1  0.4784050000000  0.4782890000000  0.5628410000000 1.0
C      1  0.5276770000000  0.5245820000000  0.4659780000000 1.0
C      1  0.5453990000000  0.4467440000000  0.5850240000000 1.0
C      1  0.5977300000000  0.4985760000000  0.5124600000000 1.0
C      1  0.3880680000000  0.4904860000000  0.4921500000000 1.0
C      1  0.5229040000000  0.5489940000000  0.5394160000000 1.0
C      1  0.4319250000000  0.5314500000000  0.4148260000000 1.0
C      1  0.5207620000000  0.4070670000000  0.5636700000000 1.0
C      1  0.5130010000000  0.4669910000000  0.4458990000000 1.0
C      1  0.4740360000000  0.5681170000000  0.4890580000000 1.0
C      1  0.6061340000000  0.5119220000000  0.4874860000000 1.0
C      1  0.5271090000000  0.4922820000000  0.6003220000000 1.0
C      1  0.4315270000000  0.4703770000000  0.5645280000000 1.0
C      1  0.4712540000000  0.4765790000000  0.5082660000000 1.0
C      1  0.4687780000000  0.4520990000000  0.4239570000000 1.0
C      1  0.4724260000000  0.4595180000000  0.3793650000000 1.0
C      1  0.5038130000000  0.5882000000000  0.5664170000000 1.0
C      1  0.5061860000000  0.5061290000000  0.4984240000000 1.0
C      1  0.5778420000000  0.4178440000000  0.4783620000000 1.0
C      1  0.4521760000000  0.4613060000000  0.4017990000000 1.0
C      1  0.4611910000000  0.5104800000000  0.4665370000000 1.0
C      1  0.4663610000000  0.5210610000000  0.3832000000000 1.0
C      1  0.4210000000000  0.5286130000000  0.6008200000000 1.0
C      1  0.4244800000000  0.5761110000000  0.5194750000000 1.0
C      1  0.6028880000000  0.4642950000000  0.4834960000000 1.0
C      1  0.5360140000000  0.4806260000000  0.4476840000000 1.0
C      1  0.5493900000000  0.4949680000000  0.3976580000000 1.0
C      1  0.4981040000000  0.4206820000000  0.5788290000000 1.0
C      1  0.4255290000000  0.4431760000000  0.4596920000000 1.0
C      1  0.4718150000000  0.4844570000000  0.4626000000000 1.0
C      1  0.4848420000000  0.4780520000000  0.4373560000000 1.0
C      1  0.5062170000000  0.5289440000000  0.5527210000000 1.0
C      1  0.5600650000000  0.4386880000000  0.5279200000000 1.0
C      1  0.3963310000000  0.5189830000000  0.4956510000000 1.0
C      1  0.4551070000000  0.5174850000000  0.4915980000000 1.0
C      1  0.4777350000000  0.4604640000000  0.6065610000000 1.0
C      1  0.5991200000000  0.5589290000000  0.5093040000000 1.0
C      1  0.5065320000000  0.4724260000000  0.5636180000000 1.0
C      1  0.4816170000000  0.4104820000000  0.5405250000000 1.0
C      1  0.4860550000000  0.4701770000000  0.4836480000000 1.0
C      1  0.5657750000000  0.4586760000000  0.4223090000000 1.0
C      1  0.4496510000000  0.4338740000000  0.5036730000000 1.0
C      1  0.4424450000000  0.4783120000000  0.5932600000000 1.0
C      1  0.4966290000000  0.4946660000000  0.5232540000000 1.0
C      1  0.4219390000000  0.4900520000000  0.4326180000000 1.0
C      1  0.5031660000000  0.5293680000000  0.4804250000000 1.0
C      1  0.5573030000000  0.4696020000000  0.4677360000000 1.0
C      1  0.5520620000000  0.5453000000000  0.5874330000000 1.0
END
