TITL C-883727-9645-381 -6.83977337341791 125000 -15290.3707249499 0 0 103 (C1) n - 1
REM
REM in /home/nfs/bkarasulu/CARBON/AIRSS/Generating-Clusters/ReaxFF-fromJPCA2015/Units_Real/with-SteepDescent/Only-C1/SD-CG/Try1-3A/FIRE-CG
REM
REM
REM
REM
REM
REM ./C.cell (11c1c37f851c82e70ff6c80c92926a4b)
REM
REM compiler GCC version 9.2.1 20190827 (Red Hat 9.2.1-1)
REM options -cpp -mtune=generic -march=x86-64 -g -O0 -fpre-include=/usr/include/finclude/math-vector-fortran.h
REM seed -1544668919 1130988029 848541239 -705299281 -616253418 -1660768186 2117196640 -918957885 601066579 1711052630 -1796076968 -57206509 -795821034 -1478255535 620963489 -2071819598 952662987 -1866136837 -1080946743 -176739533 -125993593 -2020806650 -294898573 1861623299 321677472 -557966498 -1168924057 607075447 -458973389 291575915 1455035687 -815914347 -2000399103
REM
CELL 1.54180   50.00000   50.00000   50.00000   90.00000   90.00000   90.00000
LATT -1
SFAC C  
C      1  0.4184140000000  0.5313730000000  0.5008660000000 1.0
C      1  0.4714710000000  0.5184070000000  0.5065520000000 1.0
C      1  0.5394520000000  0.4846460000000  0.5788330000000 1.0
C      1  0.4404300000000  0.4627710000000  0.5255330000000 1.0
C      1  0.5114950000000  0.5731280000000  0.4530560000000 1.0
C      1  0.5755010000000  0.5239730000000  0.5325570000000 1.0
C      1  0.5512190000000  0.4613650000000  0.4818550000000 1.0
C      1  0.5539080000000  0.4859640000000  0.5202510000000 1.0
C      1  0.4627660000000  0.4912380000000  0.5530370000000 1.0
C      1  0.4180200000000  0.4694210000000  0.4695000000000 1.0
C      1  0.5364050000000  0.4587780000000  0.5573970000000 1.0
C      1  0.5273580000000  0.4342150000000  0.4454110000000 1.0
C      1  0.4948940000000  0.4526490000000  0.5223970000000 1.0
C      1  0.4995930000000  0.5283400000000  0.5427700000000 1.0
C      1  0.5740880000000  0.5408590000000  0.5093850000000 1.0
C      1  0.4380660000000  0.5123770000000  0.4888970000000 1.0
C      1  0.4720280000000  0.4405720000000  0.5637930000000 1.0
C      1  0.5055530000000  0.4592240000000  0.4960380000000 1.0
C      1  0.4530960000000  0.5381940000000  0.4146450000000 1.0
C      1  0.4238080000000  0.5182380000000  0.5262570000000 1.0
C      1  0.4368610000000  0.4582900000000  0.4500570000000 1.0
C      1  0.5022030000000  0.4971170000000  0.4198980000000 1.0
C      1  0.5291950000000  0.4476180000000  0.4876000000000 1.0
C      1  0.4498590000000  0.5091800000000  0.5682590000000 1.0
C      1  0.5198810000000  0.4914020000000  0.5251050000000 1.0
C      1  0.4870560000000  0.4259020000000  0.4722000000000 1.0
C      1  0.5425540000000  0.5342680000000  0.4329500000000 1.0
C      1  0.5003100000000  0.5656700000000  0.5163990000000 1.0
C      1  0.4358820000000  0.5393790000000  0.5434020000000 1.0
C      1  0.5113420000000  0.4121000000000  0.4827500000000 1.0
C      1  0.5250590000000  0.4306720000000  0.5533610000000 1.0
C      1  0.5157730000000  0.4109010000000  0.5117150000000 1.0
C      1  0.4736610000000  0.5504310000000  0.5824020000000 1.0
C      1  0.5610940000000  0.5146340000000  0.4389510000000 1.0
C      1  0.4935890000000  0.5426860000000  0.4989930000000 1.0
C      1  0.5238800000000  0.5180510000000  0.5355940000000 1.0
C      1  0.5485250000000  0.4891590000000  0.4908760000000 1.0
C      1  0.4789740000000  0.4582800000000  0.5841240000000 1.0
C      1  0.4918890000000  0.4224520000000  0.5253770000000 1.0
C      1  0.4258780000000  0.4410670000000  0.4701760000000 1.0
C      1  0.4539210000000  0.5079990000000  0.4157040000000 1.0
C      1  0.4680080000000  0.5467590000000  0.4572450000000 1.0
C      1  0.4962240000000  0.5844310000000  0.4750230000000 1.0
C      1  0.4662540000000  0.5718260000000  0.5471660000000 1.0
C      1  0.4674310000000  0.4261960000000  0.4947600000000 1.0
C      1  0.4974670000000  0.4745490000000  0.5741390000000 1.0
C      1  0.5005360000000  0.5585890000000  0.4296830000000 1.0
C      1  0.5434640000000  0.5128860000000  0.5767930000000 1.0
C      1  0.5028630000000  0.4868250000000  0.4954850000000 1.0
C      1  0.5919620000000  0.4751130000000  0.4944650000000 1.0
C      1  0.4752120000000  0.5138350000000  0.5351320000000 1.0
C      1  0.5226430000000  0.4774950000000  0.4237630000000 1.0
C      1  0.4472040000000  0.5368400000000  0.5703480000000 1.0
C      1  0.5110310000000  0.5293780000000  0.4284230000000 1.0
C      1  0.4648630000000  0.4877520000000  0.4671860000000 1.0
C      1  0.4741070000000  0.5649440000000  0.4825630000000 1.0
C      1  0.5357610000000  0.4252570000000  0.4708220000000 1.0
C      1  0.4489520000000  0.5680800000000  0.4998140000000 1.0
C      1  0.5893900000000  0.4836110000000  0.4651900000000 1.0
C      1  0.5502560000000  0.4851300000000  0.4305870000000 1.0
C      1  0.4293560000000  0.5382360000000  0.4327010000000 1.0
C      1  0.5511300000000  0.5299590000000  0.5503430000000 1.0
C      1  0.5082340000000  0.4704610000000  0.5436120000000 1.0
C      1  0.4962410000000  0.4246890000000  0.5543690000000 1.0
C      1  0.5187290000000  0.5188670000000  0.5931640000000 1.0
C      1  0.4253590000000  0.4881930000000  0.5204100000000 1.0
C      1  0.5625770000000  0.4366580000000  0.5212790000000 1.0
C      1  0.4557130000000  0.4620990000000  0.5501930000000 1.0
C      1  0.5711380000000  0.4752050000000  0.4454070000000 1.0
C      1  0.4581540000000  0.4517130000000  0.5056300000000 1.0
C      1  0.5375310000000  0.4209840000000  0.5287620000000 1.0
C      1  0.4668440000000  0.4667450000000  0.4447430000000 1.0
C      1  0.5964850000000  0.5022490000000  0.5049300000000 1.0
C      1  0.5099080000000  0.5586540000000  0.5440370000000 1.0
C      1  0.5741680000000  0.4517550000000  0.4984750000000 1.0
C      1  0.4763620000000  0.4935830000000  0.4922990000000 1.0
C      1  0.5122460000000  0.5865680000000  0.4997830000000 1.0
C      1  0.5150030000000  0.4879860000000  0.5936480000000 1.0
C      1  0.4873080000000  0.5698870000000  0.5648080000000 1.0
C      1  0.5110510000000  0.4494660000000  0.4303210000000 1.0
C      1  0.4748480000000  0.4888460000000  0.4219580000000 1.0
C      1  0.4937230000000  0.5228970000000  0.4520650000000 1.0
C      1  0.4876710000000  0.4439490000000  0.4494020000000 1.0
C      1  0.5321420000000  0.5608400000000  0.4712890000000 1.0
C      1  0.4962130000000  0.5352850000000  0.5880220000000 1.0
C      1  0.5863130000000  0.5249020000000  0.4880280000000 1.0
C      1  0.5408710000000  0.5563730000000  0.5414690000000 1.0
C      1  0.5399050000000  0.5769870000000  0.4948620000000 1.0
C      1  0.4314670000000  0.5088440000000  0.4350800000000 1.0
C      1  0.4436200000000  0.5044520000000  0.4614680000000 1.0
C      1  0.4211080000000  0.4879930000000  0.4924490000000 1.0
C      1  0.4394070000000  0.4342810000000  0.4957870000000 1.0
C      1  0.5536910000000  0.5615810000000  0.5158890000000 1.0
C      1  0.4717760000000  0.5560670000000  0.4286160000000 1.0
C      1  0.5576820000000  0.4598740000000  0.5367950000000 1.0
C      1  0.5076460000000  0.5027380000000  0.4674180000000 1.0
C      1  0.5331190000000  0.5109890000000  0.4791790000000 1.0
C      1  0.5806460000000  0.4976450000000  0.5259810000000 1.0
C      1  0.4463720000000  0.5651000000000  0.5290760000000 1.0
C      1  0.5217810000000  0.5374790000000  0.4865180000000 1.0
C      1  0.4382200000000  0.5495760000000  0.4582300000000 1.0
C      1  0.4278220000000  0.5549710000000  0.4854920000000 1.0
C      1  0.5818400000000  0.5118870000000  0.4625060000000 1.0
END
