TITL C-883731-9874-344 -4.0144094290218 125000 -12479.1675530018 0 0 85 (C1) n - 1
REM
REM in /home/nfs/bkarasulu/CARBON/AIRSS/Generating-Clusters/ReaxFF-fromJPCA2015/Units_Real/with-SteepDescent/Only-C1/SD-CG/Try1-3A/FIRE-CG
REM
REM
REM
REM
REM
REM ./C.cell (11c1c37f851c82e70ff6c80c92926a4b)
REM
REM compiler GCC version 9.2.1 20190827 (Red Hat 9.2.1-1)
REM options -cpp -mtune=generic -march=x86-64 -g -O0 -fpre-include=/usr/include/finclude/math-vector-fortran.h
REM seed 310171141 -811039785 1295943920 -2083687306 2066368658 919119813 -1034530350 -2053270304 -1253722292 -1772961329 -332799498 -189359361 -798429697 340534750 -41594243 1800038792 -1404295946 -1464573656 536349440 903812764 1943032027 -468902168 -211979068 245573767 -757477338 -1082150835 -1382731790 470354077 -1984459095 989452853 1272384965 820661055 -928124005
REM
CELL 1.54180   50.00000   50.00000   50.00000   90.00000   90.00000   90.00000
LATT -1
SFAC C  
C      1  0.4707460000000  0.4953090000000  0.4627900000000 1.0
C      1  0.4296240000000  0.5172450000000  0.5433430000000 1.0
C      1  0.4648900000000  0.5431900000000  0.4181940000000 1.0
C      1  0.4387430000000  0.4874800000000  0.5024130000000 1.0
C      1  0.5348090000000  0.5792530000000  0.5695340000000 1.0
C      1  0.4885510000000  0.5075400000000  0.5761060000000 1.0
C      1  0.5158880000000  0.4971220000000  0.5223340000000 1.0
C      1  0.4815150000000  0.4613900000000  0.5541110000000 1.0
C      1  0.5608300000000  0.4951000000000  0.5368440000000 1.0
C      1  0.4812800000000  0.4719620000000  0.4260970000000 1.0
C      1  0.5339250000000  0.4282940000000  0.5053140000000 1.0
C      1  0.5727820000000  0.5227450000000  0.5393860000000 1.0
C      1  0.5046870000000  0.5640890000000  0.4840490000000 1.0
C      1  0.4917770000000  0.4696180000000  0.4920620000000 1.0
C      1  0.5733140000000  0.5398150000000  0.5139940000000 1.0
C      1  0.5055090000000  0.4263940000000  0.5212550000000 1.0
C      1  0.5411710000000  0.5069500000000  0.5180980000000 1.0
C      1  0.5560380000000  0.5268540000000  0.5638670000000 1.0
C      1  0.5064540000000  0.5313450000000  0.5763310000000 1.0
C      1  0.4384870000000  0.4624290000000  0.5194890000000 1.0
C      1  0.4608850000000  0.5449950000000  0.5038610000000 1.0
C      1  0.4573440000000  0.4739450000000  0.4495220000000 1.0
C      1  0.5050380000000  0.5514890000000  0.4291810000000 1.0
C      1  0.4662830000000  0.5669370000000  0.5185690000000 1.0
C      1  0.4549280000000  0.5317380000000  0.5512690000000 1.0
C      1  0.4197180000000  0.4909370000000  0.4780520000000 1.0
C      1  0.4529970000000  0.4493860000000  0.4704410000000 1.0
C      1  0.4461320000000  0.5392990000000  0.4387580000000 1.0
C      1  0.4898050000000  0.5789310000000  0.5064340000000 1.0
C      1  0.4214730000000  0.5095240000000  0.5158590000000 1.0
C      1  0.5437180000000  0.4598750000000  0.5040820000000 1.0
C      1  0.4735520000000  0.4419450000000  0.4907330000000 1.0
C      1  0.5546830000000  0.5567190000000  0.4980700000000 1.0
C      1  0.4524110000000  0.4666940000000  0.5457270000000 1.0
C      1  0.4705750000000  0.4928140000000  0.4911460000000 1.0
C      1  0.5588100000000  0.5018860000000  0.4949010000000 1.0
C      1  0.5606710000000  0.5405010000000  0.4737360000000 1.0
C      1  0.5563340000000  0.4461900000000  0.5468670000000 1.0
C      1  0.4977910000000  0.4970200000000  0.4548480000000 1.0
C      1  0.5334200000000  0.4594910000000  0.4516450000000 1.0
C      1  0.5555380000000  0.4776280000000  0.4532070000000 1.0
C      1  0.5056350000000  0.4669550000000  0.4647750000000 1.0
C      1  0.5610660000000  0.4672640000000  0.5276070000000 1.0
C      1  0.4410770000000  0.5503020000000  0.4914970000000 1.0
C      1  0.5576380000000  0.4760200000000  0.4822700000000 1.0
C      1  0.5129950000000  0.4709430000000  0.5139080000000 1.0
C      1  0.5511150000000  0.4226920000000  0.5305730000000 1.0
C      1  0.5152040000000  0.5195190000000  0.4661530000000 1.0
C      1  0.4705410000000  0.5556610000000  0.5457560000000 1.0
C      1  0.4291360000000  0.5218230000000  0.4491200000000 1.0
C      1  0.5038560000000  0.4025790000000  0.4873510000000 1.0
C      1  0.5264660000000  0.4393240000000  0.4320160000000 1.0
C      1  0.4961780000000  0.4789050000000  0.5732150000000 1.0
C      1  0.5487050000000  0.5032290000000  0.4379710000000 1.0
C      1  0.4908700000000  0.5289110000000  0.4177640000000 1.0
C      1  0.4320400000000  0.4916450000000  0.4519180000000 1.0
C      1  0.4972620000000  0.4482160000000  0.4243270000000 1.0
C      1  0.4773050000000  0.5662980000000  0.4335660000000 1.0
C      1  0.5143350000000  0.5751620000000  0.5480470000000 1.0
C      1  0.5301630000000  0.5722190000000  0.4994950000000 1.0
C      1  0.5242440000000  0.4842480000000  0.5746440000000 1.0
C      1  0.4115560000000  0.5166170000000  0.4894970000000 1.0
C      1  0.4851430000000  0.4156790000000  0.5037990000000 1.0
C      1  0.5415830000000  0.5259200000000  0.4567660000000 1.0
C      1  0.5017490000000  0.5351190000000  0.4851880000000 1.0
C      1  0.5141350000000  0.5817430000000  0.5203400000000 1.0
C      1  0.4963710000000  0.5548010000000  0.5593400000000 1.0
C      1  0.4423520000000  0.4448290000000  0.4965950000000 1.0
C      1  0.5141610000000  0.4216460000000  0.4524400000000 1.0
C      1  0.4914890000000  0.4416700000000  0.4523720000000 1.0
C      1  0.4982470000000  0.4982330000000  0.4211780000000 1.0
C      1  0.5784580000000  0.5232350000000  0.4902420000000 1.0
C      1  0.5007540000000  0.4509860000000  0.5354510000000 1.0
C      1  0.5274380000000  0.4134160000000  0.4775280000000 1.0
C      1  0.4771640000000  0.5124140000000  0.5491160000000 1.0
C      1  0.4993350000000  0.5688130000000  0.4516280000000 1.0
C      1  0.5421520000000  0.4585020000000  0.5736650000000 1.0
C      1  0.5308930000000  0.5137350000000  0.5740480000000 1.0
C      1  0.5290340000000  0.4974710000000  0.4178390000000 1.0
C      1  0.5297860000000  0.5623980000000  0.5834940000000 1.0
C      1  0.4398470000000  0.4916520000000  0.5501050000000 1.0
C      1  0.4943330000000  0.5133350000000  0.5265590000000 1.0
C      1  0.5402540000000  0.4427960000000  0.5934160000000 1.0
C      1  0.4226000000000  0.5394990000000  0.4736290000000 1.0
C      1  0.4822110000000  0.5215080000000  0.5012720000000 1.0
END
