TITL C-883738-3659-175 135.651575711226 125000 -23064.407955566 0 0 156 (C1) n - 1
REM
REM in /home/nfs/bkarasulu/CARBON/AIRSS/Generating-Clusters/ReaxFF-fromJPCA2015/Units_Real/with-SteepDescent/Only-C1/SD-CG/Try1-3A/FIRE-CG
REM
REM
REM
REM
REM
REM ./C.cell (11c1c37f851c82e70ff6c80c92926a4b)
REM
REM compiler GCC version 9.2.1 20190827 (Red Hat 9.2.1-1)
REM options -cpp -mtune=generic -march=x86-64 -g -O0 -fpre-include=/usr/include/finclude/math-vector-fortran.h
REM seed 1395811602 1570408579 1698525590 1157907322 1046564889 2046389426 2104889626 1533804532 289009713 -7248807 -1814261288 452450463 254870307 1007867489 -701114384 -2040610691 1459191224 -1415858830 -746848932 1013625590 -1353375054 1124526505 1266941865 721600708 -1456789864 -1313086506 874944410 -1953806808 -197033770 -1499881249 265969556 762324592 140631581
REM
CELL 1.54180   50.00000   50.00000   50.00000   90.00000   90.00000   90.00000
LATT -1
SFAC C  
C      1  0.5244510000000  0.5837320000000  0.5487950000000 1.0
C      1  0.5384580000000  0.4497470000000  0.5291740000000 1.0
C      1  0.5347710000000  0.5579990000000  0.4745150000000 1.0
C      1  0.4798070000000  0.5356510000000  0.5189150000000 1.0
C      1  0.5154540000000  0.5117810000000  0.3988250000000 1.0
C      1  0.4620480000000  0.5955070000000  0.5482960000000 1.0
C      1  0.4269200000000  0.5614490000000  0.5236520000000 1.0
C      1  0.5803570000000  0.5520660000000  0.4681050000000 1.0
C      1  0.5631010000000  0.4862310000000  0.5016630000000 1.0
C      1  0.5768550000000  0.5582000000000  0.4962180000000 1.0
C      1  0.5322270000000  0.5377690000000  0.5153270000000 1.0
C      1  0.4694500000000  0.4721550000000  0.5158200000000 1.0
C      1  0.4652460000000  0.5453090000000  0.4744280000000 1.0
C      1  0.5276500000000  0.4351030000000  0.4607570000000 1.0
C      1  0.5621440000000  0.4743820000000  0.5871090000000 1.0
C      1  0.4750140000000  0.4468910000000  0.4960170000000 1.0
C      1  0.5414620000000  0.4980800000000  0.4052710000000 1.0
C      1  0.4602520000000  0.6137250000000  0.5240740000000 1.0
C      1  0.4283630000000  0.4628270000000  0.4302070000000 1.0
C      1  0.5814320000000  0.4672690000000  0.5663140000000 1.0
C      1  0.5531710000000  0.5274350000000  0.5316620000000 1.0
C      1  0.5659470000000  0.4631910000000  0.4322760000000 1.0
C      1  0.5372290000000  0.4973840000000  0.6126710000000 1.0
C      1  0.5342390000000  0.4645600000000  0.5836830000000 1.0
C      1  0.4652360000000  0.4189890000000  0.5029790000000 1.0
C      1  0.5237160000000  0.5640430000000  0.4134660000000 1.0
C      1  0.5026830000000  0.5967510000000  0.4497340000000 1.0
C      1  0.5505080000000  0.5997630000000  0.4647970000000 1.0
C      1  0.5754180000000  0.4420850000000  0.5519150000000 1.0
C      1  0.4514710000000  0.5137300000000  0.5957490000000 1.0
C      1  0.5162940000000  0.5373150000000  0.4732190000000 1.0
C      1  0.5423080000000  0.4093260000000  0.5305520000000 1.0
C      1  0.4309100000000  0.4243600000000  0.4681650000000 1.0
C      1  0.5020110000000  0.4717590000000  0.3965550000000 1.0
C      1  0.4101680000000  0.5182950000000  0.5051930000000 1.0
C      1  0.5135600000000  0.4833760000000  0.6168110000000 1.0
C      1  0.4586330000000  0.5159970000000  0.5130340000000 1.0
C      1  0.5101770000000  0.5410670000000  0.3991350000000 1.0
C      1  0.5839970000000  0.5087910000000  0.4375720000000 1.0
C      1  0.5710020000000  0.4545680000000  0.5025400000000 1.0
C      1  0.4805940000000  0.5694550000000  0.4753880000000 1.0
C      1  0.5131380000000  0.3966590000000  0.4985060000000 1.0
C      1  0.5156620000000  0.3977620000000  0.5289970000000 1.0
C      1  0.5181450000000  0.4755570000000  0.5620060000000 1.0
C      1  0.4593890000000  0.5935940000000  0.5020290000000 1.0
C      1  0.5039520000000  0.5825430000000  0.4247590000000 1.0
C      1  0.5563560000000  0.5691690000000  0.4558290000000 1.0
C      1  0.5866450000000  0.4804580000000  0.4449670000000 1.0
C      1  0.4879400000000  0.5833090000000  0.5000800000000 1.0
C      1  0.6078890000000  0.4883540000000  0.4957270000000 1.0
C      1  0.5449670000000  0.4703780000000  0.4131090000000 1.0
C      1  0.4964840000000  0.4354270000000  0.5912940000000 1.0
C      1  0.4297600000000  0.5045450000000  0.5785740000000 1.0
C      1  0.4612690000000  0.4960680000000  0.4070160000000 1.0
C      1  0.4698460000000  0.4657460000000  0.5602400000000 1.0
C      1  0.4054850000000  0.4890840000000  0.4998880000000 1.0
C      1  0.5135040000000  0.4562730000000  0.6027030000000 1.0
C      1  0.5458680000000  0.4308680000000  0.5083530000000 1.0
C      1  0.4204620000000  0.4945280000000  0.4057990000000 1.0
C      1  0.4808590000000  0.4135950000000  0.4582380000000 1.0
C      1  0.5097020000000  0.5742220000000  0.5704350000000 1.0
C      1  0.4994610000000  0.5279310000000  0.5869540000000 1.0
C      1  0.5209680000000  0.4535600000000  0.4052230000000 1.0
C      1  0.4364450000000  0.5012680000000  0.4575200000000 1.0
C      1  0.4829050000000  0.5150600000000  0.4458460000000 1.0
C      1  0.4251420000000  0.4718910000000  0.5387890000000 1.0
C      1  0.5969600000000  0.5076950000000  0.5124710000000 1.0
C      1  0.5974280000000  0.4732990000000  0.4719340000000 1.0
C      1  0.4527490000000  0.4668560000000  0.5373950000000 1.0
C      1  0.5814680000000  0.4498020000000  0.4748700000000 1.0
C      1  0.4527140000000  0.4555620000000  0.5830980000000 1.0
C      1  0.4978150000000  0.4066790000000  0.5508180000000 1.0
C      1  0.5405090000000  0.4984370000000  0.4702460000000 1.0
C      1  0.4730380000000  0.4946030000000  0.5989440000000 1.0
C      1  0.5042060000000  0.4756150000000  0.4432740000000 1.0
C      1  0.5230420000000  0.6006580000000  0.4726300000000 1.0
C      1  0.4769440000000  0.5721280000000  0.4162290000000 1.0
C      1  0.5487550000000  0.5607450000000  0.4271120000000 1.0
C      1  0.5040880000000  0.4223210000000  0.4437260000000 1.0
C      1  0.4999780000000  0.4357980000000  0.4176830000000 1.0
C      1  0.4727610000000  0.4476780000000  0.4184370000000 1.0
C      1  0.5598790000000  0.4409280000000  0.4533770000000 1.0
C      1  0.5471840000000  0.5545330000000  0.4992390000000 1.0
C      1  0.4546700000000  0.5377830000000  0.5629610000000 1.0
C      1  0.4975930000000  0.5074140000000  0.6086790000000 1.0
C      1  0.4573890000000  0.4110710000000  0.4759560000000 1.0
C      1  0.4248170000000  0.5610950000000  0.4754700000000 1.0
C      1  0.5852060000000  0.5816360000000  0.5142210000000 1.0
C      1  0.5623630000000  0.5775490000000  0.5327530000000 1.0
C      1  0.4093140000000  0.4399280000000  0.5113990000000 1.0
C      1  0.5826640000000  0.5238440000000  0.4630480000000 1.0
C      1  0.6108710000000  0.4883030000000  0.5246440000000 1.0
C      1  0.4617310000000  0.4591480000000  0.4666580000000 1.0
C      1  0.5690820000000  0.5249000000000  0.5820900000000 1.0
C      1  0.5196490000000  0.4634850000000  0.4631350000000 1.0
C      1  0.4704930000000  0.4146580000000  0.5560370000000 1.0
C      1  0.5043070000000  0.4472690000000  0.4996860000000 1.0
C      1  0.5200020000000  0.5477190000000  0.5802410000000 1.0
C      1  0.4110040000000  0.5357820000000  0.4812770000000 1.0
C      1  0.5697090000000  0.5061650000000  0.5211450000000 1.0
C      1  0.5206920000000  0.3772910000000  0.4835910000000 1.0
C      1  0.4138550000000  0.5217860000000  0.4559510000000 1.0
C      1  0.4792840000000  0.4617750000000  0.4428870000000 1.0
C      1  0.4590400000000  0.5390870000000  0.5000940000000 1.0
C      1  0.4339540000000  0.5608640000000  0.4464610000000 1.0
C      1  0.4257410000000  0.5361960000000  0.4334720000000 1.0
C      1  0.5148490000000  0.5942960000000  0.5015800000000 1.0
C      1  0.4346120000000  0.5747120000000  0.4988050000000 1.0
C      1  0.5052340000000  0.5043210000000  0.4389880000000 1.0
C      1  0.4585290000000  0.4919680000000  0.5003390000000 1.0
C      1  0.4816870000000  0.5495930000000  0.3966670000000 1.0
C      1  0.5978650000000  0.4884550000000  0.5522780000000 1.0
C      1  0.4745970000000  0.5904790000000  0.4545990000000 1.0
C      1  0.4783260000000  0.4914570000000  0.5706660000000 1.0
C      1  0.4693430000000  0.5547370000000  0.5452870000000 1.0
C      1  0.5487100000000  0.5450360000000  0.5737340000000 1.0
C      1  0.4536170000000  0.4134180000000  0.5305240000000 1.0
C      1  0.5115450000000  0.4576250000000  0.5252350000000 1.0
C      1  0.5227550000000  0.4274760000000  0.4896280000000 1.0
C      1  0.4517900000000  0.4853080000000  0.4754380000000 1.0
C      1  0.5115450000000  0.4274980000000  0.5671140000000 1.0
C      1  0.4128200000000  0.4430460000000  0.4822770000000 1.0
C      1  0.4292870000000  0.4734400000000  0.5820750000000 1.0
C      1  0.5092550000000  0.4989930000000  0.5021810000000 1.0
C      1  0.4129810000000  0.4736340000000  0.5599090000000 1.0
C      1  0.5277890000000  0.5195470000000  0.4531950000000 1.0
C      1  0.5881750000000  0.4436330000000  0.5260470000000 1.0
C      1  0.4457000000000  0.5721840000000  0.5428990000000 1.0
C      1  0.5091530000000  0.5276570000000  0.5006000000000 1.0
C      1  0.4376750000000  0.5157480000000  0.4117830000000 1.0
C      1  0.5657380000000  0.5035390000000  0.4787010000000 1.0
C      1  0.5331770000000  0.5911880000000  0.5247910000000 1.0
C      1  0.5638250000000  0.5139500000000  0.4160330000000 1.0
C      1  0.4313040000000  0.5234940000000  0.5550650000000 1.0
C      1  0.4840770000000  0.5775090000000  0.5563520000000 1.0
C      1  0.5856470000000  0.5092870000000  0.5656020000000 1.0
C      1  0.4683860000000  0.4310990000000  0.5808620000000 1.0
C      1  0.4557960000000  0.5772530000000  0.4359780000000 1.0
C      1  0.5242510000000  0.4800910000000  0.4864460000000 1.0
C      1  0.4522620000000  0.4688900000000  0.4119030000000 1.0
C      1  0.4397920000000  0.4437470000000  0.4493650000000 1.0
C      1  0.5460160000000  0.4308890000000  0.5505390000000 1.0
C      1  0.4613700000000  0.5254210000000  0.4524570000000 1.0
C      1  0.5624230000000  0.5009120000000  0.6007950000000 1.0
C      1  0.4698880000000  0.5340730000000  0.5865790000000 1.0
C      1  0.4192920000000  0.5328420000000  0.5291840000000 1.0
C      1  0.4899190000000  0.4966570000000  0.3950250000000 1.0
C      1  0.5490780000000  0.5325090000000  0.4323320000000 1.0
C      1  0.4976200000000  0.4884280000000  0.5263090000000 1.0
C      1  0.5010970000000  0.4531880000000  0.5530570000000 1.0
C      1  0.5610070000000  0.5508050000000  0.5477700000000 1.0
C      1  0.5013970000000  0.4986790000000  0.5553940000000 1.0
C      1  0.4299660000000  0.4253850000000  0.5235550000000 1.0
C      1  0.4079610000000  0.4718830000000  0.4763200000000 1.0
C      1  0.4046710000000  0.4686860000000  0.5210500000000 1.0
C      1  0.4162780000000  0.4812910000000  0.4498880000000 1.0
END
