TITL C-883731-9874-179 -4.31335404629692 125000 -7526.25621407616 0 0 50 (C1) n - 1
REM
REM in /home/nfs/bkarasulu/CARBON/AIRSS/Generating-Clusters/ReaxFF-fromJPCA2015/Units_Real/with-SteepDescent/Only-C1/SD-CG/Try1-3A/FIRE-CG
REM
REM
REM
REM
REM
REM ./C.cell (11c1c37f851c82e70ff6c80c92926a4b)
REM
REM compiler GCC version 9.2.1 20190827 (Red Hat 9.2.1-1)
REM options -cpp -mtune=generic -march=x86-64 -g -O0 -fpre-include=/usr/include/finclude/math-vector-fortran.h
REM seed -552829032 1398679027 699088541 1423573238 -2101516561 -754914938 -1213082129 916699414 2021186452 -2030571817 -1114411872 1479145732 1102279931 223594147 -1603114871 512198615 1682822149 -284165235 885039221 -1359383985 -547314688 -1244301096 -235237853 1796433806 -1499298269 -673285313 368946614 2016224794 -1191797635 1100926558 -1898198461 -334604083 -1449151134
REM
CELL 1.54180   50.00000   50.00000   50.00000   90.00000   90.00000   90.00000
LATT -1
SFAC C  
C      1  0.5155620000000  0.4847070000000  0.4530030000000 1.0
C      1  0.5572200000000  0.4817140000000  0.5390610000000 1.0
C      1  0.4701410000000  0.4524820000000  0.4641480000000 1.0
C      1  0.4326640000000  0.5294530000000  0.5322420000000 1.0
C      1  0.5478820000000  0.4586560000000  0.4816130000000 1.0
C      1  0.5294180000000  0.5303570000000  0.4561890000000 1.0
C      1  0.4900660000000  0.4940650000000  0.4404720000000 1.0
C      1  0.4507930000000  0.4839830000000  0.5191490000000 1.0
C      1  0.5685760000000  0.4632560000000  0.5182400000000 1.0
C      1  0.4896290000000  0.4674780000000  0.5051060000000 1.0
C      1  0.4396400000000  0.4789070000000  0.4545530000000 1.0
C      1  0.5519010000000  0.4421980000000  0.5062980000000 1.0
C      1  0.4735080000000  0.5533470000000  0.5099410000000 1.0
C      1  0.4856760000000  0.4541460000000  0.5314030000000 1.0
C      1  0.5662600000000  0.5082250000000  0.5314130000000 1.0
C      1  0.4313510000000  0.4973790000000  0.4768380000000 1.0
C      1  0.4688940000000  0.5302430000000  0.4686620000000 1.0
C      1  0.4682190000000  0.4743030000000  0.4452670000000 1.0
C      1  0.5391460000000  0.5536980000000  0.5343490000000 1.0
C      1  0.5575870000000  0.5279370000000  0.4872940000000 1.0
C      1  0.5592690000000  0.5342260000000  0.5441860000000 1.0
C      1  0.5137000000000  0.4499840000000  0.5395680000000 1.0
C      1  0.4621180000000  0.4681170000000  0.5421870000000 1.0
C      1  0.5062490000000  0.4301430000000  0.5035260000000 1.0
C      1  0.5455110000000  0.5489210000000  0.4737310000000 1.0
C      1  0.4799340000000  0.4936550000000  0.5032300000000 1.0
C      1  0.4843830000000  0.5228170000000  0.4426730000000 1.0
C      1  0.5194630000000  0.5638810000000  0.5150410000000 1.0
C      1  0.4470040000000  0.5384500000000  0.5068870000000 1.0
C      1  0.4813390000000  0.5096040000000  0.5562350000000 1.0
C      1  0.5201150000000  0.5017380000000  0.5458270000000 1.0
C      1  0.5025700000000  0.5245680000000  0.5461880000000 1.0
C      1  0.5171040000000  0.5078290000000  0.4714990000000 1.0
C      1  0.4980560000000  0.4469490000000  0.4803000000000 1.0
C      1  0.5241070000000  0.5660310000000  0.4858360000000 1.0
C      1  0.4424980000000  0.5237570000000  0.4820850000000 1.0
C      1  0.4974200000000  0.5488810000000  0.5257220000000 1.0
C      1  0.5682380000000  0.4779040000000  0.4927920000000 1.0
C      1  0.5014160000000  0.5636800000000  0.4682150000000 1.0
C      1  0.5289070000000  0.4755070000000  0.5466250000000 1.0
C      1  0.4339400000000  0.4750360000000  0.4955660000000 1.0
C      1  0.4374480000000  0.5020380000000  0.5412560000000 1.0
C      1  0.5280950000000  0.4314800000000  0.5217100000000 1.0
C      1  0.5691150000000  0.5069470000000  0.5011470000000 1.0
C      1  0.5228280000000  0.4605680000000  0.4669450000000 1.0
C      1  0.5050930000000  0.5429360000000  0.4462580000000 1.0
C      1  0.4764230000000  0.5577360000000  0.4814920000000 1.0
C      1  0.4599090000000  0.4921900000000  0.5594610000000 1.0
C      1  0.4429920000000  0.4566510000000  0.4742130000000 1.0
C      1  0.4906200000000  0.5112430000000  0.4843600000000 1.0
END
