TITL C-884127-5181-198 -15.5122003641457 125000 -24752.3297384612 0 0 165 (C1) n - 1
REM
REM in /home/nfs/bkarasulu/CARBON/AIRSS/Generating-Clusters/ReaxFF-fromJPCA2015/Units_Real/with-SteepDescent/Only-C1/SD-CG/Try1-3A/FIRE-CG
REM
REM
REM
REM
REM
REM ./C.cell (11c1c37f851c82e70ff6c80c92926a4b)
REM
REM compiler GCC version 9.2.1 20190827 (Red Hat 9.2.1-1)
REM options -cpp -mtune=generic -march=x86-64 -g -O0 -fpre-include=/usr/include/finclude/math-vector-fortran.h
REM seed -206754923 -1042795517 -866609553 -91091026 489409768 366243644 241443547 -883849346 2052181639 -1576065436 1973553310 -560323872 -576684237 -2040051591 -633955597 -2053452335 987209565 -1612912440 -184194359 -1346714341 -278093427 35440178 -294173252 -1422832546 944302449 -1199456511 982114514 863486503 -1433194069 -1346659372 1980840621 -1983021922 269254916
REM
CELL 1.54180   50.00000   50.00000   50.00000   90.00000   90.00000   90.00000
LATT -1
SFAC C  
C      1  0.4509930000000  0.5055000000000  0.5788300000000 1.0
C      1  0.3975930000000  0.5300910000000  0.4840300000000 1.0
C      1  0.5008680000000  0.4107570000000  0.4953470000000 1.0
C      1  0.4449390000000  0.4261030000000  0.5260030000000 1.0
C      1  0.5114080000000  0.5547570000000  0.5302650000000 1.0
C      1  0.5343500000000  0.4683240000000  0.5879600000000 1.0
C      1  0.4397520000000  0.4639820000000  0.4303370000000 1.0
C      1  0.4848270000000  0.4680300000000  0.5550310000000 1.0
C      1  0.4436320000000  0.4410900000000  0.4087420000000 1.0
C      1  0.4433270000000  0.4524090000000  0.5659820000000 1.0
C      1  0.4720870000000  0.5334130000000  0.4062470000000 1.0
C      1  0.4434220000000  0.4204830000000  0.4786460000000 1.0
C      1  0.4742250000000  0.5815410000000  0.5070090000000 1.0
C      1  0.4760170000000  0.3883090000000  0.4546630000000 1.0
C      1  0.4154670000000  0.5012550000000  0.4397120000000 1.0
C      1  0.4054920000000  0.4838760000000  0.4606080000000 1.0
C      1  0.4723270000000  0.4578840000000  0.4900970000000 1.0
C      1  0.4830950000000  0.4904250000000  0.5150940000000 1.0
C      1  0.4518180000000  0.5087860000000  0.4822350000000 1.0
C      1  0.5012220000000  0.4016850000000  0.5585540000000 1.0
C      1  0.5184250000000  0.5463310000000  0.4987980000000 1.0
C      1  0.4543880000000  0.4291560000000  0.5525060000000 1.0
C      1  0.5561340000000  0.4987080000000  0.5251400000000 1.0
C      1  0.5023630000000  0.5212320000000  0.4956350000000 1.0
C      1  0.5762160000000  0.4342240000000  0.5221230000000 1.0
C      1  0.5593830000000  0.5691700000000  0.5221970000000 1.0
C      1  0.5141350000000  0.4643250000000  0.4512180000000 1.0
C      1  0.5832350000000  0.5733000000000  0.4787870000000 1.0
C      1  0.5230010000000  0.5150070000000  0.4019790000000 1.0
C      1  0.5501640000000  0.5428360000000  0.5098600000000 1.0
C      1  0.4785550000000  0.5757620000000  0.5694500000000 1.0
C      1  0.4813530000000  0.5385920000000  0.5937900000000 1.0
C      1  0.5712870000000  0.4456390000000  0.4947130000000 1.0
C      1  0.5355110000000  0.4197340000000  0.5710650000000 1.0
C      1  0.5458430000000  0.5239350000000  0.5303110000000 1.0
C      1  0.4993350000000  0.6086540000000  0.5401690000000 1.0
C      1  0.4627330000000  0.5535300000000  0.5781200000000 1.0
C      1  0.5658240000000  0.5252440000000  0.4887700000000 1.0
C      1  0.6019910000000  0.4853070000000  0.4653660000000 1.0
C      1  0.4666830000000  0.5534380000000  0.5180560000000 1.0
C      1  0.4686700000000  0.5503680000000  0.4464020000000 1.0
C      1  0.4598880000000  0.4106230000000  0.4563620000000 1.0
C      1  0.5477190000000  0.4402570000000  0.5851250000000 1.0
C      1  0.5266690000000  0.5330920000000  0.5759240000000 1.0
C      1  0.4413530000000  0.5067010000000  0.3980970000000 1.0
C      1  0.5084370000000  0.5740530000000  0.4479370000000 1.0
C      1  0.4909420000000  0.4518770000000  0.3974990000000 1.0
C      1  0.5209210000000  0.5437820000000  0.4095310000000 1.0
C      1  0.4713680000000  0.4340690000000  0.4066610000000 1.0
C      1  0.5859580000000  0.5443410000000  0.4745930000000 1.0
C      1  0.4882080000000  0.5116450000000  0.5409320000000 1.0
C      1  0.5452650000000  0.5160640000000  0.4671190000000 1.0
C      1  0.5648460000000  0.4381430000000  0.4412220000000 1.0
C      1  0.5026220000000  0.5070970000000  0.4481240000000 1.0
C      1  0.4990250000000  0.5965920000000  0.4674160000000 1.0
C      1  0.5587780000000  0.5729920000000  0.5517300000000 1.0
C      1  0.5282190000000  0.4232980000000  0.4269150000000 1.0
C      1  0.4455790000000  0.5674170000000  0.4433430000000 1.0
C      1  0.4721740000000  0.4869530000000  0.4883070000000 1.0
C      1  0.4945540000000  0.4403660000000  0.4986260000000 1.0
C      1  0.5265760000000  0.5359030000000  0.5472380000000 1.0
C      1  0.4536480000000  0.4548770000000  0.5152230000000 1.0
C      1  0.4729570000000  0.5907020000000  0.4791070000000 1.0
C      1  0.5583730000000  0.5628250000000  0.4401080000000 1.0
C      1  0.4247670000000  0.5140630000000  0.5792460000000 1.0
C      1  0.4658120000000  0.4891380000000  0.5945320000000 1.0
C      1  0.4201920000000  0.5180480000000  0.5245850000000 1.0
C      1  0.5648170000000  0.5851890000000  0.4591200000000 1.0
C      1  0.4761290000000  0.5001490000000  0.4437690000000 1.0
C      1  0.5662980000000  0.4261550000000  0.4681010000000 1.0
C      1  0.5017540000000  0.4448300000000  0.5271120000000 1.0
C      1  0.4054740000000  0.5553180000000  0.4948340000000 1.0
C      1  0.4278670000000  0.4656160000000  0.5034360000000 1.0
C      1  0.6140960000000  0.4894910000000  0.5367400000000 1.0
C      1  0.4831340000000  0.3968840000000  0.5380220000000 1.0
C      1  0.5284110000000  0.4808970000000  0.5621900000000 1.0
C      1  0.5702250000000  0.3952680000000  0.4951030000000 1.0
C      1  0.4455420000000  0.5819150000000  0.4685870000000 1.0
C      1  0.5803420000000  0.4884750000000  0.4471790000000 1.0
C      1  0.4102620000000  0.4934280000000  0.5647510000000 1.0
C      1  0.4048250000000  0.5444540000000  0.5226910000000 1.0
C      1  0.4679430000000  0.4735570000000  0.4411470000000 1.0
C      1  0.4087250000000  0.4634060000000  0.5272830000000 1.0
C      1  0.4260460000000  0.5784790000000  0.4892570000000 1.0
C      1  0.4199290000000  0.4676280000000  0.5549050000000 1.0
C      1  0.5410600000000  0.4951670000000  0.4154150000000 1.0
C      1  0.5753410000000  0.5393540000000  0.4475920000000 1.0
C      1  0.5488360000000  0.5206090000000  0.5907040000000 1.0
C      1  0.4711570000000  0.4711980000000  0.5312780000000 1.0
C      1  0.5413750000000  0.3982400000000  0.5245240000000 1.0
C      1  0.5107480000000  0.4704430000000  0.3917020000000 1.0
C      1  0.4424520000000  0.5264280000000  0.5421800000000 1.0
C      1  0.5721720000000  0.4983770000000  0.5023630000000 1.0
C      1  0.4929090000000  0.5533540000000  0.4079070000000 1.0
C      1  0.5792570000000  0.5525810000000  0.5606380000000 1.0
C      1  0.3928980000000  0.4850360000000  0.5170770000000 1.0
C      1  0.4805510000000  0.4261990000000  0.4380840000000 1.0
C      1  0.4287740000000  0.5294770000000  0.4112390000000 1.0
C      1  0.5988890000000  0.5413460000000  0.5137390000000 1.0
C      1  0.4600690000000  0.6006890000000  0.5241070000000 1.0
C      1  0.5899230000000  0.4752260000000  0.4934680000000 1.0
C      1  0.4727510000000  0.5296170000000  0.4931470000000 1.0
C      1  0.3969620000000  0.5019170000000  0.5397270000000 1.0
C      1  0.5469430000000  0.4724350000000  0.5395690000000 1.0
C      1  0.5007100000000  0.4996720000000  0.3915110000000 1.0
C      1  0.6085240000000  0.4797620000000  0.5164920000000 1.0
C      1  0.4855830000000  0.4241970000000  0.5493490000000 1.0
C      1  0.4732830000000  0.5096610000000  0.3911360000000 1.0
C      1  0.5704310000000  0.4516690000000  0.5440790000000 1.0
C      1  0.4519080000000  0.4085650000000  0.5042550000000 1.0
C      1  0.5140530000000  0.5872410000000  0.5299490000000 1.0
C      1  0.4618310000000  0.5226070000000  0.4358310000000 1.0
C      1  0.5286740000000  0.4015270000000  0.4984220000000 1.0
C      1  0.4813880000000  0.5470620000000  0.4719120000000 1.0
C      1  0.4400750000000  0.5652700000000  0.5303180000000 1.0
C      1  0.5976790000000  0.5374500000000  0.5409150000000 1.0
C      1  0.5488910000000  0.5978490000000  0.4804190000000 1.0
C      1  0.5069040000000  0.5554090000000  0.4726950000000 1.0
C      1  0.4611230000000  0.5092940000000  0.5531370000000 1.0
C      1  0.5678530000000  0.5868880000000  0.5010230000000 1.0
C      1  0.5081080000000  0.5498130000000  0.5916930000000 1.0
C      1  0.4200450000000  0.4599000000000  0.4563130000000 1.0
C      1  0.5172440000000  0.5117260000000  0.4720580000000 1.0
C      1  0.4278540000000  0.5452630000000  0.4353570000000 1.0
C      1  0.4278390000000  0.4454910000000  0.4793830000000 1.0
C      1  0.6067000000000  0.5100370000000  0.5546930000000 1.0
C      1  0.4171180000000  0.5573860000000  0.5459240000000 1.0
C      1  0.4336630000000  0.5406030000000  0.5668230000000 1.0
C      1  0.5063880000000  0.4092570000000  0.4350960000000 1.0
C      1  0.4848280000000  0.5684610000000  0.4311800000000 1.0
C      1  0.4669230000000  0.4655380000000  0.5774230000000 1.0
C      1  0.5375900000000  0.4673950000000  0.4038710000000 1.0
C      1  0.4002360000000  0.4990210000000  0.4880830000000 1.0
C      1  0.5276830000000  0.4551160000000  0.5209800000000 1.0
C      1  0.5734140000000  0.5368890000000  0.5847920000000 1.0
C      1  0.5202880000000  0.6049510000000  0.4848560000000 1.0
C      1  0.4876830000000  0.5417060000000  0.5355520000000 1.0
C      1  0.5613320000000  0.5131800000000  0.4426850000000 1.0
C      1  0.5344630000000  0.5768070000000  0.5668230000000 1.0
C      1  0.5006220000000  0.3785850000000  0.4450760000000 1.0
C      1  0.5727840000000  0.4786260000000  0.5830840000000 1.0
C      1  0.4868520000000  0.4544680000000  0.4485450000000 1.0
C      1  0.4293210000000  0.4984800000000  0.4987370000000 1.0
C      1  0.5022220000000  0.4905960000000  0.5570340000000 1.0
C      1  0.5319750000000  0.5615290000000  0.4294730000000 1.0
C      1  0.5371350000000  0.4636300000000  0.4692590000000 1.0
C      1  0.5187580000000  0.4881580000000  0.4342260000000 1.0
C      1  0.5296130000000  0.4003410000000  0.5526850000000 1.0
C      1  0.5894260000000  0.4950100000000  0.5697620000000 1.0
C      1  0.5140010000000  0.5007580000000  0.6055850000000 1.0
C      1  0.4870380000000  0.5085710000000  0.6019370000000 1.0
C      1  0.5618200000000  0.4652170000000  0.4520930000000 1.0
C      1  0.4333130000000  0.5896390000000  0.5156200000000 1.0
C      1  0.4739550000000  0.5978880000000  0.5502160000000 1.0
C      1  0.5728800000000  0.4514690000000  0.5729880000000 1.0
C      1  0.5457260000000  0.4417210000000  0.4174870000000 1.0
C      1  0.5088060000000  0.5758830000000  0.5790120000000 1.0
C      1  0.4790980000000  0.3974100000000  0.5094470000000 1.0
C      1  0.4273260000000  0.4881950000000  0.4161510000000 1.0
C      1  0.5702820000000  0.4046320000000  0.5220510000000 1.0
C      1  0.4359700000000  0.5208650000000  0.4509630000000 1.0
C      1  0.5505160000000  0.4027250000000  0.4763210000000 1.0
C      1  0.5420280000000  0.4931940000000  0.6037120000000 1.0
C      1  0.5160410000000  0.6096430000000  0.5139720000000 1.0
C      1  0.5423590000000  0.4531540000000  0.4954970000000 1.0
END
