TITL C-883732-77-239 55.8626982131593 125000 -15109.187094467 0 0 102 (C1) n - 1
REM
REM in /home/nfs/bkarasulu/CARBON/AIRSS/Generating-Clusters/ReaxFF-fromJPCA2015/Units_Real/with-SteepDescent/Only-C1/SD-CG/Try1-3A/FIRE-CG
REM
REM
REM
REM
REM
REM ./C.cell (11c1c37f851c82e70ff6c80c92926a4b)
REM
REM compiler GCC version 9.2.1 20190827 (Red Hat 9.2.1-1)
REM options -cpp -mtune=generic -march=x86-64 -g -O0 -fpre-include=/usr/include/finclude/math-vector-fortran.h
REM seed -454553471 -828500526 1367367200 -2085153866 1767881939 -1930346043 -195425078 -1354535612 1644847056 -182779493 -359047517 772640846 354106183 -94001703 -239498892 1371879760 -60901649 894258278 -1252991884 1549227385 -1720885332 -468218176 -1452533163 410502770 1677371438 1885369160 -1017432335 8767674 709910724 -1131861333 1968044200 854908349 -93690426
REM
CELL 1.54180   50.00000   50.00000   50.00000   90.00000   90.00000   90.00000
LATT -1
SFAC C  
C      1  0.4680160000000  0.5198700000000  0.5411700000000 1.0
C      1  0.4262360000000  0.5225190000000  0.4778480000000 1.0
C      1  0.5894920000000  0.4865790000000  0.4517970000000 1.0
C      1  0.5181270000000  0.4168480000000  0.4717900000000 1.0
C      1  0.5911290000000  0.5053230000000  0.4746550000000 1.0
C      1  0.5358090000000  0.4875240000000  0.5007240000000 1.0
C      1  0.4543630000000  0.4757860000000  0.5732280000000 1.0
C      1  0.5143750000000  0.4923770000000  0.5173330000000 1.0
C      1  0.4825410000000  0.5435520000000  0.4381060000000 1.0
C      1  0.5260420000000  0.5183850000000  0.4242340000000 1.0
C      1  0.4976520000000  0.5326770000000  0.4890700000000 1.0
C      1  0.5091500000000  0.4849210000000  0.5771070000000 1.0
C      1  0.4713130000000  0.4735400000000  0.4266440000000 1.0
C      1  0.4908650000000  0.5276730000000  0.4610540000000 1.0
C      1  0.4603530000000  0.5814850000000  0.4746020000000 1.0
C      1  0.5013110000000  0.4553290000000  0.4884160000000 1.0
C      1  0.5488420000000  0.4535470000000  0.5547300000000 1.0
C      1  0.4843190000000  0.4580160000000  0.4644630000000 1.0
C      1  0.4808650000000  0.4946930000000  0.5407560000000 1.0
C      1  0.4584290000000  0.4206820000000  0.4864570000000 1.0
C      1  0.4311890000000  0.5094390000000  0.5660000000000 1.0
C      1  0.5219670000000  0.4114820000000  0.4986600000000 1.0
C      1  0.4459550000000  0.5757330000000  0.4998020000000 1.0
C      1  0.5439100000000  0.4287810000000  0.5104930000000 1.0
C      1  0.5336960000000  0.4920010000000  0.4140620000000 1.0
C      1  0.5213600000000  0.5583660000000  0.5477740000000 1.0
C      1  0.5481920000000  0.5333180000000  0.4864480000000 1.0
C      1  0.5823930000000  0.4945940000000  0.5001700000000 1.0
C      1  0.5081470000000  0.4246480000000  0.5417050000000 1.0
C      1  0.4251510000000  0.5541210000000  0.5046860000000 1.0
C      1  0.4712920000000  0.4182840000000  0.5129170000000 1.0
C      1  0.4327370000000  0.4743890000000  0.5547870000000 1.0
C      1  0.4439430000000  0.5262400000000  0.4556750000000 1.0
C      1  0.5109970000000  0.5124900000000  0.5637430000000 1.0
C      1  0.4329270000000  0.4351310000000  0.4860890000000 1.0
C      1  0.4491830000000  0.5631160000000  0.5446390000000 1.0
C      1  0.4663790000000  0.4344500000000  0.4605770000000 1.0
C      1  0.5602290000000  0.4820150000000  0.4221840000000 1.0
C      1  0.4929860000000  0.4549330000000  0.4215760000000 1.0
C      1  0.4183290000000  0.5275150000000  0.5477250000000 1.0
C      1  0.4249220000000  0.4510890000000  0.5100800000000 1.0
C      1  0.5721550000000  0.4699100000000  0.5123770000000 1.0
C      1  0.5800830000000  0.5028270000000  0.4287300000000 1.0
C      1  0.4961260000000  0.5608460000000  0.5499710000000 1.0
C      1  0.5512910000000  0.5236860000000  0.5631030000000 1.0
C      1  0.5512510000000  0.4512880000000  0.4667650000000 1.0
C      1  0.5155150000000  0.4738160000000  0.4276170000000 1.0
C      1  0.5565690000000  0.4943750000000  0.5628250000000 1.0
C      1  0.4924110000000  0.5752900000000  0.5253420000000 1.0
C      1  0.5279020000000  0.4312490000000  0.4520540000000 1.0
C      1  0.4347790000000  0.5295900000000  0.5026060000000 1.0
C      1  0.4631080000000  0.5774580000000  0.5238320000000 1.0
C      1  0.5674410000000  0.4671860000000  0.4473620000000 1.0
C      1  0.4645900000000  0.4860940000000  0.5173870000000 1.0
C      1  0.5709560000000  0.5295090000000  0.4382240000000 1.0
C      1  0.4347400000000  0.4768560000000  0.4543710000000 1.0
C      1  0.5361860000000  0.4325120000000  0.5382160000000 1.0
C      1  0.5260340000000  0.4712970000000  0.4784920000000 1.0
C      1  0.5596410000000  0.4482160000000  0.4958240000000 1.0
C      1  0.5790620000000  0.5713890000000  0.5062880000000 1.0
C      1  0.5235770000000  0.5435300000000  0.4970990000000 1.0
C      1  0.5560380000000  0.5090210000000  0.5022600000000 1.0
C      1  0.5251700000000  0.5377770000000  0.5683720000000 1.0
C      1  0.4626930000000  0.4351990000000  0.5362060000000 1.0
C      1  0.5437900000000  0.5400110000000  0.4322360000000 1.0
C      1  0.4225400000000  0.4912650000000  0.4760730000000 1.0
C      1  0.4945460000000  0.4721130000000  0.5539370000000 1.0
C      1  0.4968520000000  0.5075370000000  0.5003030000000 1.0
C      1  0.4874020000000  0.4434790000000  0.5499460000000 1.0
C      1  0.5447610000000  0.5720800000000  0.4688920000000 1.0
C      1  0.5330380000000  0.5853200000000  0.4916000000000 1.0
C      1  0.4712800000000  0.5014160000000  0.4911670000000 1.0
C      1  0.5235910000000  0.5073880000000  0.5384600000000 1.0
C      1  0.5832030000000  0.5320880000000  0.4643340000000 1.0
C      1  0.4679530000000  0.5073120000000  0.6004240000000 1.0
C      1  0.4680550000000  0.4752170000000  0.4796400000000 1.0
C      1  0.5682450000000  0.5544490000000  0.4800340000000 1.0
C      1  0.4524800000000  0.4916010000000  0.4339540000000 1.0
C      1  0.4237650000000  0.5534080000000  0.5352090000000 1.0
C      1  0.4988540000000  0.4108710000000  0.5176350000000 1.0
C      1  0.4382860000000  0.5160720000000  0.5269520000000 1.0
C      1  0.5331870000000  0.5486490000000  0.5237090000000 1.0
C      1  0.5052440000000  0.5819260000000  0.4986040000000 1.0
C      1  0.4396500000000  0.4478790000000  0.4601470000000 1.0
C      1  0.4527540000000  0.5232250000000  0.5796890000000 1.0
C      1  0.4902330000000  0.5792470000000  0.4730280000000 1.0
C      1  0.5297850000000  0.5614750000000  0.4470400000000 1.0
C      1  0.5384460000000  0.4745840000000  0.5733840000000 1.0
C      1  0.4998600000000  0.5653350000000  0.4481410000000 1.0
C      1  0.4348900000000  0.4884580000000  0.5248470000000 1.0
C      1  0.5137800000000  0.4839980000000  0.4541900000000 1.0
C      1  0.4776760000000  0.4630910000000  0.5037960000000 1.0
C      1  0.4187040000000  0.4782910000000  0.5018030000000 1.0
C      1  0.4689080000000  0.5439450000000  0.5582130000000 1.0
C      1  0.4769300000000  0.4806930000000  0.5897390000000 1.0
C      1  0.5092900000000  0.5105770000000  0.4471290000000 1.0
C      1  0.5571470000000  0.5887050000000  0.5117280000000 1.0
C      1  0.5654600000000  0.4732360000000  0.5413380000000 1.0
C      1  0.5022870000000  0.4332260000000  0.4389920000000 1.0
C      1  0.4379420000000  0.4502310000000  0.5362080000000 1.0
C      1  0.5477710000000  0.5248430000000  0.5332650000000 1.0
C      1  0.4589820000000  0.5243810000000  0.4349140000000 1.0
END
