TITL C-883737-113-185 10.5693352859114 125000 -6265.65986297818 0 0 43 (C1) n - 1
REM
REM in /home/nfs/bkarasulu/CARBON/AIRSS/Generating-Clusters/ReaxFF-fromJPCA2015/Units_Real/with-SteepDescent/Only-C1/SD-CG/Try1-3A/FIRE-CG
REM
REM
REM
REM
REM
REM ./C.cell (11c1c37f851c82e70ff6c80c92926a4b)
REM
REM compiler GCC version 9.2.1 20190827 (Red Hat 9.2.1-1)
REM options -cpp -mtune=generic -march=x86-64 -g -O0 -fpre-include=/usr/include/finclude/math-vector-fortran.h
REM seed -1767166974 -81439263 -347347237 -1399704114 -1079567076 746481296 -2075517457 -505137356 -1585413233 -917760826 -96666389 456954691 -895333165 -1933087291 975009568 -666207568 -1540497716 -2110874889 1565617468 1263176776 1059021288 -602286092 -1909644376 -315269101 1148383145 -1773593091 2034768688 -2060433249 1160691663 1279444221 1953675283 -1127514435 -1392366223
REM
CELL 1.54180   50.00000   50.00000   50.00000   90.00000   90.00000   90.00000
LATT -1
SFAC C  
C      1  0.4996590000000  0.5477500000000  0.5422030000000 1.0
C      1  0.5111170000000  0.4990370000000  0.5470920000000 1.0
C      1  0.4732550000000  0.5460950000000  0.4649570000000 1.0
C      1  0.4296540000000  0.5363310000000  0.5221160000000 1.0
C      1  0.5403850000000  0.5269380000000  0.5183610000000 1.0
C      1  0.4519420000000  0.4620160000000  0.4907530000000 1.0
C      1  0.5022190000000  0.5332550000000  0.4746250000000 1.0
C      1  0.4431180000000  0.4737580000000  0.4669480000000 1.0
C      1  0.4493790000000  0.5016170000000  0.4751380000000 1.0
C      1  0.5459320000000  0.4701610000000  0.4711970000000 1.0
C      1  0.4732430000000  0.5643040000000  0.5023050000000 1.0
C      1  0.4326140000000  0.5546950000000  0.4995750000000 1.0
C      1  0.5495060000000  0.5424980000000  0.4970680000000 1.0
C      1  0.4828600000000  0.4575160000000  0.5334280000000 1.0
C      1  0.5479910000000  0.4660840000000  0.5378450000000 1.0
C      1  0.5294640000000  0.5369590000000  0.4603110000000 1.0
C      1  0.4819720000000  0.5649280000000  0.5281620000000 1.0
C      1  0.4558520000000  0.5246660000000  0.4559630000000 1.0
C      1  0.5174200000000  0.5258430000000  0.5364470000000 1.0
C      1  0.5563570000000  0.4562430000000  0.4921090000000 1.0
C      1  0.4712140000000  0.5023900000000  0.4951030000000 1.0
C      1  0.5468440000000  0.5142320000000  0.4570190000000 1.0
C      1  0.5335980000000  0.4393620000000  0.5327890000000 1.0
C      1  0.4716250000000  0.5461930000000  0.5463850000000 1.0
C      1  0.5130790000000  0.4374710000000  0.4941990000000 1.0
C      1  0.4536520000000  0.5253720000000  0.5371440000000 1.0
C      1  0.4852490000000  0.4858610000000  0.5395340000000 1.0
C      1  0.5343420000000  0.4871120000000  0.4532200000000 1.0
C      1  0.5379560000000  0.4341470000000  0.5036710000000 1.0
C      1  0.5262530000000  0.5490780000000  0.4866100000000 1.0
C      1  0.4967760000000  0.5038980000000  0.4812640000000 1.0
C      1  0.5563840000000  0.5041850000000  0.5069050000000 1.0
C      1  0.4881780000000  0.4407980000000  0.4847170000000 1.0
C      1  0.5609410000000  0.4765070000000  0.5139430000000 1.0
C      1  0.5057130000000  0.4400710000000  0.5419130000000 1.0
C      1  0.5051000000000  0.4844820000000  0.4617320000000 1.0
C      1  0.4693930000000  0.4486120000000  0.5075110000000 1.0
C      1  0.4625440000000  0.4618520000000  0.4459450000000 1.0
C      1  0.5609210000000  0.5199490000000  0.4819260000000 1.0
C      1  0.4885650000000  0.4596620000000  0.4592730000000 1.0
C      1  0.5325980000000  0.4823560000000  0.5436870000000 1.0
C      1  0.4584700000000  0.5632420000000  0.4845210000000 1.0
C      1  0.4666650000000  0.5024730000000  0.5243860000000 1.0
END
