TITL C-883732-77-156 -57.65598254892 125000 -5385.87220017702 0 0 36 (C1) n - 1
REM
REM in /home/nfs/bkarasulu/CARBON/AIRSS/Generating-Clusters/ReaxFF-fromJPCA2015/Units_Real/with-SteepDescent/Only-C1/SD-CG/Try1-3A/FIRE-CG
REM
REM
REM
REM
REM
REM ./C.cell (11c1c37f851c82e70ff6c80c92926a4b)
REM
REM compiler GCC version 9.2.1 20190827 (Red Hat 9.2.1-1)
REM options -cpp -mtune=generic -march=x86-64 -g -O0 -fpre-include=/usr/include/finclude/math-vector-fortran.h
REM seed 1563787470 8892232 -2099729216 1232834581 -307599894 1084100276 1939704565 1396918352 687412243 -1789705869 -1765132309 -736457781 1710211312 -203798237 -71795842 1058659367 -759324189 1825887611 680919000 -921817641 -899091654 -642155881 883731294 733830889 -1879971137 1713234410 -1255027390 881135212 1980506375 1085344444 32596358 802311603 -1264902187
REM
CELL 1.54180   50.00000   50.00000   50.00000   90.00000   90.00000   90.00000
LATT -1
SFAC C  
C      1  0.5298450000000  0.5620290000000  0.5450120000000 1.0
C      1  0.4553520000000  0.4974220000000  0.4615000000000 1.0
C      1  0.5145840000000  0.5247440000000  0.5543150000000 1.0
C      1  0.4487040000000  0.4593560000000  0.4971610000000 1.0
C      1  0.5311020000000  0.5521650000000  0.4671440000000 1.0
C      1  0.5397680000000  0.5705940000000  0.5210460000000 1.0
C      1  0.4953800000000  0.4784500000000  0.5460330000000 1.0
C      1  0.5187430000000  0.5475740000000  0.5624800000000 1.0
C      1  0.5138820000000  0.4348090000000  0.5012520000000 1.0
C      1  0.4599500000000  0.5218110000000  0.4788890000000 1.0
C      1  0.4360010000000  0.4735260000000  0.5217300000000 1.0
C      1  0.4972990000000  0.4895190000000  0.4450750000000 1.0
C      1  0.5281560000000  0.5495460000000  0.4976340000000 1.0
C      1  0.5410830000000  0.5208090000000  0.5002430000000 1.0
C      1  0.5291410000000  0.4492260000000  0.5222500000000 1.0
C      1  0.5453950000000  0.5110080000000  0.4499390000000 1.0
C      1  0.4683870000000  0.4456330000000  0.5084490000000 1.0
C      1  0.4900820000000  0.4330240000000  0.5201410000000 1.0
C      1  0.4666140000000  0.4849270000000  0.5481650000000 1.0
C      1  0.5138440000000  0.5011410000000  0.5399910000000 1.0
C      1  0.5049610000000  0.4518800000000  0.5390190000000 1.0
C      1  0.4963440000000  0.5507950000000  0.5002880000000 1.0
C      1  0.4488400000000  0.5000640000000  0.5266940000000 1.0
C      1  0.5304850000000  0.4989080000000  0.5150590000000 1.0
C      1  0.4847900000000  0.5406340000000  0.4763160000000 1.0
C      1  0.4546530000000  0.5114610000000  0.5026250000000 1.0
C      1  0.5328320000000  0.4720250000000  0.5032630000000 1.0
C      1  0.4448770000000  0.4636660000000  0.5491630000000 1.0
C      1  0.5573140000000  0.5149750000000  0.4769330000000 1.0
C      1  0.4928280000000  0.4706420000000  0.4679290000000 1.0
C      1  0.5148300000000  0.4586630000000  0.4835550000000 1.0
C      1  0.5166910000000  0.5125860000000  0.4457930000000 1.0
C      1  0.5547060000000  0.5376440000000  0.4581930000000 1.0
C      1  0.5078830000000  0.5384900000000  0.4567570000000 1.0
C      1  0.4701410000000  0.4977910000000  0.4351600000000 1.0
C      1  0.4645100000000  0.4724650000000  0.4748030000000 1.0
END
