TITL C-883728-9229-243 10.5544621918147 125000 -19189.1159477238 0 0 128 (C1) n - 1
REM
REM in /home/nfs/bkarasulu/CARBON/AIRSS/Generating-Clusters/ReaxFF-fromJPCA2015/Units_Real/with-SteepDescent/Only-C1/SD-CG/Try1-3A/FIRE-CG
REM
REM
REM
REM
REM
REM ./C.cell (11c1c37f851c82e70ff6c80c92926a4b)
REM
REM compiler GCC version 9.2.1 20190827 (Red Hat 9.2.1-1)
REM options -cpp -mtune=generic -march=x86-64 -g -O0 -fpre-include=/usr/include/finclude/math-vector-fortran.h
REM seed -2082434033 -1731484660 1314966864 1697596804 1840138959 1433410859 -1967618985 1705687164 -971849959 868884438 -313110924 9503410 -1415505071 2100426768 -1404419195 1296757255 181551084 -126622991 -1793236238 -624581766 -1499866412 914953781 -1864303540 -1536845281 134645057 -1921097798 -1249265832 1013973868 983280724 -1111518854 535601736 544741534 1467309214
REM
CELL 1.54180   50.00000   50.00000   50.00000   90.00000   90.00000   90.00000
LATT -1
SFAC C  
C      1  0.5277100000000  0.5177290000000  0.5246160000000 1.0
C      1  0.5141380000000  0.5992150000000  0.4749190000000 1.0
C      1  0.4370340000000  0.4543820000000  0.4835540000000 1.0
C      1  0.5240320000000  0.5431510000000  0.4230680000000 1.0
C      1  0.4515860000000  0.4309340000000  0.4503640000000 1.0
C      1  0.5212810000000  0.5708950000000  0.4319630000000 1.0
C      1  0.5587570000000  0.5458540000000  0.4581400000000 1.0
C      1  0.5317710000000  0.4219830000000  0.5391080000000 1.0
C      1  0.3961830000000  0.5268050000000  0.5281430000000 1.0
C      1  0.4288320000000  0.5718520000000  0.5168900000000 1.0
C      1  0.4351970000000  0.5207730000000  0.5619930000000 1.0
C      1  0.4938200000000  0.5015190000000  0.4162950000000 1.0
C      1  0.5494430000000  0.5774740000000  0.4974620000000 1.0
C      1  0.4866010000000  0.4738060000000  0.5438110000000 1.0
C      1  0.5341680000000  0.4368360000000  0.4410840000000 1.0
C      1  0.5197370000000  0.5409020000000  0.5849610000000 1.0
C      1  0.4545160000000  0.5681970000000  0.4572130000000 1.0
C      1  0.4809130000000  0.5237950000000  0.4661600000000 1.0
C      1  0.4608120000000  0.4983630000000  0.5970120000000 1.0
C      1  0.5824560000000  0.5145810000000  0.4380830000000 1.0
C      1  0.5698170000000  0.5374830000000  0.5067220000000 1.0
C      1  0.4236050000000  0.4924930000000  0.5629250000000 1.0
C      1  0.5609150000000  0.5423510000000  0.5573240000000 1.0
C      1  0.5178820000000  0.4956980000000  0.4882250000000 1.0
C      1  0.4487250000000  0.5512550000000  0.4295720000000 1.0
C      1  0.4987820000000  0.4739720000000  0.5987500000000 1.0
C      1  0.5617050000000  0.4587470000000  0.5599220000000 1.0
C      1  0.4220650000000  0.4960190000000  0.4752930000000 1.0
C      1  0.5016710000000  0.5641430000000  0.5117150000000 1.0
C      1  0.4754790000000  0.4562910000000  0.3997130000000 1.0
C      1  0.4722250000000  0.4763440000000  0.5168500000000 1.0
C      1  0.4826760000000  0.5182960000000  0.6000260000000 1.0
C      1  0.4700940000000  0.5356850000000  0.4205790000000 1.0
C      1  0.5120310000000  0.4793660000000  0.5503490000000 1.0
C      1  0.4365970000000  0.4255220000000  0.4746290000000 1.0
C      1  0.4613440000000  0.5430720000000  0.5015400000000 1.0
C      1  0.4735930000000  0.5663880000000  0.5064990000000 1.0
C      1  0.5213370000000  0.5228420000000  0.4977430000000 1.0
C      1  0.4416380000000  0.5897180000000  0.4754270000000 1.0
C      1  0.5477200000000  0.4725210000000  0.5805030000000 1.0
C      1  0.5722450000000  0.4306310000000  0.4939150000000 1.0
C      1  0.5557110000000  0.5612240000000  0.5208730000000 1.0
C      1  0.4760480000000  0.4863480000000  0.4360740000000 1.0
C      1  0.4665550000000  0.5225700000000  0.5214650000000 1.0
C      1  0.3966170000000  0.4840390000000  0.5524350000000 1.0
C      1  0.5011100000000  0.4498230000000  0.4764710000000 1.0
C      1  0.4660170000000  0.4553490000000  0.4989890000000 1.0
C      1  0.5500480000000  0.4813200000000  0.4148850000000 1.0
C      1  0.4784160000000  0.4209520000000  0.5356970000000 1.0
C      1  0.5261420000000  0.4996180000000  0.4425210000000 1.0
C      1  0.5652690000000  0.5067470000000  0.4163600000000 1.0
C      1  0.4583310000000  0.5319900000000  0.5490620000000 1.0
C      1  0.5021160000000  0.4553380000000  0.4126600000000 1.0
C      1  0.5179820000000  0.4632840000000  0.5789610000000 1.0
C      1  0.5832590000000  0.5042970000000  0.5418900000000 1.0
C      1  0.4969160000000  0.5302610000000  0.4136820000000 1.0
C      1  0.4571850000000  0.5834750000000  0.5212240000000 1.0
C      1  0.5695840000000  0.5297900000000  0.4795430000000 1.0
C      1  0.5567910000000  0.4616410000000  0.4352670000000 1.0
C      1  0.5753470000000  0.4358620000000  0.5223770000000 1.0
C      1  0.5259920000000  0.5273560000000  0.4459670000000 1.0
C      1  0.5183120000000  0.4840640000000  0.4160590000000 1.0
C      1  0.5393820000000  0.5565100000000  0.5677360000000 1.0
C      1  0.4007210000000  0.4982720000000  0.5260310000000 1.0
C      1  0.4881230000000  0.4187090000000  0.4754350000000 1.0
C      1  0.5323660000000  0.5876330000000  0.4539190000000 1.0
C      1  0.4842310000000  0.6023360000000  0.4743140000000 1.0
C      1  0.4189450000000  0.5438860000000  0.5155910000000 1.0
C      1  0.4730030000000  0.4552050000000  0.5657990000000 1.0
C      1  0.4804500000000  0.4236840000000  0.4474990000000 1.0
C      1  0.5432630000000  0.4126000000000  0.4589170000000 1.0
C      1  0.4247090000000  0.4571480000000  0.5091830000000 1.0
C      1  0.4589650000000  0.5414730000000  0.4733250000000 1.0
C      1  0.4149260000000  0.5462680000000  0.4866320000000 1.0
C      1  0.4994820000000  0.4420600000000  0.5721340000000 1.0
C      1  0.5964760000000  0.4701380000000  0.4977620000000 1.0
C      1  0.5304280000000  0.4838290000000  0.4644940000000 1.0
C      1  0.4346810000000  0.4363640000000  0.5266220000000 1.0
C      1  0.4347090000000  0.5306560000000  0.4420750000000 1.0
C      1  0.5033010000000  0.4344870000000  0.4319240000000 1.0
C      1  0.5880120000000  0.4603810000000  0.5224920000000 1.0
C      1  0.5723900000000  0.4772810000000  0.5392660000000 1.0
C      1  0.4407420000000  0.4565150000000  0.4399150000000 1.0
C      1  0.4407650000000  0.4194710000000  0.5027120000000 1.0
C      1  0.5733310000000  0.4702150000000  0.4572530000000 1.0
C      1  0.5833270000000  0.4530870000000  0.4781650000000 1.0
C      1  0.5056150000000  0.5017570000000  0.6055560000000 1.0
C      1  0.5493470000000  0.4147350000000  0.4865360000000 1.0
C      1  0.5818610000000  0.5000480000000  0.4648250000000 1.0
C      1  0.5517190000000  0.5006250000000  0.5834640000000 1.0
C      1  0.4712660000000  0.4720870000000  0.5915820000000 1.0
C      1  0.4790790000000  0.5821460000000  0.4545510000000 1.0
C      1  0.4787990000000  0.5761430000000  0.5449170000000 1.0
C      1  0.4203710000000  0.5238470000000  0.4661570000000 1.0
C      1  0.4910990000000  0.5417080000000  0.5844000000000 1.0
C      1  0.5349540000000  0.5689750000000  0.5412910000000 1.0
C      1  0.5146320000000  0.4504640000000  0.5026310000000 1.0
C      1  0.5065170000000  0.5792890000000  0.5375620000000 1.0
C      1  0.5064590000000  0.5384790000000  0.4637630000000 1.0
C      1  0.4612400000000  0.6014370000000  0.4930010000000 1.0
C      1  0.5529060000000  0.5734910000000  0.4680060000000 1.0
C      1  0.5876940000000  0.5156650000000  0.5151660000000 1.0
C      1  0.4834610000000  0.4746100000000  0.4620130000000 1.0
C      1  0.4563690000000  0.4347020000000  0.5466040000000 1.0
C      1  0.4740210000000  0.5533950000000  0.5620400000000 1.0
C      1  0.4994140000000  0.5632780000000  0.4492950000000 1.0
C      1  0.5567720000000  0.4344610000000  0.5445660000000 1.0
C      1  0.4525580000000  0.4973300000000  0.5149950000000 1.0
C      1  0.4867780000000  0.4973750000000  0.4767570000000 1.0
C      1  0.4250130000000  0.4875740000000  0.5068520000000 1.0
C      1  0.5033580000000  0.5318420000000  0.5171810000000 1.0
C      1  0.5217630000000  0.5860880000000  0.4989970000000 1.0
C      1  0.5268460000000  0.4222840000000  0.5106350000000 1.0
C      1  0.5947920000000  0.4984670000000  0.4918340000000 1.0
C      1  0.4574490000000  0.4700050000000  0.4202530000000 1.0
C      1  0.5295390000000  0.5153730000000  0.5954480000000 1.0
C      1  0.5701650000000  0.5170760000000  0.5648870000000 1.0
C      1  0.5620850000000  0.5338360000000  0.4295280000000 1.0
C      1  0.4195620000000  0.5759650000000  0.4891560000000 1.0
C      1  0.5334100000000  0.4898010000000  0.5330870000000 1.0
C      1  0.4704840000000  0.4269700000000  0.5034090000000 1.0
C      1  0.5267240000000  0.4557400000000  0.4627780000000 1.0
C      1  0.4279240000000  0.4730770000000  0.4605880000000 1.0
C      1  0.5058020000000  0.4014260000000  0.5150610000000 1.0
C      1  0.4343900000000  0.5058300000000  0.5869360000000 1.0
C      1  0.4973180000000  0.3917490000000  0.4894930000000 1.0
C      1  0.5045580000000  0.4242040000000  0.5501090000000 1.0
C      1  0.5242790000000  0.4752050000000  0.5093670000000 1.0
END
