TITL C-884137-4758-275 20.0697451137991 125000 -9046.00054461645 0 0 62 (C1) n - 1
REM
REM in /home/nfs/bkarasulu/CARBON/AIRSS/Generating-Clusters/ReaxFF-fromJPCA2015/Units_Real/with-SteepDescent/Only-C1/SD-CG/Try1-3A/FIRE-CG
REM
REM
REM
REM
REM
REM ./C.cell (11c1c37f851c82e70ff6c80c92926a4b)
REM
REM compiler GCC version 9.2.1 20190827 (Red Hat 9.2.1-1)
REM options -cpp -mtune=generic -march=x86-64 -g -O0 -fpre-include=/usr/include/finclude/math-vector-fortran.h
REM seed 499344249 1610158175 -163033182 1668640324 1699208118 -1562654018 555385367 -499463262 -660390720 -1764736461 -1351748744 -1798455988 -1781679476 23835397 -1198782996 541963209 -1599541521 600916305 -783244942 472277949 589952976 -515621037 -1145700011 -170310102 -1128707361 -1622721316 1940952866 -670188863 -1344898629 -1197768399 -1816130245 852522161 281234520
REM
CELL 1.54180   50.00000   50.00000   50.00000   90.00000   90.00000   90.00000
LATT -1
SFAC C  
C      1  0.4865720000000  0.5225850000000  0.5741740000000 1.0
C      1  0.4415860000000  0.4743670000000  0.4706590000000 1.0
C      1  0.5288700000000  0.4970250000000  0.5707070000000 1.0
C      1  0.5398430000000  0.4529060000000  0.4592140000000 1.0
C      1  0.4611310000000  0.5118980000000  0.4536540000000 1.0
C      1  0.5200470000000  0.5885990000000  0.4883390000000 1.0
C      1  0.5144190000000  0.4348150000000  0.4542970000000 1.0
C      1  0.4346180000000  0.4715260000000  0.5294270000000 1.0
C      1  0.4259570000000  0.4966190000000  0.5162160000000 1.0
C      1  0.5293800000000  0.5023790000000  0.5119960000000 1.0
C      1  0.5484090000000  0.4869670000000  0.5526750000000 1.0
C      1  0.4483870000000  0.4874190000000  0.5498580000000 1.0
C      1  0.4996690000000  0.4979630000000  0.5748310000000 1.0
C      1  0.5255680000000  0.5504340000000  0.4540300000000 1.0
C      1  0.5428770000000  0.4805380000000  0.4449930000000 1.0
C      1  0.4839750000000  0.4961730000000  0.4903810000000 1.0
C      1  0.4762600000000  0.5388270000000  0.5539820000000 1.0
C      1  0.4965280000000  0.4319370000000  0.5305250000000 1.0
C      1  0.4596170000000  0.5124450000000  0.4834490000000 1.0
C      1  0.5202070000000  0.5589160000000  0.5234930000000 1.0
C      1  0.5033720000000  0.5799780000000  0.5114260000000 1.0
C      1  0.5421260000000  0.5273710000000  0.4476400000000 1.0
C      1  0.5008330000000  0.4988760000000  0.4322370000000 1.0
C      1  0.4782950000000  0.4446190000000  0.4726340000000 1.0
C      1  0.4659790000000  0.5507330000000  0.4944170000000 1.0
C      1  0.5490960000000  0.5545560000000  0.5191930000000 1.0
C      1  0.5552190000000  0.5515590000000  0.4893150000000 1.0
C      1  0.4476410000000  0.4495960000000  0.5139170000000 1.0
C      1  0.4902070000000  0.4472650000000  0.4440240000000 1.0
C      1  0.5304990000000  0.5032440000000  0.4322800000000 1.0
C      1  0.4348950000000  0.4971690000000  0.4883590000000 1.0
C      1  0.5489760000000  0.5013520000000  0.4890520000000 1.0
C      1  0.4522860000000  0.5584840000000  0.5200440000000 1.0
C      1  0.5018890000000  0.4908730000000  0.5125970000000 1.0
C      1  0.4912540000000  0.4975150000000  0.5357980000000 1.0
C      1  0.5295060000000  0.4899600000000  0.4694520000000 1.0
C      1  0.4490530000000  0.5399370000000  0.5423960000000 1.0
C      1  0.4381430000000  0.5125990000000  0.5391820000000 1.0
C      1  0.4865980000000  0.5217970000000  0.4434470000000 1.0
C      1  0.4995970000000  0.5397260000000  0.4628580000000 1.0
C      1  0.5393830000000  0.4460110000000  0.5098710000000 1.0
C      1  0.4577200000000  0.4839250000000  0.4472120000000 1.0
C      1  0.4507090000000  0.4514720000000  0.4854280000000 1.0
C      1  0.5143350000000  0.4318870000000  0.5066060000000 1.0
C      1  0.5454740000000  0.4782150000000  0.5235980000000 1.0
C      1  0.4921570000000  0.5368170000000  0.4910630000000 1.0
C      1  0.4736600000000  0.5751630000000  0.5089570000000 1.0
C      1  0.5645620000000  0.4769170000000  0.5005560000000 1.0
C      1  0.4834950000000  0.4749710000000  0.4356460000000 1.0
C      1  0.4839620000000  0.4501230000000  0.5492400000000 1.0
C      1  0.5518520000000  0.5157250000000  0.5585670000000 1.0
C      1  0.5101660000000  0.5338080000000  0.5132980000000 1.0
C      1  0.5025320000000  0.4270820000000  0.4795020000000 1.0
C      1  0.4787890000000  0.4802590000000  0.5544110000000 1.0
C      1  0.4670020000000  0.4352540000000  0.5313860000000 1.0
C      1  0.5556180000000  0.4527620000000  0.4877620000000 1.0
C      1  0.4944900000000  0.4734030000000  0.4769040000000 1.0
C      1  0.5380450000000  0.5694590000000  0.4740070000000 1.0
C      1  0.5564280000000  0.5278420000000  0.4729570000000 1.0
C      1  0.5205550000000  0.4672530000000  0.4771200000000 1.0
C      1  0.5508960000000  0.5353620000000  0.5391750000000 1.0
C      1  0.4887860000000  0.5247400000000  0.5295600000000 1.0
END
