TITL C-884141-4321-86 1.20283267586667 125000 -3085.90393758898 0 0 22 (C1) n - 1
REM
REM in /home/nfs/bkarasulu/CARBON/AIRSS/Generating-Clusters/ReaxFF-fromJPCA2015/Units_Real/with-SteepDescent/Only-C1/SD-CG/Try1-3A/FIRE-CG
REM
REM
REM
REM
REM
REM ./C.cell (11c1c37f851c82e70ff6c80c92926a4b)
REM
REM compiler GCC version 9.2.1 20190827 (Red Hat 9.2.1-1)
REM options -cpp -mtune=generic -march=x86-64 -g -O0 -fpre-include=/usr/include/finclude/math-vector-fortran.h
REM seed 394593854 -702842730 -624990289 1681739389 1919702836 1294714421 -329254831 1587689147 1942878826 325660672 -1355430322 1297237239 250243035 -347082959 560362201 -1678646291 -1293205484 866189839 -1725430208 922188419 -725751472 -1324298304 -898769341 500626135 1557928928 1406516855 -605016717 1665344745 -896858158 -1509888589 -731558895 -1893877752 1009310472
REM
CELL 1.54180   50.00000   50.00000   50.00000   90.00000   90.00000   90.00000
LATT -1
SFAC C  
C      1  0.4850850000000  0.5171940000000  0.4854150000000 1.0
C      1  0.4815820000000  0.4421420000000  0.4492330000000 1.0
C      1  0.5245670000000  0.5025700000000  0.5346920000000 1.0
C      1  0.4953830000000  0.5454680000000  0.5260730000000 1.0
C      1  0.5069880000000  0.4930080000000  0.5565670000000 1.0
C      1  0.5283390000000  0.4573450000000  0.4663330000000 1.0
C      1  0.4716560000000  0.4948050000000  0.4970580000000 1.0
C      1  0.5050380000000  0.4470680000000  0.4554380000000 1.0
C      1  0.4826560000000  0.4835470000000  0.5404460000000 1.0
C      1  0.5228740000000  0.5322620000000  0.5279720000000 1.0
C      1  0.4707380000000  0.5301140000000  0.5358570000000 1.0
C      1  0.5340150000000  0.5062830000000  0.4799640000000 1.0
C      1  0.4638500000000  0.5029770000000  0.5285060000000 1.0
C      1  0.4650220000000  0.4570080000000  0.4612330000000 1.0
C      1  0.5404680000000  0.5423830000000  0.5065070000000 1.0
C      1  0.4919480000000  0.4764370000000  0.5140060000000 1.0
C      1  0.5347370000000  0.4804280000000  0.4870070000000 1.0
C      1  0.4915500000000  0.5593880000000  0.5003210000000 1.0
C      1  0.5205420000000  0.4816790000000  0.5131850000000 1.0
C      1  0.4531740000000  0.4751270000000  0.4767740000000 1.0
C      1  0.4996930000000  0.5391830000000  0.4783530000000 1.0
C      1  0.5300950000000  0.5335830000000  0.4790580000000 1.0
END
