TITL C-884139-6216-162 9.30917408634719 125000 -26292.062723038 0 0 176 (C1) n - 1
REM
REM in /home/nfs/bkarasulu/CARBON/AIRSS/Generating-Clusters/ReaxFF-fromJPCA2015/Units_Real/with-SteepDescent/Only-C1/SD-CG/Try1-3A/FIRE-CG
REM
REM
REM
REM
REM
REM ./C.cell (11c1c37f851c82e70ff6c80c92926a4b)
REM
REM compiler GCC version 9.2.1 20190827 (Red Hat 9.2.1-1)
REM options -cpp -mtune=generic -march=x86-64 -g -O0 -fpre-include=/usr/include/finclude/math-vector-fortran.h
REM seed -1435086609 -826076860 106260482 -1905769135 1148629585 1810581183 1281650633 312478390 675536082 -696685887 -307584787 227816909 -1514841372 1078658366 -80757126 1809394704 62957264 -968890578 299980297 1467593002 -1249190002 2129164730 -1109473205 -167164024 2097753206 347270820 -237475598 1417629344 -1340357733 723887763 831795679 -1595189642 311009088
REM
CELL 1.54180   50.00000   50.00000   50.00000   90.00000   90.00000   90.00000
LATT -1
SFAC C  
C      1  0.5491370000000  0.4638440000000  0.5731140000000 1.0
C      1  0.5624940000000  0.4862690000000  0.5614830000000 1.0
C      1  0.4151050000000  0.4273450000000  0.5007980000000 1.0
C      1  0.4863640000000  0.5494560000000  0.4938570000000 1.0
C      1  0.5236910000000  0.4629580000000  0.4560620000000 1.0
C      1  0.5059210000000  0.5497780000000  0.3957390000000 1.0
C      1  0.4262320000000  0.5241520000000  0.5542170000000 1.0
C      1  0.4900290000000  0.5981690000000  0.4913460000000 1.0
C      1  0.4059350000000  0.4845140000000  0.4478420000000 1.0
C      1  0.5033030000000  0.4682220000000  0.5853940000000 1.0
C      1  0.6016170000000  0.4173890000000  0.5269350000000 1.0
C      1  0.4777190000000  0.6023400000000  0.5180420000000 1.0
C      1  0.4970390000000  0.6065490000000  0.5388660000000 1.0
C      1  0.5528490000000  0.5791970000000  0.5052070000000 1.0
C      1  0.4083100000000  0.4423940000000  0.5262920000000 1.0
C      1  0.5584240000000  0.4949510000000  0.3862040000000 1.0
C      1  0.5292720000000  0.4982610000000  0.3873880000000 1.0
C      1  0.4170140000000  0.5501680000000  0.4720230000000 1.0
C      1  0.4547400000000  0.4960000000000  0.6090700000000 1.0
C      1  0.4959190000000  0.3834820000000  0.4775330000000 1.0
C      1  0.3915390000000  0.5155920000000  0.5137900000000 1.0
C      1  0.4756670000000  0.5398130000000  0.5501920000000 1.0
C      1  0.6145490000000  0.5126480000000  0.4753770000000 1.0
C      1  0.5262280000000  0.6024910000000  0.5363930000000 1.0
C      1  0.5440060000000  0.4370540000000  0.5661160000000 1.0
C      1  0.5923840000000  0.4375920000000  0.4927960000000 1.0
C      1  0.4327940000000  0.4878510000000  0.4781590000000 1.0
C      1  0.4958310000000  0.4637170000000  0.4581830000000 1.0
C      1  0.5103620000000  0.5226000000000  0.3910800000000 1.0
C      1  0.5412450000000  0.4902230000000  0.6093530000000 1.0
C      1  0.4925190000000  0.5707430000000  0.4093560000000 1.0
C      1  0.4236840000000  0.5762170000000  0.4613970000000 1.0
C      1  0.4953320000000  0.5149790000000  0.4152650000000 1.0
C      1  0.4189880000000  0.5545710000000  0.5568200000000 1.0
C      1  0.5315960000000  0.4057790000000  0.5415850000000 1.0
C      1  0.5993160000000  0.4772520000000  0.4456420000000 1.0
C      1  0.4880960000000  0.5874910000000  0.5590190000000 1.0
C      1  0.4722340000000  0.4637400000000  0.5053380000000 1.0
C      1  0.5099450000000  0.3914690000000  0.5273030000000 1.0
C      1  0.5211960000000  0.5995390000000  0.4573640000000 1.0
C      1  0.4926070000000  0.4568800000000  0.4856190000000 1.0
C      1  0.5184700000000  0.6094500000000  0.4846860000000 1.0
C      1  0.4519170000000  0.4471810000000  0.5007810000000 1.0
C      1  0.5293010000000  0.5055870000000  0.4499300000000 1.0
C      1  0.5914240000000  0.4910030000000  0.5686910000000 1.0
C      1  0.4351010000000  0.5923860000000  0.4834750000000 1.0
C      1  0.4736450000000  0.4907640000000  0.5532590000000 1.0
C      1  0.4428200000000  0.5392100000000  0.4851750000000 1.0
C      1  0.4348820000000  0.5239270000000  0.5066920000000 1.0
C      1  0.5037010000000  0.5700450000000  0.4956620000000 1.0
C      1  0.4754820000000  0.5089120000000  0.5111830000000 1.0
C      1  0.5235020000000  0.5071820000000  0.6262340000000 1.0
C      1  0.4909550000000  0.5373060000000  0.4597350000000 1.0
C      1  0.5668900000000  0.5767860000000  0.4747360000000 1.0
C      1  0.4502730000000  0.4763310000000  0.3994730000000 1.0
C      1  0.5985290000000  0.5336490000000  0.4592630000000 1.0
C      1  0.4774470000000  0.4058080000000  0.4708140000000 1.0
C      1  0.5509070000000  0.4314280000000  0.5359900000000 1.0
C      1  0.4993610000000  0.4782130000000  0.5583570000000 1.0
C      1  0.5081180000000  0.5577170000000  0.4465340000000 1.0
C      1  0.4603270000000  0.5006200000000  0.4418750000000 1.0
C      1  0.4717720000000  0.5456050000000  0.6018880000000 1.0
C      1  0.4974380000000  0.5844710000000  0.4392720000000 1.0
C      1  0.5092020000000  0.5695730000000  0.5575880000000 1.0
C      1  0.5815400000000  0.5251770000000  0.4365520000000 1.0
C      1  0.4577250000000  0.5802410000000  0.5167850000000 1.0
C      1  0.4162410000000  0.5331100000000  0.5227670000000 1.0
C      1  0.4432120000000  0.5741830000000  0.4391010000000 1.0
C      1  0.5954630000000  0.5176640000000  0.5648800000000 1.0
C      1  0.4527040000000  0.4257340000000  0.4803660000000 1.0
C      1  0.5859310000000  0.4511350000000  0.4435150000000 1.0
C      1  0.3900140000000  0.5122420000000  0.4854090000000 1.0
C      1  0.5276300000000  0.5545470000000  0.6007110000000 1.0
C      1  0.5684570000000  0.4531110000000  0.4204730000000 1.0
C      1  0.5455620000000  0.4130150000000  0.4371220000000 1.0
C      1  0.4602740000000  0.5199440000000  0.5926450000000 1.0
C      1  0.5552080000000  0.5085610000000  0.5465360000000 1.0
C      1  0.5588180000000  0.5145630000000  0.6035010000000 1.0
C      1  0.4062480000000  0.5025990000000  0.5581420000000 1.0
C      1  0.5444290000000  0.5678550000000  0.5802780000000 1.0
C      1  0.4427830000000  0.5516770000000  0.4198960000000 1.0
C      1  0.4298740000000  0.4551910000000  0.4039500000000 1.0
C      1  0.4757770000000  0.4671980000000  0.4118670000000 1.0
C      1  0.4637180000000  0.5218310000000  0.4622020000000 1.0
C      1  0.4978060000000  0.4371170000000  0.5329320000000 1.0
C      1  0.4462000000000  0.4408480000000  0.5642340000000 1.0
C      1  0.4095080000000  0.4544110000000  0.4500030000000 1.0
C      1  0.4610950000000  0.5589370000000  0.4971600000000 1.0
C      1  0.5828500000000  0.4321580000000  0.4658850000000 1.0
C      1  0.4289590000000  0.5846500000000  0.5128970000000 1.0
C      1  0.5870610000000  0.4971040000000  0.4278780000000 1.0
C      1  0.4679690000000  0.5883150000000  0.4482270000000 1.0
C      1  0.5207930000000  0.4474840000000  0.4063400000000 1.0
C      1  0.5797590000000  0.5578960000000  0.5488410000000 1.0
C      1  0.5238980000000  0.5030090000000  0.4788460000000 1.0
C      1  0.4377470000000  0.4459180000000  0.5325290000000 1.0
C      1  0.5453250000000  0.5883050000000  0.4617630000000 1.0
C      1  0.5372770000000  0.4073860000000  0.4637880000000 1.0
C      1  0.5335280000000  0.5818690000000  0.5566580000000 1.0
C      1  0.5807150000000  0.5258840000000  0.5407280000000 1.0
C      1  0.5775930000000  0.5264380000000  0.5844440000000 1.0
C      1  0.4093550000000  0.4740220000000  0.5651480000000 1.0
C      1  0.5127220000000  0.3803030000000  0.5006040000000 1.0
C      1  0.4918510000000  0.4432180000000  0.4084970000000 1.0
C      1  0.5221640000000  0.4170090000000  0.5656470000000 1.0
C      1  0.4391860000000  0.4082530000000  0.4995530000000 1.0
C      1  0.4896940000000  0.5329870000000  0.5192780000000 1.0
C      1  0.4652260000000  0.4065690000000  0.5162430000000 1.0
C      1  0.5347390000000  0.5481030000000  0.4396800000000 1.0
C      1  0.6059200000000  0.4846100000000  0.5444330000000 1.0
C      1  0.5643880000000  0.4106520000000  0.4584510000000 1.0
C      1  0.5375790000000  0.4551540000000  0.4817470000000 1.0
C      1  0.4104550000000  0.5129330000000  0.4394160000000 1.0
C      1  0.4845050000000  0.4089460000000  0.4474770000000 1.0
C      1  0.5884450000000  0.5204150000000  0.5118110000000 1.0
C      1  0.4368700000000  0.4958880000000  0.5060150000000 1.0
C      1  0.5703250000000  0.4778530000000  0.4915610000000 1.0
C      1  0.5394320000000  0.5322640000000  0.6161930000000 1.0
C      1  0.5268390000000  0.5602890000000  0.5072550000000 1.0
C      1  0.4282460000000  0.5238770000000  0.4193700000000 1.0
C      1  0.4759130000000  0.4262900000000  0.4279720000000 1.0
C      1  0.4674490000000  0.5673520000000  0.5599140000000 1.0
C      1  0.4743550000000  0.4858660000000  0.5248070000000 1.0
C      1  0.5349540000000  0.6036930000000  0.5086280000000 1.0
C      1  0.4717340000000  0.4708350000000  0.4414780000000 1.0
C      1  0.5417040000000  0.5083970000000  0.5014680000000 1.0
C      1  0.4564230000000  0.5662870000000  0.5871740000000 1.0
C      1  0.5447860000000  0.4359250000000  0.4190210000000 1.0
C      1  0.5001570000000  0.5460500000000  0.5942060000000 1.0
C      1  0.4319470000000  0.4600400000000  0.5790340000000 1.0
C      1  0.4268360000000  0.5687640000000  0.5818960000000 1.0
C      1  0.4706130000000  0.5000850000000  0.4834120000000 1.0
C      1  0.4859060000000  0.4254370000000  0.5110210000000 1.0
C      1  0.4161090000000  0.5638390000000  0.5284620000000 1.0
C      1  0.4977410000000  0.5004050000000  0.4789340000000 1.0
C      1  0.4039880000000  0.4863360000000  0.4771500000000 1.0
C      1  0.5555600000000  0.5387660000000  0.4363630000000 1.0
C      1  0.5338720000000  0.5128310000000  0.5276850000000 1.0
C      1  0.4622060000000  0.5976780000000  0.4737230000000 1.0
C      1  0.4679200000000  0.5579160000000  0.4092840000000 1.0
C      1  0.5405850000000  0.4577010000000  0.5285320000000 1.0
C      1  0.5011410000000  0.5438980000000  0.5651750000000 1.0
C      1  0.6144400000000  0.4834420000000  0.5184770000000 1.0
C      1  0.6147210000000  0.5106240000000  0.5044550000000 1.0
C      1  0.4789590000000  0.4536740000000  0.5939920000000 1.0
C      1  0.5240320000000  0.3857260000000  0.4752640000000 1.0
C      1  0.4675360000000  0.5145930000000  0.4172010000000 1.0
C      1  0.4560130000000  0.4398010000000  0.4458760000000 1.0
C      1  0.5341590000000  0.4809770000000  0.4355830000000 1.0
C      1  0.5125230000000  0.4625800000000  0.5352050000000 1.0
C      1  0.4711200000000  0.4327430000000  0.5753310000000 1.0
C      1  0.4351740000000  0.4745220000000  0.5263500000000 1.0
C      1  0.4000850000000  0.5286760000000  0.4628440000000 1.0
C      1  0.5727440000000  0.5763970000000  0.5288890000000 1.0
C      1  0.5472900000000  0.4693500000000  0.5039170000000 1.0
C      1  0.3957260000000  0.4653460000000  0.5399810000000 1.0
C      1  0.5731800000000  0.4804060000000  0.4088140000000 1.0
C      1  0.5692580000000  0.5539500000000  0.5758140000000 1.0
C      1  0.5800630000000  0.4273330000000  0.5187210000000 1.0
C      1  0.4093710000000  0.4406300000000  0.4758650000000 1.0
C      1  0.5317860000000  0.4658160000000  0.5933940000000 1.0
C      1  0.5687530000000  0.5061180000000  0.4965380000000 1.0
C      1  0.4919510000000  0.4166450000000  0.5589590000000 1.0
C      1  0.3899690000000  0.4952190000000  0.5342150000000 1.0
C      1  0.4582820000000  0.5162490000000  0.5621930000000 1.0
C      1  0.4305160000000  0.4433090000000  0.4316860000000 1.0
C      1  0.5191880000000  0.5369220000000  0.5212060000000 1.0
C      1  0.6116270000000  0.4847150000000  0.4707020000000 1.0
C      1  0.5252920000000  0.4767130000000  0.4076740000000 1.0
C      1  0.5052980000000  0.5176510000000  0.4428260000000 1.0
C      1  0.4827460000000  0.3955760000000  0.5381720000000 1.0
C      1  0.4450900000000  0.5056390000000  0.4036350000000 1.0
C      1  0.5155200000000  0.4460930000000  0.4974050000000 1.0
C      1  0.4532070000000  0.4679290000000  0.5988160000000 1.0
C      1  0.5828540000000  0.5551140000000  0.4670140000000 1.0
C      1  0.5993040000000  0.4676440000000  0.4945650000000 1.0
END
