TITL C-884133-6611-390 14.6897335318535 125000 -15375.4106466904 0 0 103 (C1) n - 1
REM
REM in /home/nfs/bkarasulu/CARBON/AIRSS/Generating-Clusters/ReaxFF-fromJPCA2015/Units_Real/with-SteepDescent/Only-C1/SD-CG/Try1-3A/FIRE-CG
REM
REM
REM
REM
REM
REM ./C.cell (11c1c37f851c82e70ff6c80c92926a4b)
REM
REM compiler GCC version 9.2.1 20190827 (Red Hat 9.2.1-1)
REM options -cpp -mtune=generic -march=x86-64 -g -O0 -fpre-include=/usr/include/finclude/math-vector-fortran.h
REM seed -339648343 695744569 -765740734 1282658932 2099183153 1914063587 -1070847956 -1916917411 -1792152569 -1465386790 792404895 -1775005381 -593180699 236745787 -765607801 -1554270879 -431926342 -1519412982 -1894968227 167159933 -1027508237 570431957 619386200 -488388471 -1379174826 -196224705 1545408099 -719776151 2049144759 1341048627 -104600248 -1621998005 1839036569
REM
CELL 1.54180   50.00000   50.00000   50.00000   90.00000   90.00000   90.00000
LATT -1
SFAC C  
C      1  0.5670870000000  0.5254810000000  0.4568980000000 1.0
C      1  0.4888240000000  0.4845510000000  0.4171080000000 1.0
C      1  0.5730330000000  0.5468430000000  0.5044290000000 1.0
C      1  0.5465430000000  0.4537820000000  0.4616230000000 1.0
C      1  0.5875190000000  0.4867100000000  0.5155170000000 1.0
C      1  0.4972230000000  0.4160200000000  0.4798200000000 1.0
C      1  0.5004560000000  0.5123340000000  0.5815210000000 1.0
C      1  0.5231500000000  0.5250660000000  0.4165180000000 1.0
C      1  0.5339820000000  0.5845440000000  0.5355020000000 1.0
C      1  0.5483270000000  0.5028740000000  0.4516330000000 1.0
C      1  0.4769560000000  0.4967180000000  0.5163020000000 1.0
C      1  0.4210390000000  0.4839920000000  0.4824450000000 1.0
C      1  0.5420040000000  0.5550400000000  0.4738090000000 1.0
C      1  0.4984480000000  0.4664700000000  0.4707070000000 1.0
C      1  0.4726700000000  0.5070550000000  0.5838560000000 1.0
C      1  0.4733900000000  0.4601630000000  0.4217450000000 1.0
C      1  0.4290140000000  0.5108800000000  0.5347250000000 1.0
C      1  0.4512960000000  0.5283430000000  0.5782170000000 1.0
C      1  0.4561630000000  0.5513290000000  0.4761010000000 1.0
C      1  0.4702310000000  0.4644130000000  0.5565650000000 1.0
C      1  0.4417310000000  0.4454170000000  0.5128090000000 1.0
C      1  0.5538900000000  0.5497510000000  0.4474430000000 1.0
C      1  0.5219920000000  0.5295820000000  0.5129120000000 1.0
C      1  0.4540410000000  0.4196560000000  0.5011300000000 1.0
C      1  0.5194200000000  0.5120850000000  0.4662890000000 1.0
C      1  0.4892090000000  0.5903280000000  0.5186500000000 1.0
C      1  0.4665370000000  0.5736730000000  0.5551130000000 1.0
C      1  0.4632180000000  0.4278510000000  0.4487720000000 1.0
C      1  0.4497160000000  0.4920800000000  0.5263360000000 1.0
C      1  0.5026750000000  0.5504970000000  0.5150000000000 1.0
C      1  0.5431360000000  0.4129800000000  0.5240250000000 1.0
C      1  0.4991500000000  0.5541620000000  0.5433720000000 1.0
C      1  0.4839670000000  0.4321100000000  0.4277040000000 1.0
C      1  0.5057680000000  0.5632220000000  0.4391790000000 1.0
C      1  0.4739330000000  0.4119610000000  0.5493370000000 1.0
C      1  0.5190230000000  0.4275880000000  0.5297250000000 1.0
C      1  0.5294440000000  0.5319270000000  0.4845940000000 1.0
C      1  0.4688050000000  0.4771530000000  0.5838440000000 1.0
C      1  0.5090350000000  0.4915730000000  0.4837470000000 1.0
C      1  0.5101420000000  0.4870690000000  0.5910170000000 1.0
C      1  0.4598730000000  0.5521810000000  0.5679220000000 1.0
C      1  0.4920290000000  0.4647090000000  0.5959890000000 1.0
C      1  0.4561180000000  0.5516930000000  0.4279490000000 1.0
C      1  0.4244460000000  0.5085900000000  0.4377970000000 1.0
C      1  0.4763020000000  0.5310630000000  0.4762200000000 1.0
C      1  0.5318400000000  0.5183810000000  0.5384010000000 1.0
C      1  0.5775620000000  0.5240830000000  0.4844220000000 1.0
C      1  0.5353830000000  0.5836700000000  0.5070710000000 1.0
C      1  0.5012060000000  0.4780470000000  0.5225600000000 1.0
C      1  0.4991470000000  0.4440310000000  0.4888530000000 1.0
C      1  0.4458890000000  0.5576920000000  0.5223590000000 1.0
C      1  0.4492770000000  0.4640560000000  0.5350440000000 1.0
C      1  0.4973930000000  0.4709980000000  0.5498440000000 1.0
C      1  0.5573900000000  0.5694750000000  0.4942590000000 1.0
C      1  0.5196580000000  0.4148620000000  0.4607390000000 1.0
C      1  0.4514820000000  0.5011810000000  0.4287610000000 1.0
C      1  0.4274970000000  0.5393440000000  0.5351440000000 1.0
C      1  0.5381770000000  0.4244010000000  0.5520190000000 1.0
C      1  0.5690480000000  0.5459360000000  0.5326580000000 1.0
C      1  0.4289500000000  0.5248640000000  0.5595030000000 1.0
C      1  0.5161200000000  0.5329980000000  0.5608340000000 1.0
C      1  0.5052000000000  0.5833820000000  0.5425770000000 1.0
C      1  0.4140400000000  0.5060500000000  0.4663560000000 1.0
C      1  0.5732210000000  0.4376770000000  0.5078220000000 1.0
C      1  0.5211830000000  0.4573120000000  0.4455400000000 1.0
C      1  0.4863970000000  0.4210410000000  0.5698690000000 1.0
C      1  0.5304900000000  0.5501300000000  0.4298880000000 1.0
C      1  0.5255260000000  0.4706920000000  0.5672940000000 1.0
C      1  0.4627310000000  0.5814120000000  0.5277640000000 1.0
C      1  0.4703970000000  0.4985530000000  0.4513070000000 1.0
C      1  0.5797940000000  0.4956210000000  0.4893060000000 1.0
C      1  0.4942210000000  0.5203470000000  0.4204180000000 1.0
C      1  0.5481990000000  0.4838180000000  0.5537770000000 1.0
C      1  0.5068500000000  0.5773320000000  0.4974710000000 1.0
C      1  0.5114440000000  0.4300100000000  0.4373650000000 1.0
C      1  0.4514440000000  0.5673850000000  0.4525530000000 1.0
C      1  0.5568490000000  0.4184940000000  0.4982210000000 1.0
C      1  0.5837850000000  0.4600790000000  0.5112830000000 1.0
C      1  0.4634940000000  0.4120540000000  0.5257400000000 1.0
C      1  0.5549510000000  0.4796790000000  0.4752970000000 1.0
C      1  0.4303850000000  0.4648060000000  0.4967640000000 1.0
C      1  0.5591620000000  0.5213770000000  0.5438350000000 1.0
C      1  0.4553060000000  0.4560340000000  0.4454950000000 1.0
C      1  0.5275880000000  0.4402110000000  0.5736500000000 1.0
C      1  0.4361980000000  0.5495070000000  0.4963670000000 1.0
C      1  0.5161570000000  0.4792200000000  0.4231630000000 1.0
C      1  0.4742960000000  0.5829850000000  0.4580190000000 1.0
C      1  0.4206280000000  0.5256260000000  0.4872930000000 1.0
C      1  0.5443320000000  0.4273150000000  0.4718830000000 1.0
C      1  0.5345560000000  0.4821650000000  0.4985370000000 1.0
C      1  0.4919530000000  0.5184530000000  0.4536150000000 1.0
C      1  0.5010010000000  0.5787820000000  0.4646350000000 1.0
C      1  0.4846130000000  0.5114470000000  0.4943470000000 1.0
C      1  0.5525950000000  0.5649070000000  0.5491310000000 1.0
C      1  0.5384150000000  0.5519750000000  0.5711720000000 1.0
C      1  0.5359600000000  0.5002320000000  0.4244530000000 1.0
C      1  0.5019030000000  0.4372080000000  0.5870450000000 1.0
C      1  0.5668040000000  0.4959470000000  0.5373480000000 1.0
C      1  0.5071240000000  0.4499800000000  0.5144180000000 1.0
C      1  0.4685120000000  0.4157030000000  0.4752720000000 1.0
C      1  0.4845480000000  0.5480490000000  0.4241780000000 1.0
C      1  0.4394830000000  0.5279510000000  0.4224030000000 1.0
C      1  0.4712910000000  0.4735290000000  0.4627400000000 1.0
END
