TITL C-884131-4643-220 87.0289873202796 125000 -26229.0180142468 0 0 176 (C1) n - 1
REM
REM in /home/nfs/bkarasulu/CARBON/AIRSS/Generating-Clusters/ReaxFF-fromJPCA2015/Units_Real/with-SteepDescent/Only-C1/SD-CG/Try1-3A/FIRE-CG
REM
REM
REM
REM
REM
REM ./C.cell (11c1c37f851c82e70ff6c80c92926a4b)
REM
REM compiler GCC version 9.2.1 20190827 (Red Hat 9.2.1-1)
REM options -cpp -mtune=generic -march=x86-64 -g -O0 -fpre-include=/usr/include/finclude/math-vector-fortran.h
REM seed 950908089 -1686789164 1614900027 357365463 2008748800 -640852400 1790626642 799308708 -155788170 1042624350 24625575 670007278 -88262450 -1024891779 -1571302877 -358335228 43446469 912365053 604226380 -1048097897 1826467437 -2096359918 2142988318 -1241450030 2130779487 -1587785357 -111241576 1582065472 1724998748 236748294 -441120256 382697339 -739560373
REM
CELL 1.54180   50.00000   50.00000   50.00000   90.00000   90.00000   90.00000
LATT -1
SFAC C  
C      1  0.5652800000000  0.5268150000000  0.5188200000000 1.0
C      1  0.5382910000000  0.5407320000000  0.5918950000000 1.0
C      1  0.4774240000000  0.4949590000000  0.4866410000000 1.0
C      1  0.5214730000000  0.5077660000000  0.5029510000000 1.0
C      1  0.4768080000000  0.5950990000000  0.4542740000000 1.0
C      1  0.5199940000000  0.5951000000000  0.5516690000000 1.0
C      1  0.5918090000000  0.4662330000000  0.4974570000000 1.0
C      1  0.5610270000000  0.5443370000000  0.4328230000000 1.0
C      1  0.4724990000000  0.5022720000000  0.4419260000000 1.0
C      1  0.4975760000000  0.5080260000000  0.6002560000000 1.0
C      1  0.5734720000000  0.4202500000000  0.5228890000000 1.0
C      1  0.5174190000000  0.4107180000000  0.4403090000000 1.0
C      1  0.4081990000000  0.5368180000000  0.5240910000000 1.0
C      1  0.5236180000000  0.4749570000000  0.5805000000000 1.0
C      1  0.5088800000000  0.4092390000000  0.4663860000000 1.0
C      1  0.5079650000000  0.6012030000000  0.4904340000000 1.0
C      1  0.5201290000000  0.5147290000000  0.3781370000000 1.0
C      1  0.4091170000000  0.4553250000000  0.5434630000000 1.0
C      1  0.3906700000000  0.4777750000000  0.4710610000000 1.0
C      1  0.5166530000000  0.5022210000000  0.4322240000000 1.0
C      1  0.4348600000000  0.5682900000000  0.4443720000000 1.0
C      1  0.4613510000000  0.4035310000000  0.4938860000000 1.0
C      1  0.5914940000000  0.4748380000000  0.4684690000000 1.0
C      1  0.5009110000000  0.4328460000000  0.6025030000000 1.0
C      1  0.5119690000000  0.5278910000000  0.4423240000000 1.0
C      1  0.4554010000000  0.4529590000000  0.6184340000000 1.0
C      1  0.4739650000000  0.5239730000000  0.6041220000000 1.0
C      1  0.4275210000000  0.4519350000000  0.4754160000000 1.0
C      1  0.4840850000000  0.5275610000000  0.4450650000000 1.0
C      1  0.4952290000000  0.5223460000000  0.4974340000000 1.0
C      1  0.4948030000000  0.5239770000000  0.3859700000000 1.0
C      1  0.5626090000000  0.5816230000000  0.5330230000000 1.0
C      1  0.5540230000000  0.5884650000000  0.4602890000000 1.0
C      1  0.5076150000000  0.3883470000000  0.5098610000000 1.0
C      1  0.5526550000000  0.4183110000000  0.4769850000000 1.0
C      1  0.5577500000000  0.5981270000000  0.4870550000000 1.0
C      1  0.4415100000000  0.5193370000000  0.4884050000000 1.0
C      1  0.4089640000000  0.4907680000000  0.5171810000000 1.0
C      1  0.4360150000000  0.4456970000000  0.5522000000000 1.0
C      1  0.5145030000000  0.4989120000000  0.5304290000000 1.0
C      1  0.4674470000000  0.4152250000000  0.4675470000000 1.0
C      1  0.5373610000000  0.5834730000000  0.5722700000000 1.0
C      1  0.4092460000000  0.5058230000000  0.5639020000000 1.0
C      1  0.5732310000000  0.4503270000000  0.4425430000000 1.0
C      1  0.5610410000000  0.5708460000000  0.5602020000000 1.0
C      1  0.5453180000000  0.4448790000000  0.4842680000000 1.0
C      1  0.4297550000000  0.4515600000000  0.5044840000000 1.0
C      1  0.5279710000000  0.5449480000000  0.5426040000000 1.0
C      1  0.4486380000000  0.5748760000000  0.5283140000000 1.0
C      1  0.5145370000000  0.4374600000000  0.5179210000000 1.0
C      1  0.4716420000000  0.4465490000000  0.4957030000000 1.0
C      1  0.4981340000000  0.4766950000000  0.5404890000000 1.0
C      1  0.4164640000000  0.5457110000000  0.4372880000000 1.0
C      1  0.5659620000000  0.5609090000000  0.4582910000000 1.0
C      1  0.4946810000000  0.4540840000000  0.5063890000000 1.0
C      1  0.5222610000000  0.5748300000000  0.4277400000000 1.0
C      1  0.4981970000000  0.4755170000000  0.4922680000000 1.0
C      1  0.4926980000000  0.5543030000000  0.3956790000000 1.0
C      1  0.4034070000000  0.4496420000000  0.5154000000000 1.0
C      1  0.4689080000000  0.5279880000000  0.5459150000000 1.0
C      1  0.5702680000000  0.5169170000000  0.4310220000000 1.0
C      1  0.5647440000000  0.4877780000000  0.4270340000000 1.0
C      1  0.5606680000000  0.5092390000000  0.4968720000000 1.0
C      1  0.5042330000000  0.6007950000000  0.4600570000000 1.0
C      1  0.5657920000000  0.4874510000000  0.5293640000000 1.0
C      1  0.4386610000000  0.4667700000000  0.4312090000000 1.0
C      1  0.5861090000000  0.5588020000000  0.4894270000000 1.0
C      1  0.5318440000000  0.4590870000000  0.5582480000000 1.0
C      1  0.5537930000000  0.5423020000000  0.5657050000000 1.0
C      1  0.5162170000000  0.4005850000000  0.5653000000000 1.0
C      1  0.4343780000000  0.5677400000000  0.4734500000000 1.0
C      1  0.5584070000000  0.4320460000000  0.4300520000000 1.0
C      1  0.5430170000000  0.4930880000000  0.5910260000000 1.0
C      1  0.5083510000000  0.4469760000000  0.5459600000000 1.0
C      1  0.4939170000000  0.4803400000000  0.5869850000000 1.0
C      1  0.3985120000000  0.5392750000000  0.4847980000000 1.0
C      1  0.5002200000000  0.4243800000000  0.4189730000000 1.0
C      1  0.5558360000000  0.4057400000000  0.5035810000000 1.0
C      1  0.5347810000000  0.5571190000000  0.4982460000000 1.0
C      1  0.5647130000000  0.4815270000000  0.5011260000000 1.0
C      1  0.4884720000000  0.4005690000000  0.5631570000000 1.0
C      1  0.5459480000000  0.4140220000000  0.4479050000000 1.0
C      1  0.4559090000000  0.4963210000000  0.4655230000000 1.0
C      1  0.5754340000000  0.5182300000000  0.5645350000000 1.0
C      1  0.5147650000000  0.5216700000000  0.5470470000000 1.0
C      1  0.5180770000000  0.5648790000000  0.4034720000000 1.0
C      1  0.4351780000000  0.5929910000000  0.4874150000000 1.0
C      1  0.4942690000000  0.5615850000000  0.5243490000000 1.0
C      1  0.4770190000000  0.4471540000000  0.4670080000000 1.0
C      1  0.5482630000000  0.4647400000000  0.5349400000000 1.0
C      1  0.4242900000000  0.5813800000000  0.5119900000000 1.0
C      1  0.5399150000000  0.4484970000000  0.5128390000000 1.0
C      1  0.4018150000000  0.4994400000000  0.4538680000000 1.0
C      1  0.4563170000000  0.5302210000000  0.4050240000000 1.0
C      1  0.4542800000000  0.5701310000000  0.5830450000000 1.0
C      1  0.4424110000000  0.5301390000000  0.5591400000000 1.0
C      1  0.4623800000000  0.6045990000000  0.4791700000000 1.0
C      1  0.5384790000000  0.3992330000000  0.5476920000000 1.0
C      1  0.5228940000000  0.5645800000000  0.5892660000000 1.0
C      1  0.4964770000000  0.4839780000000  0.4421170000000 1.0
C      1  0.4510320000000  0.4277500000000  0.5089190000000 1.0
C      1  0.5445680000000  0.5469730000000  0.4738600000000 1.0
C      1  0.4493810000000  0.4231930000000  0.5390560000000 1.0
C      1  0.5352080000000  0.3924600000000  0.5198630000000 1.0
C      1  0.4340900000000  0.5340300000000  0.4201390000000 1.0
C      1  0.4782160000000  0.4769790000000  0.4011180000000 1.0
C      1  0.5392230000000  0.6005650000000  0.5303920000000 1.0
C      1  0.5311360000000  0.4638580000000  0.4656000000000 1.0
C      1  0.4560450000000  0.5019530000000  0.5076770000000 1.0
C      1  0.6076020000000  0.5134850000000  0.4977320000000 1.0
C      1  0.3934510000000  0.4719200000000  0.4999120000000 1.0
C      1  0.4399480000000  0.4783570000000  0.5206710000000 1.0
C      1  0.4780210000000  0.3913410000000  0.5148810000000 1.0
C      1  0.5798740000000  0.4649130000000  0.5698630000000 1.0
C      1  0.5469870000000  0.5493130000000  0.5218810000000 1.0
C      1  0.5157390000000  0.4430130000000  0.4036600000000 1.0
C      1  0.4506090000000  0.4709870000000  0.5475660000000 1.0
C      1  0.4808540000000  0.6146840000000  0.4991950000000 1.0
C      1  0.4057210000000  0.5587600000000  0.5060430000000 1.0
C      1  0.4159900000000  0.5302840000000  0.5490170000000 1.0
C      1  0.5024570000000  0.4246510000000  0.5707980000000 1.0
C      1  0.5677750000000  0.4713650000000  0.4518410000000 1.0
C      1  0.4086990000000  0.4342630000000  0.4610250000000 1.0
C      1  0.4538160000000  0.5469890000000  0.4866120000000 1.0
C      1  0.5973370000000  0.5033430000000  0.4719130000000 1.0
C      1  0.5992500000000  0.4890240000000  0.5359670000000 1.0
C      1  0.5473000000000  0.5186820000000  0.4735940000000 1.0
C      1  0.5259030000000  0.5155890000000  0.6000470000000 1.0
C      1  0.5311600000000  0.5471250000000  0.4252550000000 1.0
C      1  0.5264140000000  0.4832850000000  0.4881080000000 1.0
C      1  0.4030770000000  0.4838420000000  0.5458340000000 1.0
C      1  0.5469000000000  0.4749990000000  0.4078270000000 1.0
C      1  0.5944710000000  0.5312740000000  0.5182590000000 1.0
C      1  0.4693540000000  0.4025760000000  0.5413830000000 1.0
C      1  0.5291340000000  0.5939340000000  0.4462350000000 1.0
C      1  0.5962420000000  0.5181000000000  0.5449970000000 1.0
C      1  0.4740780000000  0.5194070000000  0.5200440000000 1.0
C      1  0.5028050000000  0.4597080000000  0.4560170000000 1.0
C      1  0.4858070000000  0.4560520000000  0.6063270000000 1.0
C      1  0.5082110000000  0.5664130000000  0.4975560000000 1.0
C      1  0.4345520000000  0.5101380000000  0.5791480000000 1.0
C      1  0.5680620000000  0.4378860000000  0.5700590000000 1.0
C      1  0.4732390000000  0.5524390000000  0.5952670000000 1.0
C      1  0.5071810000000  0.4127980000000  0.4944110000000 1.0
C      1  0.4945850000000  0.5789800000000  0.5486860000000 1.0
C      1  0.4671390000000  0.5605330000000  0.5135140000000 1.0
C      1  0.4747910000000  0.5481560000000  0.4622620000000 1.0
C      1  0.5688730000000  0.4931030000000  0.5770850000000 1.0
C      1  0.4997510000000  0.5455670000000  0.4775420000000 1.0
C      1  0.5439090000000  0.4461610000000  0.4095990000000 1.0
C      1  0.4964970000000  0.5578790000000  0.5761150000000 1.0
C      1  0.4718950000000  0.4302650000000  0.4201290000000 1.0
C      1  0.5760940000000  0.5803280000000  0.5037500000000 1.0
C      1  0.5351500000000  0.6076000000000  0.5025470000000 1.0
C      1  0.5622390000000  0.4160110000000  0.5501880000000 1.0
C      1  0.4765460000000  0.4788510000000  0.5589250000000 1.0
C      1  0.4587900000000  0.4109000000000  0.4396930000000 1.0
C      1  0.5065900000000  0.4699620000000  0.3985240000000 1.0
C      1  0.4599480000000  0.4573070000000  0.4133820000000 1.0
C      1  0.5735740000000  0.5167510000000  0.4600220000000 1.0
C      1  0.4644330000000  0.5715730000000  0.4384650000000 1.0
C      1  0.5242850000000  0.4925210000000  0.4033190000000 1.0
C      1  0.4489690000000  0.4651000000000  0.4595610000000 1.0
C      1  0.4494070000000  0.5068500000000  0.6039330000000 1.0
C      1  0.4022500000000  0.5285000000000  0.4580970000000 1.0
C      1  0.4140150000000  0.5192050000000  0.5021610000000 1.0
C      1  0.4116190000000  0.4783100000000  0.4341490000000 1.0
C      1  0.4935720000000  0.5322810000000  0.5605150000000 1.0
C      1  0.5894030000000  0.4441000000000  0.5217330000000 1.0
C      1  0.4621970000000  0.5839180000000  0.5560690000000 1.0
C      1  0.5954910000000  0.4595420000000  0.5453420000000 1.0
C      1  0.4751870000000  0.5060860000000  0.4009380000000 1.0
C      1  0.6109880000000  0.4873660000000  0.5083280000000 1.0
C      1  0.3944280000000  0.4584200000000  0.4484280000000 1.0
C      1  0.4693660000000  0.5570910000000  0.4110610000000 1.0
C      1  0.4516170000000  0.4798180000000  0.6115810000000 1.0
END
