TITL C-884130-5973-82 7.17869242463225 125000 -11484.8626721483 0 0 79 (C1) n - 1
REM
REM in /home/nfs/bkarasulu/CARBON/AIRSS/Generating-Clusters/ReaxFF-fromJPCA2015/Units_Real/with-SteepDescent/Only-C1/SD-CG/Try1-3A/FIRE-CG
REM
REM
REM
REM
REM
REM ./C.cell (11c1c37f851c82e70ff6c80c92926a4b)
REM
REM compiler GCC version 9.2.1 20190827 (Red Hat 9.2.1-1)
REM options -cpp -mtune=generic -march=x86-64 -g -O0 -fpre-include=/usr/include/finclude/math-vector-fortran.h
REM seed -1888570244 1889492789 951431129 1800845367 -2083303939 -466176975 550962456 14534718 -1987960248 -1109073952 1554097939 1153377488 -383194404 818983824 -1161797247 1327344067 1946112287 1709034163 323964190 -1758509604 65842819 -2031434051 702403777 1872475116 -1062389102 1918083402 -1934577401 -1730594690 933981143 -870179461 681223428 -1527815611 291603409
REM
CELL 1.54180   50.00000   50.00000   50.00000   90.00000   90.00000   90.00000
LATT -1
SFAC C  
C      1  0.4891810000000  0.5275850000000  0.5380920000000 1.0
C      1  0.5509890000000  0.5093710000000  0.5558890000000 1.0
C      1  0.4974160000000  0.5764190000000  0.4744990000000 1.0
C      1  0.4299780000000  0.4643460000000  0.5072550000000 1.0
C      1  0.5450270000000  0.5628650000000  0.4715210000000 1.0
C      1  0.4548970000000  0.4806170000000  0.6034480000000 1.0
C      1  0.4610810000000  0.5589480000000  0.5192580000000 1.0
C      1  0.4876910000000  0.4491720000000  0.5643660000000 1.0
C      1  0.5319810000000  0.5639640000000  0.4984080000000 1.0
C      1  0.5301510000000  0.4304770000000  0.4744850000000 1.0
C      1  0.5707610000000  0.5574990000000  0.5429940000000 1.0
C      1  0.4830410000000  0.5131750000000  0.4278570000000 1.0
C      1  0.5678680000000  0.5316780000000  0.5400340000000 1.0
C      1  0.4587140000000  0.4970020000000  0.4261120000000 1.0
C      1  0.4713940000000  0.5213990000000  0.4735240000000 1.0
C      1  0.5068800000000  0.4822820000000  0.5184320000000 1.0
C      1  0.5629420000000  0.5336720000000  0.5097530000000 1.0
C      1  0.4723400000000  0.5571660000000  0.4464310000000 1.0
C      1  0.5631070000000  0.4666330000000  0.4667550000000 1.0
C      1  0.4871850000000  0.5743480000000  0.5233180000000 1.0
C      1  0.5094750000000  0.5408670000000  0.5554670000000 1.0
C      1  0.4310860000000  0.4909750000000  0.5398760000000 1.0
C      1  0.5141600000000  0.4652200000000  0.4493760000000 1.0
C      1  0.5180180000000  0.5378430000000  0.5018720000000 1.0
C      1  0.4279740000000  0.5179160000000  0.5030030000000 1.0
C      1  0.5198220000000  0.5655510000000  0.4572890000000 1.0
C      1  0.4302210000000  0.5401560000000  0.4830890000000 1.0
C      1  0.5067530000000  0.5800820000000  0.5020040000000 1.0
C      1  0.5318050000000  0.4922890000000  0.4883340000000 1.0
C      1  0.4837000000000  0.4255890000000  0.5136170000000 1.0
C      1  0.4532330000000  0.5095160000000  0.5464920000000 1.0
C      1  0.4542060000000  0.4313730000000  0.4732530000000 1.0
C      1  0.5243490000000  0.4666200000000  0.5545810000000 1.0
C      1  0.4384490000000  0.4544810000000  0.4811420000000 1.0
C      1  0.5317430000000  0.5191330000000  0.4423830000000 1.0
C      1  0.4910640000000  0.5093750000000  0.4557970000000 1.0
C      1  0.5097420000000  0.4278070000000  0.5234460000000 1.0
C      1  0.5003640000000  0.4854170000000  0.5447380000000 1.0
C      1  0.5068290000000  0.5642110000000  0.5406780000000 1.0
C      1  0.4759070000000  0.4937460000000  0.5581490000000 1.0
C      1  0.5661660000000  0.4717810000000  0.5238760000000 1.0
C      1  0.4786410000000  0.4764090000000  0.4806920000000 1.0
C      1  0.4634420000000  0.4537450000000  0.5505060000000 1.0
C      1  0.4685060000000  0.5703840000000  0.4707050000000 1.0
C      1  0.5542240000000  0.5068190000000  0.4997470000000 1.0
C      1  0.4188230000000  0.4912370000000  0.5131880000000 1.0
C      1  0.5112090000000  0.4394060000000  0.5506180000000 1.0
C      1  0.5286920000000  0.4685170000000  0.5046450000000 1.0
C      1  0.4498090000000  0.5597000000000  0.4928650000000 1.0
C      1  0.4675910000000  0.4798790000000  0.5825720000000 1.0
C      1  0.5183040000000  0.4969450000000  0.5810670000000 1.0
C      1  0.5007850000000  0.4277490000000  0.4727870000000 1.0
C      1  0.4518870000000  0.4771880000000  0.4633810000000 1.0
C      1  0.4868320000000  0.4532460000000  0.4372070000000 1.0
C      1  0.4630210000000  0.4692140000000  0.4349370000000 1.0
C      1  0.4408380000000  0.5020970000000  0.4485380000000 1.0
C      1  0.4455280000000  0.5285970000000  0.4601540000000 1.0
C      1  0.5185870000000  0.4975650000000  0.4599050000000 1.0
C      1  0.5285290000000  0.5207070000000  0.5704350000000 1.0
C      1  0.5165640000000  0.5438750000000  0.4377160000000 1.0
C      1  0.4997430000000  0.4575490000000  0.4755740000000 1.0
C      1  0.5516320000000  0.4824520000000  0.5467580000000 1.0
C      1  0.5284940000000  0.4390710000000  0.5025600000000 1.0
C      1  0.5112010000000  0.4697220000000  0.5811770000000 1.0
C      1  0.5721340000000  0.4937590000000  0.4596120000000 1.0
C      1  0.4785410000000  0.4309350000000  0.4537460000000 1.0
C      1  0.4928290000000  0.4942040000000  0.4980310000000 1.0
C      1  0.4882560000000  0.5425060000000  0.4279620000000 1.0
C      1  0.4400030000000  0.4625600000000  0.5363000000000 1.0
C      1  0.4629100000000  0.4272270000000  0.4989400000000 1.0
C      1  0.5398440000000  0.4515050000000  0.4569220000000 1.0
C      1  0.5659820000000  0.5434730000000  0.4646400000000 1.0
C      1  0.5825370000000  0.5348070000000  0.4873380000000 1.0
C      1  0.4964290000000  0.5208340000000  0.5101910000000 1.0
C      1  0.5596140000000  0.5189200000000  0.4491650000000 1.0
C      1  0.5810060000000  0.5049200000000  0.4851850000000 1.0
C      1  0.4571440000000  0.5119640000000  0.4992200000000 1.0
C      1  0.5711670000000  0.4651380000000  0.4956110000000 1.0
C      1  0.4610330000000  0.5366120000000  0.5385130000000 1.0
END
