TITL C-884128-4793-146 13.1414730549166 125000 -20544.3014966623 0 0 137 (C1) n - 1
REM
REM in /home/nfs/bkarasulu/CARBON/AIRSS/Generating-Clusters/ReaxFF-fromJPCA2015/Units_Real/with-SteepDescent/Only-C1/SD-CG/Try1-3A/FIRE-CG
REM
REM
REM
REM
REM
REM ./C.cell (11c1c37f851c82e70ff6c80c92926a4b)
REM
REM compiler GCC version 9.2.1 20190827 (Red Hat 9.2.1-1)
REM options -cpp -mtune=generic -march=x86-64 -g -O0 -fpre-include=/usr/include/finclude/math-vector-fortran.h
REM seed 213340039 -1993042719 -2123975972 -872625100 -745269199 -1152177588 -1093891360 -1729904056 -92462651 968552267 1179222760 1556124774 -1223996605 -1683762943 -594313639 -1838267767 870142449 -2098359035 836837108 1410605337 948490237 1029469054 -1516792682 707266872 -1282679848 241077366 1457217231 1228248999 2046530252 1127581242 -2067382457 -26015315 451694323
REM
CELL 1.54180   50.00000   50.00000   50.00000   90.00000   90.00000   90.00000
LATT -1
SFAC C  
C      1  0.5093280000000  0.5594130000000  0.5009380000000 1.0
C      1  0.4274040000000  0.5520160000000  0.5193970000000 1.0
C      1  0.4938210000000  0.5523950000000  0.4539810000000 1.0
C      1  0.4303300000000  0.4985290000000  0.4356750000000 1.0
C      1  0.4201750000000  0.5229940000000  0.4481260000000 1.0
C      1  0.4895960000000  0.5488050000000  0.4826840000000 1.0
C      1  0.4864720000000  0.5918840000000  0.5422180000000 1.0
C      1  0.4272080000000  0.4583670000000  0.4599260000000 1.0
C      1  0.5728260000000  0.5326160000000  0.4987600000000 1.0
C      1  0.4747710000000  0.4000980000000  0.5041560000000 1.0
C      1  0.5526120000000  0.4493120000000  0.5086460000000 1.0
C      1  0.4301080000000  0.5499620000000  0.4451090000000 1.0
C      1  0.4784530000000  0.4563860000000  0.4939370000000 1.0
C      1  0.5038420000000  0.4584110000000  0.5329220000000 1.0
C      1  0.5520330000000  0.4505320000000  0.4279110000000 1.0
C      1  0.5816680000000  0.4987250000000  0.5276120000000 1.0
C      1  0.5520850000000  0.4240630000000  0.5241980000000 1.0
C      1  0.4842610000000  0.4870770000000  0.4161270000000 1.0
C      1  0.5568590000000  0.4491980000000  0.5673100000000 1.0
C      1  0.4777800000000  0.4641380000000  0.5232450000000 1.0
C      1  0.5887230000000  0.4829500000000  0.5029280000000 1.0
C      1  0.5108040000000  0.5795040000000  0.5584170000000 1.0
C      1  0.5903800000000  0.4921250000000  0.4756420000000 1.0
C      1  0.5569330000000  0.5355450000000  0.5580130000000 1.0
C      1  0.4730820000000  0.5142830000000  0.5228430000000 1.0
C      1  0.4828370000000  0.5523440000000  0.5770650000000 1.0
C      1  0.4929760000000  0.5796350000000  0.4439570000000 1.0
C      1  0.4606370000000  0.4330000000000  0.4820440000000 1.0
C      1  0.5749000000000  0.5836300000000  0.4935140000000 1.0
C      1  0.4109490000000  0.5199180000000  0.4765340000000 1.0
C      1  0.4788960000000  0.5164810000000  0.4203850000000 1.0
C      1  0.5148110000000  0.4821890000000  0.4105200000000 1.0
C      1  0.5409440000000  0.5489940000000  0.5363140000000 1.0
C      1  0.4702090000000  0.5284810000000  0.5871280000000 1.0
C      1  0.4591680000000  0.5893450000000  0.5009290000000 1.0
C      1  0.4374340000000  0.4942280000000  0.5712220000000 1.0
C      1  0.5012050000000  0.4263950000000  0.5721250000000 1.0
C      1  0.4879430000000  0.4095380000000  0.5321550000000 1.0
C      1  0.4459120000000  0.4835340000000  0.4576210000000 1.0
C      1  0.4027700000000  0.4940100000000  0.4874340000000 1.0
C      1  0.4626430000000  0.4330050000000  0.4332350000000 1.0
C      1  0.4303520000000  0.5617650000000  0.4715260000000 1.0
C      1  0.5481100000000  0.5479920000000  0.4596390000000 1.0
C      1  0.4342540000000  0.4763760000000  0.5289540000000 1.0
C      1  0.5312530000000  0.5048350000000  0.4075610000000 1.0
C      1  0.4151310000000  0.5105500000000  0.5512970000000 1.0
C      1  0.5666710000000  0.5270070000000  0.4501810000000 1.0
C      1  0.4588210000000  0.5827240000000  0.5455700000000 1.0
C      1  0.4439150000000  0.4816400000000  0.4171390000000 1.0
C      1  0.4452050000000  0.4356790000000  0.4571900000000 1.0
C      1  0.5531550000000  0.4936660000000  0.5325210000000 1.0
C      1  0.5454300000000  0.5403360000000  0.5064080000000 1.0
C      1  0.4986140000000  0.4705700000000  0.6041060000000 1.0
C      1  0.4838410000000  0.5349510000000  0.3983330000000 1.0
C      1  0.5433590000000  0.4576690000000  0.5917890000000 1.0
C      1  0.4966670000000  0.5499760000000  0.5250910000000 1.0
C      1  0.4060510000000  0.4645090000000  0.4792180000000 1.0
C      1  0.5323380000000  0.5096880000000  0.5928910000000 1.0
C      1  0.5346320000000  0.4095350000000  0.4532310000000 1.0
C      1  0.5345040000000  0.4947400000000  0.5090640000000 1.0
C      1  0.5048660000000  0.4028690000000  0.4554020000000 1.0
C      1  0.4445920000000  0.4948370000000  0.4849420000000 1.0
C      1  0.4494260000000  0.4132010000000  0.4998480000000 1.0
C      1  0.5543450000000  0.5739920000000  0.4712920000000 1.0
C      1  0.4465540000000  0.5194770000000  0.5751030000000 1.0
C      1  0.4247380000000  0.4934870000000  0.5059380000000 1.0
C      1  0.5531360000000  0.4778710000000  0.5576090000000 1.0
C      1  0.4999610000000  0.5301500000000  0.4361250000000 1.0
C      1  0.4569130000000  0.4567050000000  0.4175500000000 1.0
C      1  0.4423830000000  0.5774920000000  0.5214830000000 1.0
C      1  0.5342190000000  0.5990200000000  0.5216160000000 1.0
C      1  0.5514190000000  0.5032330000000  0.4466090000000 1.0
C      1  0.5544700000000  0.6042140000000  0.5008060000000 1.0
C      1  0.4279640000000  0.5349690000000  0.5435380000000 1.0
C      1  0.5700980000000  0.4735510000000  0.4280110000000 1.0
C      1  0.5831090000000  0.4711060000000  0.4544050000000 1.0
C      1  0.4773400000000  0.5253810000000  0.4937250000000 1.0
C      1  0.4607810000000  0.4859930000000  0.5312930000000 1.0
C      1  0.5119200000000  0.5557960000000  0.5755590000000 1.0
C      1  0.5552570000000  0.4302520000000  0.4498790000000 1.0
C      1  0.5262100000000  0.5206040000000  0.4967110000000 1.0
C      1  0.5256170000000  0.5044670000000  0.4552690000000 1.0
C      1  0.5256810000000  0.5296410000000  0.4675880000000 1.0
C      1  0.4541100000000  0.4444680000000  0.5592940000000 1.0
C      1  0.4879980000000  0.5047480000000  0.5851650000000 1.0
C      1  0.5347100000000  0.5798350000000  0.5428380000000 1.0
C      1  0.5108270000000  0.4702350000000  0.5578570000000 1.0
C      1  0.5301390000000  0.4678040000000  0.5009800000000 1.0
C      1  0.4612240000000  0.5545180000000  0.5553880000000 1.0
C      1  0.5917460000000  0.5411330000000  0.5215130000000 1.0
C      1  0.5086480000000  0.4634370000000  0.4820290000000 1.0
C      1  0.4766200000000  0.4255750000000  0.5582340000000 1.0
C      1  0.4845370000000  0.5963790000000  0.5143290000000 1.0
C      1  0.5093690000000  0.4426830000000  0.4431370000000 1.0
C      1  0.5747320000000  0.4472420000000  0.4669920000000 1.0
C      1  0.5032980000000  0.4323230000000  0.5201620000000 1.0
C      1  0.5057050000000  0.4975420000000  0.5596550000000 1.0
C      1  0.5155550000000  0.3964450000000  0.5364100000000 1.0
C      1  0.5329710000000  0.4044060000000  0.5146220000000 1.0
C      1  0.5361790000000  0.5952590000000  0.4797800000000 1.0
C      1  0.4727580000000  0.4779650000000  0.5950690000000 1.0
C      1  0.5806250000000  0.5239870000000  0.5436160000000 1.0
C      1  0.4149790000000  0.4457770000000  0.4984250000000 1.0
C      1  0.4520910000000  0.4688610000000  0.5767120000000 1.0
C      1  0.4347700000000  0.4478280000000  0.5370950000000 1.0
C      1  0.5245010000000  0.4568070000000  0.4214860000000 1.0
C      1  0.5881080000000  0.5673600000000  0.5122060000000 1.0
C      1  0.4640700000000  0.5835480000000  0.4472020000000 1.0
C      1  0.5350830000000  0.5346490000000  0.5777620000000 1.0
C      1  0.5129010000000  0.5896280000000  0.5007730000000 1.0
C      1  0.5488960000000  0.4861560000000  0.5859760000000 1.0
C      1  0.4652650000000  0.5528070000000  0.4083110000000 1.0
C      1  0.4897590000000  0.4219500000000  0.4377010000000 1.0
C      1  0.4763160000000  0.4816040000000  0.4437670000000 1.0
C      1  0.5007050000000  0.5094010000000  0.5347960000000 1.0
C      1  0.5284050000000  0.5605260000000  0.4087720000000 1.0
C      1  0.4495450000000  0.5654750000000  0.4284170000000 1.0
C      1  0.4953310000000  0.3999670000000  0.4835350000000 1.0
C      1  0.5188410000000  0.4423090000000  0.4713560000000 1.0
C      1  0.4699390000000  0.4841460000000  0.4895590000000 1.0
C      1  0.5121760000000  0.5818080000000  0.4208000000000 1.0
C      1  0.5162240000000  0.5323520000000  0.4095740000000 1.0
C      1  0.4690600000000  0.5426330000000  0.5299700000000 1.0
C      1  0.5024720000000  0.4873590000000  0.4610660000000 1.0
C      1  0.5574090000000  0.4999080000000  0.4203870000000 1.0
C      1  0.5485200000000  0.4249910000000  0.5533380000000 1.0
C      1  0.5777030000000  0.4559950000000  0.4954570000000 1.0
C      1  0.4276570000000  0.4281480000000  0.5158900000000 1.0
C      1  0.5148110000000  0.4208270000000  0.4940000000000 1.0
C      1  0.5233050000000  0.4111990000000  0.5604500000000 1.0
C      1  0.5826780000000  0.5201230000000  0.4737650000000 1.0
C      1  0.4514730000000  0.5822390000000  0.4733110000000 1.0
C      1  0.5079130000000  0.4980930000000  0.6048680000000 1.0
C      1  0.4202070000000  0.5438510000000  0.4919910000000 1.0
C      1  0.5133070000000  0.5330290000000  0.5405480000000 1.0
C      1  0.5133030000000  0.4538490000000  0.5834370000000 1.0
C      1  0.4914380000000  0.5022460000000  0.4853140000000 1.0
END
