TITL C-884140-4336-29 13283748.3804385 125000 -21203.5555832662 0 0 145 (C1) n - 1
REM
REM in /home/nfs/bkarasulu/CARBON/AIRSS/Generating-Clusters/ReaxFF-fromJPCA2015/Units_Real/with-SteepDescent/Only-C1/SD-CG/Try1-3A/FIRE-CG
REM
REM
REM
REM
REM
REM ./C.cell (11c1c37f851c82e70ff6c80c92926a4b)
REM
REM compiler GCC version 9.2.1 20190827 (Red Hat 9.2.1-1)
REM options -cpp -mtune=generic -march=x86-64 -g -O0 -fpre-include=/usr/include/finclude/math-vector-fortran.h
REM seed 1439570071 -112798179 -86724784 560185895 -1175741982 -540283685 -795068178 723556607 1690908268 1667632991 1711480157 -688445203 1398060656 673335127 -384524436 513792395 -369638499 -989503918 33962234 -1246752128 -420169201 1611163934 -629122226 -1960094026 -177770447 1629312081 1119909407 405464476 391396804 1989012325 2119853214 -877937636 1736176287
REM
CELL 1.54180   50.00000   50.00000   50.00000   90.00000   90.00000   90.00000
LATT -1
SFAC C  
C      1  0.5266670000000  0.5397870000000  0.4466610000000 1.0
C      1  0.4828120000000  0.4607740000000  0.4017140000000 1.0
C      1  0.5353430000000  0.5328770000000  0.4872240000000 1.0
C      1  0.4158530000000  0.4470480000000  0.4749730000000 1.0
C      1  0.5597720000000  0.5146220000000  0.4146610000000 1.0
C      1  0.4936600000000  0.5485920000000  0.5493240000000 1.0
C      1  0.4474080000000  0.5452610000000  0.4149540000000 1.0
C      1  0.5793540000000  0.4260630000000  0.5258900000000 1.0
C      1  0.5884340000000  0.4849190000000  0.4622030000000 1.0
C      1  0.4780030000000  0.4725220000000  0.4732330000000 1.0
C      1  0.5003290000000  0.5280700000000  0.4428120000000 1.0
C      1  0.4422440000000  0.4545440000000  0.5240790000000 1.0
C      1  0.4768310000000  0.4024060000000  0.4695300000000 1.0
C      1  0.4187530000000  0.5171700000000  0.5669990000000 1.0
C      1  0.4742130000000  0.5389500000000  0.4049910000000 1.0
C      1  0.4534670000000  0.5104910000000  0.4739690000000 1.0
C      1  0.4409980000000  0.4520530000000  0.4309440000000 1.0
C      1  0.5937830000000  0.5165990000000  0.4890640000000 1.0
C      1  0.5369140000000  0.4644710000000  0.5484490000000 1.0
C      1  0.4320860000000  0.4792020000000  0.5163120000000 1.0
C      1  0.4802070000000  0.5250450000000  0.5918290000000 1.0
C      1  0.5162300000000  0.5843630000000  0.4461370000000 1.0
C      1  0.5567090000000  0.5282490000000  0.5316350000000 1.0
C      1  0.5241210000000  0.5530990000000  0.4072820000000 1.0
C      1  0.4967420000000  0.5021660000000  0.5994930000000 1.0
C      1  0.4582440000000  0.4856980000000  0.4592670000000 1.0
C      1  0.5650260000000  0.4285450000000  0.4755230000000 1.0
C      1  0.4261410000000  0.4978330000000  0.4220780000000 1.0
C      1  0.5393280000000  0.5806880000000  0.5396100000000 1.0
C      1  0.4488460000000  0.4814300000000  0.4278050000000 1.0
C      1  0.4989920000000  0.4288200000000  0.5008370000000 1.0
C      1  0.4654960000000  0.4223500000000  0.5629270000000 1.0
C      1  0.6167070000000  0.4850470000000  0.5298070000000 1.0
C      1  0.5451160000000  0.5160590000000  0.5098100000000 1.0
C      1  0.4640320000000  0.5101560000000  0.5711210000000 1.0
C      1  0.4489370000000  0.5019930000000  0.5076760000000 1.0
C      1  0.4832920000000  0.4706560000000  0.5053600000000 1.0
C      1  0.5192160000000  0.4830090000000  0.4341170000000 1.0
C      1  0.5993000000000  0.4706540000000  0.5116850000000 1.0
C      1  0.5109440000000  0.4541230000000  0.5942110000000 1.0
C      1  0.5783560000000  0.4565470000000  0.5302270000000 1.0
C      1  0.4998850000000  0.5915850000000  0.4982270000000 1.0
C      1  0.5461300000000  0.5110540000000  0.5784820000000 1.0
C      1  0.5766950000000  0.4758060000000  0.5568580000000 1.0
C      1  0.4272460000000  0.5210280000000  0.4650600000000 1.0
C      1  0.5661710000000  0.4158730000000  0.5012890000000 1.0
C      1  0.4668940000000  0.5802640000000  0.4442260000000 1.0
C      1  0.5515250000000  0.4680920000000  0.5237950000000 1.0
C      1  0.5137920000000  0.5506490000000  0.5277300000000 1.0
C      1  0.4769030000000  0.4975140000000  0.5189060000000 1.0
C      1  0.5627050000000  0.6024640000000  0.5006850000000 1.0
C      1  0.5006010000000  0.5632340000000  0.5059290000000 1.0
C      1  0.4875370000000  0.4342100000000  0.4086250000000 1.0
C      1  0.5018520000000  0.4045770000000  0.4578740000000 1.0
C      1  0.4776420000000  0.5949760000000  0.5169920000000 1.0
C      1  0.5366610000000  0.4657830000000  0.4169620000000 1.0
C      1  0.4503710000000  0.5827650000000  0.5116060000000 1.0
C      1  0.5277630000000  0.4140010000000  0.5330280000000 1.0
C      1  0.4078420000000  0.5120250000000  0.5377050000000 1.0
C      1  0.4343460000000  0.4275870000000  0.4832000000000 1.0
C      1  0.5391120000000  0.5630280000000  0.4842530000000 1.0
C      1  0.4709710000000  0.4853920000000  0.4045310000000 1.0
C      1  0.4372650000000  0.5226240000000  0.5259560000000 1.0
C      1  0.4869670000000  0.5897570000000  0.5444280000000 1.0
C      1  0.4060670000000  0.4848140000000  0.5263070000000 1.0
C      1  0.5554090000000  0.4532160000000  0.6153470000000 1.0
C      1  0.4561400000000  0.4076290000000  0.5187020000000 1.0
C      1  0.5420690000000  0.4901790000000  0.4514380000000 1.0
C      1  0.5829890000000  0.4878110000000  0.4924320000000 1.0
C      1  0.3981860000000  0.5223330000000  0.5111560000000 1.0
C      1  0.5722890000000  0.5243550000000  0.4404170000000 1.0
C      1  0.5496410000000  0.4871010000000  0.5026370000000 1.0
C      1  0.4261850000000  0.5252880000000  0.4157280000000 1.0
C      1  0.5662080000000  0.5299140000000  0.5713560000000 1.0
C      1  0.5216710000000  0.5182130000000  0.5931280000000 1.0
C      1  0.5645430000000  0.4723400000000  0.4519720000000 1.0
C      1  0.5124050000000  0.4312740000000  0.5758370000000 1.0
C      1  0.5429220000000  0.5523480000000  0.5301440000000 1.0
C      1  0.4382810000000  0.4956120000000  0.5741360000000 1.0
C      1  0.4882820000000  0.5208850000000  0.5063730000000 1.0
C      1  0.5235460000000  0.4498750000000  0.4673520000000 1.0
C      1  0.5167270000000  0.5680680000000  0.5794920000000 1.0
C      1  0.5510340000000  0.4806520000000  0.5714020000000 1.0
C      1  0.5918350000000  0.5139780000000  0.4589420000000 1.0
C      1  0.4598810000000  0.5637640000000  0.4689510000000 1.0
C      1  0.5936620000000  0.4967890000000  0.5477710000000 1.0
C      1  0.4706880000000  0.4523690000000  0.5239010000000 1.0
C      1  0.4995920000000  0.4628160000000  0.4553120000000 1.0
C      1  0.5664060000000  0.5552220000000  0.5837360000000 1.0
C      1  0.4855780000000  0.4398810000000  0.4482580000000 1.0
C      1  0.4435870000000  0.4183870000000  0.5437290000000 1.0
C      1  0.4156590000000  0.5151610000000  0.4398930000000 1.0
C      1  0.4396480000000  0.4663900000000  0.5702640000000 1.0
C      1  0.4647930000000  0.4346680000000  0.4276290000000 1.0
C      1  0.4321320000000  0.4450690000000  0.5500470000000 1.0
C      1  0.4920860000000  0.5794140000000  0.4300420000000 1.0
C      1  0.5023210000000  0.4019170000000  0.5406820000000 1.0
C      1  0.5448810000000  0.5635890000000  0.5835550000000 1.0
C      1  0.5065000000000  0.5189980000000  0.4839680000000 1.0
C      1  0.4533490000000  0.4084500000000  0.4888190000000 1.0
C      1  0.5333050000000  0.5647150000000  0.4330020000000 1.0
C      1  0.5094860000000  0.5100750000000  0.4173520000000 1.0
C      1  0.4953110000000  0.5591430000000  0.4089890000000 1.0
C      1  0.5046510000000  0.5419610000000  0.5886640000000 1.0
C      1  0.4162680000000  0.5458530000000  0.4756210000000 1.0
C      1  0.4320810000000  0.5647690000000  0.4602570000000 1.0
C      1  0.5145000000000  0.5848500000000  0.5553380000000 1.0
C      1  0.4284580000000  0.5667480000000  0.5220840000000 1.0
C      1  0.4902410000000  0.4740830000000  0.5931070000000 1.0
C      1  0.5369980000000  0.4114710000000  0.5052680000000 1.0
C      1  0.5066350000000  0.4252540000000  0.4339990000000 1.0
C      1  0.4924880000000  0.4109140000000  0.5669750000000 1.0
C      1  0.4063460000000  0.4721030000000  0.4837820000000 1.0
C      1  0.3968610000000  0.4928940000000  0.5000620000000 1.0
C      1  0.5284570000000  0.4680890000000  0.4899600000000 1.0
C      1  0.4850990000000  0.4074010000000  0.5174370000000 1.0
C      1  0.4814310000000  0.4995890000000  0.5497910000000 1.0
C      1  0.4777810000000  0.4473630000000  0.5520690000000 1.0
C      1  0.5347790000000  0.4420930000000  0.4370020000000 1.0
C      1  0.5831730000000  0.5242820000000  0.5416200000000 1.0
C      1  0.4116890000000  0.5477950000000  0.5048120000000 1.0
C      1  0.4683990000000  0.4650540000000  0.5743570000000 1.0
C      1  0.4271960000000  0.5445250000000  0.5671650000000 1.0
C      1  0.5514840000000  0.5977110000000  0.5203640000000 1.0
C      1  0.5079780000000  0.4559960000000  0.5070030000000 1.0
C      1  0.5473440000000  0.5203620000000  0.4565570000000 1.0
C      1  0.5613900000000  0.4417290000000  0.4513970000000 1.0
C      1  0.4707010000000  0.5675090000000  0.5530570000000 1.0
C      1  0.5335180000000  0.5255950000000  0.4063300000000 1.0
C      1  0.4426270000000  0.5683180000000  0.4327810000000 1.0
C      1  0.5875870000000  0.5583830000000  0.5000910000000 1.0
C      1  0.5398240000000  0.4630640000000  0.5982100000000 1.0
C      1  0.4837440000000  0.5113800000000  0.4019480000000 1.0
C      1  0.4981620000000  0.5215170000000  0.5503130000000 1.0
C      1  0.5952220000000  0.5340610000000  0.5123640000000 1.0
C      1  0.5654030000000  0.5760170000000  0.4879680000000 1.0
C      1  0.5185790000000  0.5826870000000  0.4756090000000 1.0
C      1  0.5574970000000  0.4852530000000  0.4091010000000 1.0
C      1  0.4854900000000  0.5206490000000  0.4655040000000 1.0
C      1  0.4777770000000  0.5475220000000  0.5008070000000 1.0
C      1  0.5188680000000  0.4198660000000  0.4808670000000 1.0
C      1  0.4242080000000  0.4532330000000  0.4524110000000 1.0
C      1  0.5295930000000  0.4365710000000  0.5529160000000 1.0
C      1  0.4571350000000  0.5618020000000  0.4941610000000 1.0
C      1  0.4412650000000  0.5637430000000  0.5479070000000 1.0
END
