TITL C-883736-9678-139 2.31640012019607 125000 -8002.5322492122 0 0 55 (C1) n - 1
REM
REM in /home/nfs/bkarasulu/CARBON/AIRSS/Generating-Clusters/ReaxFF-fromJPCA2015/Units_Real/with-SteepDescent/Only-C1/SD-CG/Try1-3A/FIRE-CG
REM
REM
REM
REM
REM
REM ./C.cell (11c1c37f851c82e70ff6c80c92926a4b)
REM
REM compiler GCC version 9.2.1 20190827 (Red Hat 9.2.1-1)
REM options -cpp -mtune=generic -march=x86-64 -g -O0 -fpre-include=/usr/include/finclude/math-vector-fortran.h
REM seed 1965030105 -1696963383 481735623 2010265021 1012370688 1963063459 762644668 -213657909 -1496947547 -1907646601 1422766695 1162066591 -17412696 -2137214427 -927770486 -2056437519 535706751 -1002413038 -767949548 -1047004864 260769277 -1577639804 -32504111 -1684355813 -2104539120 234412901 -1922046161 967341395 -1396259337 810154325 -1667848653 -1041396980 -1075994074
REM
CELL 1.54180   50.00000   50.00000   50.00000   90.00000   90.00000   90.00000
LATT -1
SFAC C  
C      1  0.5658560000000  0.5443910000000  0.4871680000000 1.0
C      1  0.4418490000000  0.5076850000000  0.4444150000000 1.0
C      1  0.5584380000000  0.5281290000000  0.4653030000000 1.0
C      1  0.5356590000000  0.4546600000000  0.5324520000000 1.0
C      1  0.5148060000000  0.5275810000000  0.5250940000000 1.0
C      1  0.5281860000000  0.4685540000000  0.5603420000000 1.0
C      1  0.5013110000000  0.4571210000000  0.5606750000000 1.0
C      1  0.5473590000000  0.5216030000000  0.5571320000000 1.0
C      1  0.4874210000000  0.5196270000000  0.4595960000000 1.0
C      1  0.5210230000000  0.4994730000000  0.5311610000000 1.0
C      1  0.5681540000000  0.5323880000000  0.5136430000000 1.0
C      1  0.4993780000000  0.5310750000000  0.5648800000000 1.0
C      1  0.4406950000000  0.4794390000000  0.4868830000000 1.0
C      1  0.5304380000000  0.4802030000000  0.5129560000000 1.0
C      1  0.4989170000000  0.5054370000000  0.4838880000000 1.0
C      1  0.5238240000000  0.5386540000000  0.5522380000000 1.0
C      1  0.5085150000000  0.4393300000000  0.5388080000000 1.0
C      1  0.5181310000000  0.5635520000000  0.4853760000000 1.0
C      1  0.4471590000000  0.4784860000000  0.5153350000000 1.0
C      1  0.5531500000000  0.5078130000000  0.4467550000000 1.0
C      1  0.4875190000000  0.4420840000000  0.5190260000000 1.0
C      1  0.4914410000000  0.4379270000000  0.4431510000000 1.0
C      1  0.4905420000000  0.4633770000000  0.4278030000000 1.0
C      1  0.4893180000000  0.5098140000000  0.4334070000000 1.0
C      1  0.5054870000000  0.4874540000000  0.4282630000000 1.0
C      1  0.4445250000000  0.4996950000000  0.5352930000000 1.0
C      1  0.4656630000000  0.4592210000000  0.5287350000000 1.0
C      1  0.5325900000000  0.4882540000000  0.4363400000000 1.0
C      1  0.4313200000000  0.5031440000000  0.4704230000000 1.0
C      1  0.4659810000000  0.5404650000000  0.4656220000000 1.0
C      1  0.4579830000000  0.5459110000000  0.4364240000000 1.0
C      1  0.4705670000000  0.5594590000000  0.5134880000000 1.0
C      1  0.4876850000000  0.5557140000000  0.4908530000000 1.0
C      1  0.5804440000000  0.4693950000000  0.5347890000000 1.0
C      1  0.4863210000000  0.4761150000000  0.4853470000000 1.0
C      1  0.5042600000000  0.4316840000000  0.4692290000000 1.0
C      1  0.5428540000000  0.4834130000000  0.4623690000000 1.0
C      1  0.5702730000000  0.5213230000000  0.5380500000000 1.0
C      1  0.4397890000000  0.5299440000000  0.4796570000000 1.0
C      1  0.4744460000000  0.4686070000000  0.5544240000000 1.0
C      1  0.4337780000000  0.5261690000000  0.5307470000000 1.0
C      1  0.4299650000000  0.5390780000000  0.5053680000000 1.0
C      1  0.4623580000000  0.4681980000000  0.4707230000000 1.0
C      1  0.4985470000000  0.4501530000000  0.4922720000000 1.0
C      1  0.5270140000000  0.4886220000000  0.4859190000000 1.0
C      1  0.4621170000000  0.4948860000000  0.5590500000000 1.0
C      1  0.5650480000000  0.4498410000000  0.5326830000000 1.0
C      1  0.4471180000000  0.5537830000000  0.5262830000000 1.0
C      1  0.5404640000000  0.5604820000000  0.4827540000000 1.0
C      1  0.4610420000000  0.5174380000000  0.4255650000000 1.0
C      1  0.5895240000000  0.4949420000000  0.5375910000000 1.0
C      1  0.5306990000000  0.4974620000000  0.5597590000000 1.0
C      1  0.4952210000000  0.5287240000000  0.5041820000000 1.0
C      1  0.4797230000000  0.5157340000000  0.5661030000000 1.0
C      1  0.4681050000000  0.4562850000000  0.4442120000000 1.0
END
