TITL C-883732-77-443 16.2817558873434 125000 -27349.6504620913 0 0 182 (C1) n - 1
REM
REM in /home/nfs/bkarasulu/CARBON/AIRSS/Generating-Clusters/ReaxFF-fromJPCA2015/Units_Real/with-SteepDescent/Only-C1/SD-CG/Try1-3A/FIRE-CG
REM
REM
REM
REM
REM
REM ./C.cell (11c1c37f851c82e70ff6c80c92926a4b)
REM
REM compiler GCC version 9.2.1 20190827 (Red Hat 9.2.1-1)
REM options -cpp -mtune=generic -march=x86-64 -g -O0 -fpre-include=/usr/include/finclude/math-vector-fortran.h
REM seed 24086635 -1810795636 1703765213 612947601 -280072900 1211572965 -1772730720 -314229048 1584969058 436669867 192566340 -958974575 143123060 635698037 1402975691 -1441637190 -114646776 239522142 -1983758468 -1734634762 2052986595 -259534316 -125158549 -429183196 672669556 -526760467 -68101051 39682012 1359676974 90643113 749006822 1531207722 1153705026
REM
CELL 1.54180   50.00000   50.00000   50.00000   90.00000   90.00000   90.00000
LATT -1
SFAC C  
C      1  0.5430640000000  0.4641490000000  0.5920810000000 1.0
C      1  0.3936210000000  0.4915410000000  0.5007820000000 1.0
C      1  0.4872720000000  0.4651430000000  0.5457280000000 1.0
C      1  0.5075260000000  0.4271740000000  0.5850620000000 1.0
C      1  0.5512410000000  0.6078080000000  0.4531260000000 1.0
C      1  0.4788850000000  0.3812550000000  0.5197920000000 1.0
C      1  0.4242110000000  0.5486310000000  0.5629000000000 1.0
C      1  0.4096830000000  0.5506440000000  0.5352400000000 1.0
C      1  0.5928000000000  0.5269920000000  0.4994420000000 1.0
C      1  0.5465180000000  0.5525840000000  0.4053080000000 1.0
C      1  0.5128790000000  0.4950950000000  0.4041080000000 1.0
C      1  0.4320710000000  0.5541630000000  0.4438780000000 1.0
C      1  0.5398920000000  0.5668990000000  0.5182380000000 1.0
C      1  0.5453800000000  0.4850940000000  0.5206590000000 1.0
C      1  0.5568410000000  0.4832060000000  0.4277980000000 1.0
C      1  0.4224670000000  0.4186580000000  0.5105560000000 1.0
C      1  0.4241970000000  0.5182030000000  0.4254290000000 1.0
C      1  0.5271300000000  0.4940700000000  0.5573680000000 1.0
C      1  0.5783490000000  0.5649830000000  0.5465040000000 1.0
C      1  0.4894770000000  0.5862990000000  0.5014160000000 1.0
C      1  0.5063010000000  0.5257500000000  0.4955620000000 1.0
C      1  0.4769160000000  0.5022660000000  0.6114730000000 1.0
C      1  0.5149780000000  0.4099110000000  0.5328160000000 1.0
C      1  0.4716080000000  0.5567320000000  0.5895930000000 1.0
C      1  0.4722460000000  0.5091340000000  0.3893310000000 1.0
C      1  0.4979300000000  0.4986050000000  0.4912040000000 1.0
C      1  0.4985500000000  0.4991220000000  0.3810320000000 1.0
C      1  0.4919590000000  0.5473050000000  0.4159470000000 1.0
C      1  0.4164650000000  0.4170880000000  0.4816970000000 1.0
C      1  0.4617040000000  0.3983520000000  0.4727770000000 1.0
C      1  0.4282450000000  0.5231780000000  0.5727110000000 1.0
C      1  0.5314660000000  0.5639350000000  0.4909240000000 1.0
C      1  0.5601320000000  0.5097380000000  0.5903720000000 1.0
C      1  0.6041960000000  0.5093920000000  0.4775360000000 1.0
C      1  0.4045370000000  0.5275020000000  0.5187740000000 1.0
C      1  0.4972050000000  0.5877230000000  0.5293080000000 1.0
C      1  0.5339380000000  0.5906780000000  0.5621870000000 1.0
C      1  0.5110610000000  0.4581180000000  0.5010320000000 1.0
C      1  0.5822430000000  0.5398080000000  0.4428580000000 1.0
C      1  0.4815390000000  0.6089580000000  0.4831730000000 1.0
C      1  0.4614670000000  0.4837330000000  0.5900880000000 1.0
C      1  0.5064000000000  0.4795520000000  0.4276970000000 1.0
C      1  0.5699740000000  0.5364810000000  0.6000850000000 1.0
C      1  0.4419580000000  0.5398510000000  0.4180910000000 1.0
C      1  0.5434770000000  0.5500450000000  0.4489480000000 1.0
C      1  0.5943180000000  0.4886880000000  0.5351230000000 1.0
C      1  0.4796490000000  0.5387060000000  0.5677340000000 1.0
C      1  0.4497250000000  0.5423600000000  0.5269040000000 1.0
C      1  0.4306510000000  0.4645290000000  0.5339170000000 1.0
C      1  0.4770210000000  0.4327830000000  0.5782220000000 1.0
C      1  0.4376850000000  0.4116420000000  0.4621400000000 1.0
C      1  0.4720170000000  0.5427030000000  0.4640980000000 1.0
C      1  0.5182820000000  0.5496270000000  0.4067010000000 1.0
C      1  0.5102580000000  0.3987910000000  0.4826110000000 1.0
C      1  0.4653300000000  0.5290570000000  0.5455010000000 1.0
C      1  0.4792720000000  0.5090190000000  0.5312260000000 1.0
C      1  0.5040680000000  0.5677210000000  0.4820240000000 1.0
C      1  0.5715630000000  0.4491480000000  0.4652580000000 1.0
C      1  0.5916150000000  0.5567250000000  0.4956290000000 1.0
C      1  0.4889230000000  0.4011600000000  0.4630130000000 1.0
C      1  0.5844000000000  0.5358610000000  0.5477530000000 1.0
C      1  0.5541710000000  0.5603890000000  0.5923620000000 1.0
C      1  0.4915240000000  0.4698720000000  0.5180200000000 1.0
C      1  0.5922610000000  0.4690060000000  0.4607480000000 1.0
C      1  0.4120540000000  0.4750500000000  0.4412010000000 1.0
C      1  0.4722740000000  0.4030690000000  0.5687320000000 1.0
C      1  0.4638090000000  0.5966390000000  0.4615670000000 1.0
C      1  0.4995480000000  0.3983090000000  0.5809910000000 1.0
C      1  0.4885340000000  0.5451430000000  0.4863280000000 1.0
C      1  0.5322810000000  0.4171680000000  0.4767530000000 1.0
C      1  0.5667380000000  0.4810280000000  0.5842460000000 1.0
C      1  0.5345840000000  0.5980170000000  0.4308020000000 1.0
C      1  0.5198050000000  0.4779460000000  0.6034630000000 1.0
C      1  0.5460450000000  0.4289820000000  0.5524330000000 1.0
C      1  0.5761520000000  0.4777610000000  0.5567320000000 1.0
C      1  0.5531620000000  0.4703150000000  0.4781910000000 1.0
C      1  0.5015100000000  0.4492140000000  0.4768970000000 1.0
C      1  0.4192080000000  0.5719860000000  0.5166580000000 1.0
C      1  0.4513070000000  0.5192660000000  0.4633640000000 1.0
C      1  0.4542930000000  0.4607070000000  0.4848960000000 1.0
C      1  0.5061270000000  0.5009520000000  0.6171010000000 1.0
C      1  0.5934910000000  0.5144480000000  0.4511040000000 1.0
C      1  0.4462850000000  0.5656730000000  0.5734420000000 1.0
C      1  0.5464730000000  0.5709110000000  0.4280710000000 1.0
C      1  0.4093800000000  0.4470220000000  0.4464510000000 1.0
C      1  0.4148600000000  0.4452030000000  0.5191140000000 1.0
C      1  0.5306500000000  0.4638290000000  0.4329750000000 1.0
C      1  0.4740260000000  0.4504750000000  0.4680500000000 1.0
C      1  0.5507180000000  0.4154500000000  0.4230370000000 1.0
C      1  0.4568280000000  0.4534390000000  0.5887790000000 1.0
C      1  0.4155070000000  0.4896750000000  0.4659380000000 1.0
C      1  0.3996660000000  0.4391400000000  0.4730020000000 1.0
C      1  0.5035490000000  0.4920950000000  0.4654520000000 1.0
C      1  0.5075100000000  0.5135490000000  0.5387670000000 1.0
C      1  0.4982160000000  0.4212860000000  0.4419970000000 1.0
C      1  0.5245320000000  0.4471420000000  0.4094920000000 1.0
C      1  0.4132570000000  0.4776140000000  0.5739610000000 1.0
C      1  0.5969570000000  0.5171540000000  0.5293050000000 1.0
C      1  0.4472020000000  0.5707400000000  0.5274910000000 1.0
C      1  0.5095940000000  0.6160490000000  0.4807710000000 1.0
C      1  0.4319330000000  0.4520140000000  0.5749230000000 1.0
C      1  0.4321440000000  0.4983300000000  0.5822260000000 1.0
C      1  0.4853700000000  0.4879450000000  0.4453180000000 1.0
C      1  0.5489310000000  0.4761390000000  0.5472410000000 1.0
C      1  0.5586510000000  0.5230750000000  0.5446430000000 1.0
C      1  0.4433140000000  0.5728610000000  0.4649250000000 1.0
C      1  0.4561210000000  0.5833690000000  0.5535270000000 1.0
C      1  0.3916230000000  0.5022210000000  0.5288160000000 1.0
C      1  0.5969810000000  0.4709720000000  0.5118940000000 1.0
C      1  0.5608600000000  0.5867310000000  0.5169030000000 1.0
C      1  0.5598340000000  0.5058310000000  0.4099140000000 1.0
C      1  0.4327480000000  0.4298610000000  0.4393290000000 1.0
C      1  0.5379920000000  0.6180640000000  0.4784300000000 1.0
C      1  0.4018850000000  0.4895840000000  0.5519840000000 1.0
C      1  0.5702550000000  0.5921240000000  0.4688590000000 1.0
C      1  0.5672000000000  0.5347300000000  0.4188200000000 1.0
C      1  0.5403420000000  0.4637880000000  0.5034240000000 1.0
C      1  0.5795750000000  0.4300770000000  0.4883370000000 1.0
C      1  0.4725360000000  0.5011160000000  0.5031600000000 1.0
C      1  0.6031220000000  0.4813900000000  0.4845600000000 1.0
C      1  0.5230880000000  0.5510470000000  0.5672900000000 1.0
C      1  0.5202690000000  0.5328180000000  0.4497060000000 1.0
C      1  0.5844650000000  0.5723360000000  0.5189970000000 1.0
C      1  0.4678750000000  0.5330560000000  0.4053450000000 1.0
C      1  0.5554670000000  0.4381860000000  0.5212290000000 1.0
C      1  0.4947610000000  0.5482880000000  0.4467840000000 1.0
C      1  0.4523370000000  0.4427800000000  0.4217720000000 1.0
C      1  0.5095140000000  0.4831060000000  0.5770000000000 1.0
C      1  0.5206720000000  0.4372940000000  0.4576330000000 1.0
C      1  0.5608280000000  0.5205280000000  0.4891630000000 1.0
C      1  0.4206470000000  0.5285080000000  0.4526480000000 1.0
C      1  0.5587250000000  0.5755190000000  0.5674420000000 1.0
C      1  0.4836050000000  0.5950350000000  0.5532470000000 1.0
C      1  0.4830200000000  0.5987530000000  0.4429570000000 1.0
C      1  0.4025270000000  0.5100520000000  0.4818080000000 1.0
C      1  0.5509220000000  0.4983860000000  0.4723850000000 1.0
C      1  0.5221310000000  0.5729690000000  0.5408810000000 1.0
C      1  0.4410660000000  0.3990930000000  0.5218510000000 1.0
C      1  0.5057810000000  0.5926250000000  0.5735640000000 1.0
C      1  0.5066550000000  0.5307590000000  0.6141970000000 1.0
C      1  0.4783450000000  0.5313410000000  0.6110410000000 1.0
C      1  0.5601280000000  0.6028740000000  0.4934300000000 1.0
C      1  0.4589470000000  0.4973490000000  0.4454450000000 1.0
C      1  0.4441430000000  0.4890270000000  0.5263420000000 1.0
C      1  0.5047240000000  0.4492610000000  0.3864200000000 1.0
C      1  0.4957650000000  0.4221240000000  0.5369690000000 1.0
C      1  0.4423640000000  0.4433020000000  0.5498580000000 1.0
C      1  0.5648010000000  0.4297220000000  0.4399250000000 1.0
C      1  0.5053740000000  0.5288020000000  0.5634140000000 1.0
C      1  0.4472800000000  0.4682000000000  0.4082660000000 1.0
C      1  0.5349140000000  0.5032440000000  0.3977910000000 1.0
C      1  0.5479650000000  0.5143550000000  0.5174480000000 1.0
C      1  0.5027630000000  0.4196360000000  0.3866230000000 1.0
C      1  0.4268730000000  0.4680880000000  0.4817660000000 1.0
C      1  0.5222330000000  0.5299820000000  0.5191010000000 1.0
C      1  0.4742910000000  0.4401680000000  0.4409130000000 1.0
C      1  0.5799850000000  0.5630520000000  0.4693220000000 1.0
C      1  0.5182210000000  0.4185440000000  0.4144450000000 1.0
C      1  0.5265030000000  0.5063620000000  0.4583750000000 1.0
C      1  0.4363160000000  0.4878630000000  0.4273270000000 1.0
C      1  0.4357020000000  0.5183240000000  0.5148080000000 1.0
C      1  0.5431390000000  0.5154260000000  0.5671660000000 1.0
C      1  0.4823930000000  0.4827230000000  0.5681850000000 1.0
C      1  0.5820820000000  0.4874940000000  0.4411680000000 1.0
C      1  0.5422740000000  0.4013020000000  0.5513570000000 1.0
C      1  0.4034870000000  0.4595100000000  0.4962320000000 1.0
C      1  0.4633850000000  0.4722630000000  0.5096450000000 1.0
C      1  0.5538860000000  0.4196210000000  0.4968550000000 1.0
C      1  0.4874100000000  0.4723340000000  0.3773060000000 1.0
C      1  0.5330530000000  0.4405720000000  0.5777740000000 1.0
C      1  0.5528900000000  0.5492300000000  0.4760330000000 1.0
C      1  0.4295540000000  0.5720590000000  0.4899780000000 1.0
C      1  0.4973930000000  0.5737810000000  0.5929140000000 1.0
C      1  0.5206290000000  0.5555230000000  0.5970670000000 1.0
C      1  0.5066660000000  0.5991480000000  0.4343060000000 1.0
C      1  0.5047900000000  0.3914550000000  0.5107720000000 1.0
C      1  0.4627780000000  0.3934980000000  0.5422540000000 1.0
C      1  0.4503810000000  0.5129970000000  0.4906960000000 1.0
C      1  0.5842560000000  0.4443820000000  0.5132940000000 1.0
C      1  0.4631360000000  0.4813280000000  0.3895220000000 1.0
C      1  0.4577060000000  0.3875060000000  0.5004190000000 1.0
C      1  0.4764420000000  0.4390850000000  0.5477270000000 1.0
END
