TITL C-884129-4740-198 5.2332524281165 125000 -14285.8260196603 0 0 96 (C1) n - 1
REM
REM in /home/nfs/bkarasulu/CARBON/AIRSS/Generating-Clusters/ReaxFF-fromJPCA2015/Units_Real/with-SteepDescent/Only-C1/SD-CG/Try1-3A/FIRE-CG
REM
REM
REM
REM
REM
REM ./C.cell (11c1c37f851c82e70ff6c80c92926a4b)
REM
REM compiler GCC version 9.2.1 20190827 (Red Hat 9.2.1-1)
REM options -cpp -mtune=generic -march=x86-64 -g -O0 -fpre-include=/usr/include/finclude/math-vector-fortran.h
REM seed 498201825 -1230123868 -547809386 -582914853 481517179 2050642417 -1537222496 -1197339969 -546177652 737994654 -628073652 -1557072135 -288621670 1638155553 1148725136 -5036660 252708048 -209526412 1208203070 1393699927 -297197477 -442967271 -2075645962 -238332923 -1116765449 -1722657557 1377084986 -2109853841 -1019794859 -917157548 -1134992577 -802581464 69508350
REM
CELL 1.54180   50.00000   50.00000   50.00000   90.00000   90.00000   90.00000
LATT -1
SFAC C  
C      1  0.5729430000000  0.5278710000000  0.4599550000000 1.0
C      1  0.5224950000000  0.4180220000000  0.4624210000000 1.0
C      1  0.5654770000000  0.5405620000000  0.5247870000000 1.0
C      1  0.4714950000000  0.4903740000000  0.4864980000000 1.0
C      1  0.5474940000000  0.4967550000000  0.4360320000000 1.0
C      1  0.4523350000000  0.4881920000000  0.4208970000000 1.0
C      1  0.5014340000000  0.4750210000000  0.5606710000000 1.0
C      1  0.4343070000000  0.5100900000000  0.5356560000000 1.0
C      1  0.4389970000000  0.4563310000000  0.5641530000000 1.0
C      1  0.5465330000000  0.4961010000000  0.5749070000000 1.0
C      1  0.5717980000000  0.4705670000000  0.5331910000000 1.0
C      1  0.4913820000000  0.5646620000000  0.4557760000000 1.0
C      1  0.4565740000000  0.4946270000000  0.5363880000000 1.0
C      1  0.4901680000000  0.5378370000000  0.5099290000000 1.0
C      1  0.5330910000000  0.4908670000000  0.4627160000000 1.0
C      1  0.4466160000000  0.5350920000000  0.5476740000000 1.0
C      1  0.4641950000000  0.4678490000000  0.5757290000000 1.0
C      1  0.4293280000000  0.4506260000000  0.4928350000000 1.0
C      1  0.4196010000000  0.5178610000000  0.4628860000000 1.0
C      1  0.5339710000000  0.4596240000000  0.4716940000000 1.0
C      1  0.5153710000000  0.5349760000000  0.5775460000000 1.0
C      1  0.5173700000000  0.4370020000000  0.4378800000000 1.0
C      1  0.5378410000000  0.5414680000000  0.5604880000000 1.0
C      1  0.5860290000000  0.4941050000000  0.5239980000000 1.0
C      1  0.5155900000000  0.5266980000000  0.5158660000000 1.0
C      1  0.5613550000000  0.4593600000000  0.4848600000000 1.0
C      1  0.5418530000000  0.4299160000000  0.5159810000000 1.0
C      1  0.4918680000000  0.4489530000000  0.4331730000000 1.0
C      1  0.4717090000000  0.4369450000000  0.4495190000000 1.0
C      1  0.5626240000000  0.4514840000000  0.5126960000000 1.0
C      1  0.4819480000000  0.4352280000000  0.4778530000000 1.0
C      1  0.4686040000000  0.4230970000000  0.5012960000000 1.0
C      1  0.4789340000000  0.4804360000000  0.5382060000000 1.0
C      1  0.5292760000000  0.5412140000000  0.4382930000000 1.0
C      1  0.5084250000000  0.5043130000000  0.4635370000000 1.0
C      1  0.5234310000000  0.5717000000000  0.5132170000000 1.0
C      1  0.4659480000000  0.5264070000000  0.5689660000000 1.0
C      1  0.5030260000000  0.5233230000000  0.4436510000000 1.0
C      1  0.5044190000000  0.4534240000000  0.4852110000000 1.0
C      1  0.5652720000000  0.5490410000000  0.4779310000000 1.0
C      1  0.4207760000000  0.5226260000000  0.4917830000000 1.0
C      1  0.5847480000000  0.5027930000000  0.4722590000000 1.0
C      1  0.4701500000000  0.5619230000000  0.4371200000000 1.0
C      1  0.4736650000000  0.5249600000000  0.4885190000000 1.0
C      1  0.4456580000000  0.4451920000000  0.5370090000000 1.0
C      1  0.5902970000000  0.5092590000000  0.4996380000000 1.0
C      1  0.5764940000000  0.4753720000000  0.4654190000000 1.0
C      1  0.5163870000000  0.4921010000000  0.5195330000000 1.0
C      1  0.4872610000000  0.4314200000000  0.5225510000000 1.0
C      1  0.5801390000000  0.5381490000000  0.5003670000000 1.0
C      1  0.5375430000000  0.5479810000000  0.5308800000000 1.0
C      1  0.4812130000000  0.4801660000000  0.4311920000000 1.0
C      1  0.4414530000000  0.4313500000000  0.5114720000000 1.0
C      1  0.4856140000000  0.5371870000000  0.4637480000000 1.0
C      1  0.4698560000000  0.4993540000000  0.5808670000000 1.0
C      1  0.4375850000000  0.4812910000000  0.4898000000000 1.0
C      1  0.4875210000000  0.5721770000000  0.5611700000000 1.0
C      1  0.5098570000000  0.5870520000000  0.5509260000000 1.0
C      1  0.5559420000000  0.5195400000000  0.5620520000000 1.0
C      1  0.4941970000000  0.5658850000000  0.5144460000000 1.0
C      1  0.4883730000000  0.5078240000000  0.4216270000000 1.0
C      1  0.4331150000000  0.4425520000000  0.4669160000000 1.0
C      1  0.5425520000000  0.4502100000000  0.4442340000000 1.0
C      1  0.4433170000000  0.4452620000000  0.4419410000000 1.0
C      1  0.5251470000000  0.4767010000000  0.5436240000000 1.0
C      1  0.4485010000000  0.5594730000000  0.5315930000000 1.0
C      1  0.4951940000000  0.4769980000000  0.4989970000000 1.0
C      1  0.5656960000000  0.5135760000000  0.5343060000000 1.0
C      1  0.4609920000000  0.5158460000000  0.4193220000000 1.0
C      1  0.4881880000000  0.5450730000000  0.5728000000000 1.0
C      1  0.5423830000000  0.5071670000000  0.4867140000000 1.0
C      1  0.5515740000000  0.4749740000000  0.5546870000000 1.0
C      1  0.4875660000000  0.4501420000000  0.5698010000000 1.0
C      1  0.5248800000000  0.4266410000000  0.5401370000000 1.0
C      1  0.4707280000000  0.4561720000000  0.5248100000000 1.0
C      1  0.5289230000000  0.5968310000000  0.5312100000000 1.0
C      1  0.4341400000000  0.4740620000000  0.4388480000000 1.0
C      1  0.4239480000000  0.4999980000000  0.5093040000000 1.0
C      1  0.4469460000000  0.5349580000000  0.4976700000000 1.0
C      1  0.5309860000000  0.4200650000000  0.4898340000000 1.0
C      1  0.4844690000000  0.4887800000000  0.4605240000000 1.0
C      1  0.5362390000000  0.5581700000000  0.4817610000000 1.0
C      1  0.5214790000000  0.5077220000000  0.5862810000000 1.0
C      1  0.5221990000000  0.5625200000000  0.4554610000000 1.0
C      1  0.4430890000000  0.5633610000000  0.5015530000000 1.0
C      1  0.4969550000000  0.4294930000000  0.5507730000000 1.0
C      1  0.5619430000000  0.4722410000000  0.4396460000000 1.0
C      1  0.4968370000000  0.4926120000000  0.5870760000000 1.0
C      1  0.5536040000000  0.5251550000000  0.4373260000000 1.0
C      1  0.5443620000000  0.4968890000000  0.5130790000000 1.0
C      1  0.4305570000000  0.5646450000000  0.4740910000000 1.0
C      1  0.4273720000000  0.4899620000000  0.4625710000000 1.0
C      1  0.4735260000000  0.5739440000000  0.5350900000000 1.0
C      1  0.5250980000000  0.5300130000000  0.4881930000000 1.0
C      1  0.4310390000000  0.5435230000000  0.4526540000000 1.0
C      1  0.4506010000000  0.5426410000000  0.4298290000000 1.0
END
