TITL C-884132-5695-285 39.039301141752 125000 -13249.0214386887 0 0 91 (C1) n - 1
REM
REM in /home/nfs/bkarasulu/CARBON/AIRSS/Generating-Clusters/ReaxFF-fromJPCA2015/Units_Real/with-SteepDescent/Only-C1/SD-CG/Try1-3A/FIRE-CG
REM
REM
REM
REM
REM
REM ./C.cell (11c1c37f851c82e70ff6c80c92926a4b)
REM
REM compiler GCC version 9.2.1 20190827 (Red Hat 9.2.1-1)
REM options -cpp -mtune=generic -march=x86-64 -g -O0 -fpre-include=/usr/include/finclude/math-vector-fortran.h
REM seed 1368760745 372040566 1216444268 580466694 -463296771 377904473 -1238598949 -347272442 -1596751117 2134603356 230067442 912736098 -1396416438 -986684608 1347527921 -455707312 -1172126283 -761742833 -1176950259 -631546694 -2003654831 -1920714975 522540063 1122622107 -924323681 433049581 -1881100083 1646865945 -611898410 1202469310 -525505838 -1283400490 1296283149
REM
CELL 1.54180   50.00000   50.00000   50.00000   90.00000   90.00000   90.00000
LATT -1
SFAC C  
C      1  0.4673690000000  0.5572790000000  0.5388350000000 1.0
C      1  0.4962770000000  0.5031680000000  0.5808590000000 1.0
C      1  0.5657030000000  0.5647290000000  0.4833320000000 1.0
C      1  0.5047960000000  0.5837140000000  0.5082480000000 1.0
C      1  0.4551940000000  0.4868530000000  0.5381450000000 1.0
C      1  0.5141480000000  0.4191930000000  0.4939880000000 1.0
C      1  0.4882900000000  0.4659510000000  0.5444920000000 1.0
C      1  0.4779630000000  0.5852760000000  0.4939650000000 1.0
C      1  0.4678080000000  0.4246190000000  0.4941400000000 1.0
C      1  0.4410170000000  0.5565860000000  0.4772660000000 1.0
C      1  0.4535730000000  0.4766920000000  0.4681170000000 1.0
C      1  0.5003860000000  0.4814550000000  0.4175150000000 1.0
C      1  0.5387690000000  0.4497600000000  0.4643280000000 1.0
C      1  0.5309870000000  0.5083300000000  0.5459580000000 1.0
C      1  0.5236320000000  0.5218470000000  0.5027990000000 1.0
C      1  0.5061920000000  0.4519070000000  0.5620710000000 1.0
C      1  0.4509070000000  0.4731870000000  0.5137340000000 1.0
C      1  0.5208210000000  0.4622330000000  0.5061550000000 1.0
C      1  0.5100930000000  0.4753290000000  0.5821140000000 1.0
C      1  0.5809970000000  0.4737030000000  0.5260010000000 1.0
C      1  0.4932870000000  0.4423740000000  0.4508210000000 1.0
C      1  0.4490320000000  0.5757750000000  0.4977980000000 1.0
C      1  0.4613230000000  0.4190930000000  0.5456510000000 1.0
C      1  0.5039200000000  0.4923490000000  0.4656400000000 1.0
C      1  0.5543380000000  0.5482570000000  0.5464050000000 1.0
C      1  0.5625630000000  0.4658540000000  0.5464810000000 1.0
C      1  0.4910690000000  0.4260200000000  0.4775260000000 1.0
C      1  0.4414190000000  0.4383400000000  0.4934480000000 1.0
C      1  0.5078690000000  0.5454720000000  0.4480980000000 1.0
C      1  0.5533260000000  0.5440850000000  0.4651400000000 1.0
C      1  0.5008770000000  0.5116640000000  0.4886160000000 1.0
C      1  0.4742230000000  0.4912840000000  0.4141100000000 1.0
C      1  0.5077360000000  0.4188280000000  0.5232620000000 1.0
C      1  0.5773630000000  0.4610010000000  0.4996410000000 1.0
C      1  0.4637440000000  0.4700810000000  0.5591030000000 1.0
C      1  0.5589290000000  0.4393920000000  0.5042850000000 1.0
C      1  0.5237030000000  0.5797330000000  0.4862470000000 1.0
C      1  0.5603550000000  0.5144790000000  0.5481950000000 1.0
C      1  0.5219420000000  0.4517150000000  0.4408410000000 1.0
C      1  0.4799000000000  0.5286980000000  0.4959490000000 1.0
C      1  0.4738930000000  0.5395260000000  0.5616020000000 1.0
C      1  0.5433360000000  0.4491490000000  0.5293210000000 1.0
C      1  0.4787640000000  0.4705910000000  0.4551510000000 1.0
C      1  0.4566050000000  0.5334260000000  0.4460530000000 1.0
C      1  0.4355540000000  0.5074100000000  0.5412550000000 1.0
C      1  0.5015600000000  0.4779820000000  0.5208970000000 1.0
C      1  0.4954640000000  0.5275210000000  0.4116170000000 1.0
C      1  0.4317180000000  0.4579010000000  0.4738240000000 1.0
C      1  0.5660440000000  0.4944400000000  0.4571610000000 1.0
C      1  0.5523110000000  0.5279810000000  0.4947580000000 1.0
C      1  0.5283330000000  0.5588160000000  0.5573170000000 1.0
C      1  0.5480680000000  0.5787770000000  0.5019160000000 1.0
C      1  0.4194300000000  0.5147950000000  0.5168580000000 1.0
C      1  0.4833110000000  0.5474950000000  0.5161610000000 1.0
C      1  0.5241300000000  0.5213040000000  0.4102970000000 1.0
C      1  0.5572870000000  0.5156670000000  0.4460740000000 1.0
C      1  0.4343470000000  0.5320200000000  0.4662990000000 1.0
C      1  0.5774290000000  0.5029540000000  0.5264610000000 1.0
C      1  0.4684120000000  0.4968760000000  0.5756130000000 1.0
C      1  0.5087610000000  0.5413670000000  0.5271590000000 1.0
C      1  0.4541680000000  0.4911350000000  0.4929710000000 1.0
C      1  0.4184980000000  0.5103100000000  0.4856030000000 1.0
C      1  0.5073690000000  0.5237080000000  0.5497810000000 1.0
C      1  0.4695220000000  0.5199890000000  0.4227980000000 1.0
C      1  0.5262940000000  0.4757660000000  0.4242440000000 1.0
C      1  0.5439220000000  0.5024440000000  0.4241740000000 1.0
C      1  0.4359530000000  0.5375460000000  0.5131010000000 1.0
C      1  0.5608310000000  0.5526020000000  0.5106750000000 1.0
C      1  0.5726460000000  0.5081160000000  0.4993000000000 1.0
C      1  0.5586030000000  0.4871010000000  0.5665860000000 1.0
C      1  0.5340570000000  0.4845580000000  0.5794000000000 1.0
C      1  0.4140300000000  0.4822640000000  0.4780790000000 1.0
C      1  0.5106660000000  0.5706340000000  0.5345170000000 1.0
C      1  0.4790450000000  0.4162270000000  0.5203690000000 1.0
C      1  0.5219050000000  0.4993950000000  0.5209410000000 1.0
C      1  0.5410210000000  0.4280460000000  0.4846440000000 1.0
C      1  0.4432090000000  0.5635960000000  0.5241440000000 1.0
C      1  0.5007150000000  0.5326950000000  0.5724140000000 1.0
C      1  0.5767060000000  0.4852550000000  0.4813600000000 1.0
C      1  0.4469950000000  0.4441430000000  0.5471510000000 1.0
C      1  0.4530840000000  0.5178100000000  0.5633440000000 1.0
C      1  0.4780400000000  0.5743240000000  0.4683430000000 1.0
C      1  0.5211700000000  0.4347510000000  0.5440500000000 1.0
C      1  0.5250540000000  0.4704390000000  0.4794130000000 1.0
C      1  0.4776220000000  0.5542030000000  0.4487820000000 1.0
C      1  0.4626400000000  0.4668120000000  0.4286340000000 1.0
C      1  0.5285700000000  0.5598410000000  0.4642180000000 1.0
C      1  0.5086230000000  0.5164390000000  0.4489340000000 1.0
C      1  0.4363360000000  0.4487440000000  0.5201700000000 1.0
C      1  0.4714980000000  0.4393230000000  0.4275860000000 1.0
C      1  0.4546110000000  0.5194800000000  0.4991650000000 1.0
END
