TITL C-883738-3659-1 8831126.41462822 125000 -21041.6059148074 0 0 143 (C1) n - 1
REM
REM in /home/nfs/bkarasulu/CARBON/AIRSS/Generating-Clusters/ReaxFF-fromJPCA2015/Units_Real/with-SteepDescent/Only-C1/SD-CG/Try1-3A/FIRE-CG
REM
REM
REM
REM
REM
REM ./C.cell (11c1c37f851c82e70ff6c80c92926a4b)
REM
REM compiler GCC version 9.2.1 20190827 (Red Hat 9.2.1-1)
REM options -cpp -mtune=generic -march=x86-64 -g -O0 -fpre-include=/usr/include/finclude/math-vector-fortran.h
REM seed -1327452646 904772569 899891950 -1418659553 -700919153 -721258712 44825244 1434533827 -675252036 1168567181 2042509504 1959116993 961576082 1420334392 -702575805 2054507236 527433143 1210562587 847354796 -534156093 -1367188811 314649554 1995343321 979858555 1805275467 -1625365127 -1325009025 2145591801 -963239633 -971360283 1262217228 723165762 705496403
REM
CELL 1.54180   50.00000   50.00000   50.00000   90.00000   90.00000   90.00000
LATT -1
SFAC C  
C      1  0.5867000000000  0.5215250000000  0.4680850000000 1.0
C      1  0.5195280000000  0.5537010000000  0.5047770000000 1.0
C      1  0.4776850000000  0.6018090000000  0.5358020000000 1.0
C      1  0.4497610000000  0.4741780000000  0.5931870000000 1.0
C      1  0.4898190000000  0.4326600000000  0.4176850000000 1.0
C      1  0.5588960000000  0.5814880000000  0.4866300000000 1.0
C      1  0.4502660000000  0.5902960000000  0.4963410000000 1.0
C      1  0.5960410000000  0.4971820000000  0.5066520000000 1.0
C      1  0.5382050000000  0.4622560000000  0.4479840000000 1.0
C      1  0.5159660000000  0.4802670000000  0.4939730000000 1.0
C      1  0.4781820000000  0.5444800000000  0.4702250000000 1.0
C      1  0.5703360000000  0.4869100000000  0.5463770000000 1.0
C      1  0.5062410000000  0.5456240000000  0.5323260000000 1.0
C      1  0.5219000000000  0.5628420000000  0.5727480000000 1.0
C      1  0.5876650000000  0.4803720000000  0.4618030000000 1.0
C      1  0.5484060000000  0.4276690000000  0.4150460000000 1.0
C      1  0.4856280000000  0.5980130000000  0.4588130000000 1.0
C      1  0.5674060000000  0.4303720000000  0.5091370000000 1.0
C      1  0.4522300000000  0.4536690000000  0.4468550000000 1.0
C      1  0.5728510000000  0.4488520000000  0.4866190000000 1.0
C      1  0.3903690000000  0.4865820000000  0.4967160000000 1.0
C      1  0.4329530000000  0.5518910000000  0.5536620000000 1.0
C      1  0.5721570000000  0.5529420000000  0.4417860000000 1.0
C      1  0.5594110000000  0.5076700000000  0.4725860000000 1.0
C      1  0.5181480000000  0.5869040000000  0.5014890000000 1.0
C      1  0.5424180000000  0.5097960000000  0.5097230000000 1.0
C      1  0.4328690000000  0.5145230000000  0.4750190000000 1.0
C      1  0.4502020000000  0.4917160000000  0.5042430000000 1.0
C      1  0.5556380000000  0.4936750000000  0.4954660000000 1.0
C      1  0.4772860000000  0.5481870000000  0.5337910000000 1.0
C      1  0.5722780000000  0.5669210000000  0.4665690000000 1.0
C      1  0.5309470000000  0.5931450000000  0.4767730000000 1.0
C      1  0.4741320000000  0.4620900000000  0.4686950000000 1.0
C      1  0.4679780000000  0.3968180000000  0.5156930000000 1.0
C      1  0.4302240000000  0.5729990000000  0.5330840000000 1.0
C      1  0.5149240000000  0.5961540000000  0.4522330000000 1.0
C      1  0.4721770000000  0.4578290000000  0.5982580000000 1.0
C      1  0.5194540000000  0.4017350000000  0.5041510000000 1.0
C      1  0.4749560000000  0.5464480000000  0.5843430000000 1.0
C      1  0.5020130000000  0.4094060000000  0.4316870000000 1.0
C      1  0.5377640000000  0.4188930000000  0.4615680000000 1.0
C      1  0.5160000000000  0.4524020000000  0.4994090000000 1.0
C      1  0.4695470000000  0.3953320000000  0.4634120000000 1.0
C      1  0.4646930000000  0.5309080000000  0.5142040000000 1.0
C      1  0.4333770000000  0.4721760000000  0.5685480000000 1.0
C      1  0.4176460000000  0.5283890000000  0.5464310000000 1.0
C      1  0.4046990000000  0.5350790000000  0.5211770000000 1.0
C      1  0.4163840000000  0.5605160000000  0.5110650000000 1.0
C      1  0.4916760000000  0.4781660000000  0.4533680000000 1.0
C      1  0.4576610000000  0.5228390000000  0.5875320000000 1.0
C      1  0.5299630000000  0.4454830000000  0.5685090000000 1.0
C      1  0.5727500000000  0.5449120000000  0.5113900000000 1.0
C      1  0.4258440000000  0.5587170000000  0.4571640000000 1.0
C      1  0.5640470000000  0.5736860000000  0.5151570000000 1.0
C      1  0.4700850000000  0.5131380000000  0.4248610000000 1.0
C      1  0.4328360000000  0.4492330000000  0.4968580000000 1.0
C      1  0.5867330000000  0.4621450000000  0.5480470000000 1.0
C      1  0.4720110000000  0.5718970000000  0.4530510000000 1.0
C      1  0.5689750000000  0.5224550000000  0.4301080000000 1.0
C      1  0.4109780000000  0.4677470000000  0.5082410000000 1.0
C      1  0.4689490000000  0.4523460000000  0.4236590000000 1.0
C      1  0.5746800000000  0.5318350000000  0.5368770000000 1.0
C      1  0.5020760000000  0.6046980000000  0.5177190000000 1.0
C      1  0.5682060000000  0.4802480000000  0.5864180000000 1.0
C      1  0.5452940000000  0.4412450000000  0.5457440000000 1.0
C      1  0.4522230000000  0.5362200000000  0.4886210000000 1.0
C      1  0.5872080000000  0.5062450000000  0.5331630000000 1.0
C      1  0.4502450000000  0.4454880000000  0.5217600000000 1.0
C      1  0.4951610000000  0.4950740000000  0.5912790000000 1.0
C      1  0.4530040000000  0.4068780000000  0.5378210000000 1.0
C      1  0.4972570000000  0.3986440000000  0.4576630000000 1.0
C      1  0.4263330000000  0.4968330000000  0.5509290000000 1.0
C      1  0.5353810000000  0.4550340000000  0.4192940000000 1.0
C      1  0.4969440000000  0.5593120000000  0.4159080000000 1.0
C      1  0.4282870000000  0.4864160000000  0.5216960000000 1.0
C      1  0.5428000000000  0.4153730000000  0.5136540000000 1.0
C      1  0.5276420000000  0.5842090000000  0.5554330000000 1.0
C      1  0.5413950000000  0.5168590000000  0.4257350000000 1.0
C      1  0.4400790000000  0.5542900000000  0.4315250000000 1.0
C      1  0.5049200000000  0.4967060000000  0.5143900000000 1.0
C      1  0.5358690000000  0.5025970000000  0.5969410000000 1.0
C      1  0.4418750000000  0.4264920000000  0.4522320000000 1.0
C      1  0.4846000000000  0.4758680000000  0.4270560000000 1.0
C      1  0.5723300000000  0.4392460000000  0.5366410000000 1.0
C      1  0.4372200000000  0.4229700000000  0.4813770000000 1.0
C      1  0.5132140000000  0.5179830000000  0.5972140000000 1.0
C      1  0.5366730000000  0.5095000000000  0.4540670000000 1.0
C      1  0.5259840000000  0.4364460000000  0.5253850000000 1.0
C      1  0.4926410000000  0.5080280000000  0.4060290000000 1.0
C      1  0.4436340000000  0.5025160000000  0.4315230000000 1.0
C      1  0.4277120000000  0.5273020000000  0.4294850000000 1.0
C      1  0.4417360000000  0.4222910000000  0.5537670000000 1.0
C      1  0.5908170000000  0.4722880000000  0.4876340000000 1.0
C      1  0.4160960000000  0.5309330000000  0.4569580000000 1.0
C      1  0.5535790000000  0.4435390000000  0.4641870000000 1.0
C      1  0.5133160000000  0.5817930000000  0.4248420000000 1.0
C      1  0.5509510000000  0.5419060000000  0.5503620000000 1.0
C      1  0.5193730000000  0.4821860000000  0.4616350000000 1.0
C      1  0.5008890000000  0.4500010000000  0.5638020000000 1.0
C      1  0.5268520000000  0.4515580000000  0.5964710000000 1.0
C      1  0.5881930000000  0.5028950000000  0.4444860000000 1.0
C      1  0.4912060000000  0.4416140000000  0.4889870000000 1.0
C      1  0.5458610000000  0.4882840000000  0.5306310000000 1.0
C      1  0.4972410000000  0.4457390000000  0.5938270000000 1.0
C      1  0.4776010000000  0.4406700000000  0.5157970000000 1.0
C      1  0.5043900000000  0.5465630000000  0.5878620000000 1.0
C      1  0.5448550000000  0.5386400000000  0.5052880000000 1.0
C      1  0.4389260000000  0.4912260000000  0.4587030000000 1.0
C      1  0.5057140000000  0.5304320000000  0.4403250000000 1.0
C      1  0.5886270000000  0.4664710000000  0.5755830000000 1.0
C      1  0.5231550000000  0.5388800000000  0.4593360000000 1.0
C      1  0.4622530000000  0.5540750000000  0.5594450000000 1.0
C      1  0.5125200000000  0.5295860000000  0.4133680000000 1.0
C      1  0.5047940000000  0.6019690000000  0.5462990000000 1.0
C      1  0.5088280000000  0.4523650000000  0.4064740000000 1.0
C      1  0.4555370000000  0.4024770000000  0.4888030000000 1.0
C      1  0.4705490000000  0.6003640000000  0.4818200000000 1.0
C      1  0.4962420000000  0.4286600000000  0.5358350000000 1.0
C      1  0.5048750000000  0.4810520000000  0.4073050000000 1.0
C      1  0.4698300000000  0.5640740000000  0.4251880000000 1.0
C      1  0.4334670000000  0.5641370000000  0.4867430000000 1.0
C      1  0.4809700000000  0.5251070000000  0.4481270000000 1.0
C      1  0.5052690000000  0.5445420000000  0.4815310000000 1.0
C      1  0.5945010000000  0.5227800000000  0.4960460000000 1.0
C      1  0.4379150000000  0.4489460000000  0.5520220000000 1.0
C      1  0.4740160000000  0.4951800000000  0.5493610000000 1.0
C      1  0.4972030000000  0.4835600000000  0.5626090000000 1.0
C      1  0.5404810000000  0.5752190000000  0.4286480000000 1.0
C      1  0.5438530000000  0.4762980000000  0.6016510000000 1.0
C      1  0.3907370000000  0.5150580000000  0.5045400000000 1.0
C      1  0.4964780000000  0.4020750000000  0.5220770000000 1.0
C      1  0.5193360000000  0.4982280000000  0.5402520000000 1.0
C      1  0.4511060000000  0.4746380000000  0.4816110000000 1.0
C      1  0.4523530000000  0.5914830000000  0.5254680000000 1.0
C      1  0.4749480000000  0.5014630000000  0.5181240000000 1.0
C      1  0.4672760000000  0.4984550000000  0.6004930000000 1.0
C      1  0.5125180000000  0.4139180000000  0.4772420000000 1.0
C      1  0.5241490000000  0.5290400000000  0.5474940000000 1.0
C      1  0.4629490000000  0.4104730000000  0.4407470000000 1.0
C      1  0.5491440000000  0.5701530000000  0.5403190000000 1.0
C      1  0.4526740000000  0.5105240000000  0.5604220000000 1.0
C      1  0.5441480000000  0.5560110000000  0.4410300000000 1.0
C      1  0.5319520000000  0.4115750000000  0.4340490000000 1.0
END
