TITL C-883730-8503-402 -18.4475915646341 125000 -12005.0958661452 0 0 80 (C1) n - 1
REM
REM in /home/nfs/bkarasulu/CARBON/AIRSS/Generating-Clusters/ReaxFF-fromJPCA2015/Units_Real/with-SteepDescent/Only-C1/SD-CG/Try1-3A/FIRE-CG
REM
REM
REM
REM
REM
REM ./C.cell (11c1c37f851c82e70ff6c80c92926a4b)
REM
REM compiler GCC version 9.2.1 20190827 (Red Hat 9.2.1-1)
REM options -cpp -mtune=generic -march=x86-64 -g -O0 -fpre-include=/usr/include/finclude/math-vector-fortran.h
REM seed -9979381 -763333543 1851378417 -1718595559 -1459722037 -958815340 1055940632 -1608787654 -972179998 -1047553075 132484111 260086174 1628520522 -1611755177 -1475171122 45028502 1873651911 2091639321 -1092770830 801130744 470863039 -221873087 924093752 -310556542 22526427 1434689052 1160020790 211270674 797969280 584838215 -226924949 -101809922 1781096717
REM
CELL 1.54180   50.00000   50.00000   50.00000   90.00000   90.00000   90.00000
LATT -1
SFAC C  
C      1  0.5696160000000  0.5401020000000  0.5478980000000 1.0
C      1  0.4324950000000  0.5112010000000  0.4754470000000 1.0
C      1  0.4666820000000  0.5706110000000  0.5444140000000 1.0
C      1  0.5280190000000  0.5344750000000  0.4175710000000 1.0
C      1  0.5410780000000  0.4597660000000  0.5574290000000 1.0
C      1  0.4539380000000  0.4235350000000  0.5190890000000 1.0
C      1  0.4378100000000  0.4943280000000  0.5266020000000 1.0
C      1  0.5524810000000  0.5387170000000  0.5011110000000 1.0
C      1  0.4380070000000  0.5358240000000  0.4603440000000 1.0
C      1  0.5693510000000  0.5274570000000  0.5197280000000 1.0
C      1  0.5336270000000  0.5596810000000  0.5068900000000 1.0
C      1  0.5690770000000  0.4561960000000  0.4895550000000 1.0
C      1  0.4336850000000  0.4874330000000  0.4574290000000 1.0
C      1  0.4655160000000  0.5434630000000  0.5572240000000 1.0
C      1  0.4274380000000  0.4640980000000  0.4690380000000 1.0
C      1  0.5839380000000  0.5137250000000  0.4585580000000 1.0
C      1  0.4698650000000  0.5247230000000  0.5079510000000 1.0
C      1  0.4615110000000  0.5361580000000  0.4387450000000 1.0
C      1  0.4793700000000  0.5275690000000  0.5357020000000 1.0
C      1  0.4341980000000  0.4412040000000  0.5120100000000 1.0
C      1  0.5515290000000  0.5282020000000  0.5671210000000 1.0
C      1  0.5775230000000  0.4636200000000  0.4623650000000 1.0
C      1  0.5136170000000  0.5563550000000  0.5273210000000 1.0
C      1  0.5901040000000  0.4890160000000  0.4729870000000 1.0
C      1  0.4406300000000  0.5655170000000  0.5319600000000 1.0
C      1  0.4325770000000  0.4405050000000  0.4822240000000 1.0
C      1  0.4761900000000  0.5741550000000  0.4990050000000 1.0
C      1  0.4749950000000  0.4726310000000  0.5150210000000 1.0
C      1  0.5031030000000  0.4286210000000  0.4792010000000 1.0
C      1  0.5420930000000  0.5212780000000  0.4819420000000 1.0
C      1  0.5397430000000  0.4901500000000  0.4368620000000 1.0
C      1  0.4926980000000  0.5593750000000  0.4777230000000 1.0
C      1  0.5783170000000  0.4820020000000  0.4999560000000 1.0
C      1  0.5360140000000  0.4432180000000  0.5417080000000 1.0
C      1  0.4804570000000  0.4646700000000  0.5685680000000 1.0
C      1  0.4470990000000  0.5697480000000  0.5021710000000 1.0
C      1  0.5437130000000  0.4910280000000  0.5311510000000 1.0
C      1  0.5460000000000  0.4870690000000  0.5609120000000 1.0
C      1  0.4628810000000  0.4409170000000  0.4786010000000 1.0
C      1  0.5350170000000  0.5054000000000  0.4118170000000 1.0
C      1  0.4892250000000  0.5729510000000  0.5248180000000 1.0
C      1  0.5022280000000  0.4277220000000  0.5085480000000 1.0
C      1  0.5017840000000  0.4934610000000  0.4699260000000 1.0
C      1  0.5535360000000  0.5174060000000  0.4549550000000 1.0
C      1  0.4732770000000  0.4899940000000  0.4690740000000 1.0
C      1  0.5046100000000  0.5427530000000  0.4307030000000 1.0
C      1  0.5469910000000  0.4373890000000  0.4935680000000 1.0
C      1  0.4837190000000  0.4394400000000  0.4585210000000 1.0
C      1  0.4494550000000  0.5060470000000  0.5754200000000 1.0
C      1  0.5361370000000  0.5602380000000  0.4594030000000 1.0
C      1  0.5336010000000  0.5090640000000  0.5768340000000 1.0
C      1  0.4629680000000  0.4842360000000  0.4409040000000 1.0
C      1  0.5044330000000  0.5106650000000  0.5683960000000 1.0
C      1  0.4352850000000  0.5113660000000  0.5492870000000 1.0
C      1  0.4368670000000  0.5413960000000  0.5486780000000 1.0
C      1  0.5675390000000  0.4994440000000  0.5191210000000 1.0
C      1  0.5106020000000  0.4801760000000  0.4477690000000 1.0
C      1  0.4972720000000  0.4836730000000  0.5278470000000 1.0
C      1  0.4722470000000  0.4676410000000  0.4874520000000 1.0
C      1  0.4880470000000  0.4630230000000  0.4414530000000 1.0
C      1  0.4404570000000  0.5522970000000  0.4814860000000 1.0
C      1  0.5183410000000  0.5020850000000  0.5200810000000 1.0
C      1  0.4852710000000  0.5517780000000  0.4462380000000 1.0
C      1  0.4913120000000  0.5321520000000  0.4898960000000 1.0
C      1  0.4438610000000  0.5101380000000  0.5030620000000 1.0
C      1  0.5299430000000  0.4305190000000  0.5170450000000 1.0
C      1  0.5087440000000  0.5282720000000  0.5373920000000 1.0
C      1  0.4491920000000  0.4637200000000  0.5284990000000 1.0
C      1  0.5573310000000  0.4635560000000  0.4409320000000 1.0
C      1  0.5232610000000  0.5694520000000  0.4813390000000 1.0
C      1  0.5153350000000  0.5124330000000  0.4890360000000 1.0
C      1  0.4655430000000  0.5107380000000  0.4254080000000 1.0
C      1  0.4800630000000  0.4275800000000  0.5293670000000 1.0
C      1  0.4772970000000  0.5124770000000  0.5830640000000 1.0
C      1  0.5313610000000  0.4302650000000  0.4705830000000 1.0
C      1  0.5417220000000  0.4390950000000  0.4431290000000 1.0
C      1  0.4684270000000  0.4477980000000  0.5483630000000 1.0
C      1  0.4668710000000  0.4852010000000  0.5856280000000 1.0
C      1  0.5460050000000  0.5447220000000  0.4392300000000 1.0
C      1  0.4978370000000  0.4838920000000  0.5561960000000 1.0
END
