TITL C-884131-4643-441 18.9577355061302 125000 -15223.0098625908 0 0 104 (C1) n - 1
REM
REM in /home/nfs/bkarasulu/CARBON/AIRSS/Generating-Clusters/ReaxFF-fromJPCA2015/Units_Real/with-SteepDescent/Only-C1/SD-CG/Try1-3A/FIRE-CG
REM
REM
REM
REM
REM
REM ./C.cell (11c1c37f851c82e70ff6c80c92926a4b)
REM
REM compiler GCC version 9.2.1 20190827 (Red Hat 9.2.1-1)
REM options -cpp -mtune=generic -march=x86-64 -g -O0 -fpre-include=/usr/include/finclude/math-vector-fortran.h
REM seed -1470292932 -394032048 -1183817328 -527767572 979889839 -669705897 688829180 936532041 689112035 1155890462 -620927197 -166655377 1040780615 -2071373263 932326277 -1466816601 -2037466485 492386745 -677791911 -2105561876 313779010 -2086773208 1182768835 141901447 -637383442 833645972 1090847759 -1486677153 -1090790828 -1299103128 -569408442 -319778903 1704401751
REM
CELL 1.54180   50.00000   50.00000   50.00000   90.00000   90.00000   90.00000
LATT -1
SFAC C  
C      1  0.5330110000000  0.5185050000000  0.5124990000000 1.0
C      1  0.4823960000000  0.4639830000000  0.5790290000000 1.0
C      1  0.5058020000000  0.5009940000000  0.4837270000000 1.0
C      1  0.4880690000000  0.5139510000000  0.4204500000000 1.0
C      1  0.4606750000000  0.5056450000000  0.4214990000000 1.0
C      1  0.5786390000000  0.4557070000000  0.5146860000000 1.0
C      1  0.5661440000000  0.5376590000000  0.5687410000000 1.0
C      1  0.4663780000000  0.4467140000000  0.5560480000000 1.0
C      1  0.5472880000000  0.4401140000000  0.4602920000000 1.0
C      1  0.5811960000000  0.5272240000000  0.5196740000000 1.0
C      1  0.5032730000000  0.4798850000000  0.5313430000000 1.0
C      1  0.4445910000000  0.4938770000000  0.5096580000000 1.0
C      1  0.5276150000000  0.4180080000000  0.4906360000000 1.0
C      1  0.5053870000000  0.5463620000000  0.4831640000000 1.0
C      1  0.4817450000000  0.4940850000000  0.5827720000000 1.0
C      1  0.4709220000000  0.4163330000000  0.4774300000000 1.0
C      1  0.4868340000000  0.4513990000000  0.4527140000000 1.0
C      1  0.4369800000000  0.4573170000000  0.5570690000000 1.0
C      1  0.5509390000000  0.5663000000000  0.5080070000000 1.0
C      1  0.4814820000000  0.5728540000000  0.5173910000000 1.0
C      1  0.5437800000000  0.5612480000000  0.4560610000000 1.0
C      1  0.4335830000000  0.5118050000000  0.5677030000000 1.0
C      1  0.5692790000000  0.4454760000000  0.5411080000000 1.0
C      1  0.5628290000000  0.4611860000000  0.4472920000000 1.0
C      1  0.4652610000000  0.4947340000000  0.4729220000000 1.0
C      1  0.4246550000000  0.4812190000000  0.4602700000000 1.0
C      1  0.4404530000000  0.5215670000000  0.4349270000000 1.0
C      1  0.4488030000000  0.5692680000000  0.4845800000000 1.0
C      1  0.5756880000000  0.5323600000000  0.4758810000000 1.0
C      1  0.4932620000000  0.5240400000000  0.4697010000000 1.0
C      1  0.5422580000000  0.5780160000000  0.4817470000000 1.0
C      1  0.4313400000000  0.5534250000000  0.4672260000000 1.0
C      1  0.5255040000000  0.5505990000000  0.4353960000000 1.0
C      1  0.5307900000000  0.5321130000000  0.4872060000000 1.0
C      1  0.4396810000000  0.5360290000000  0.5504330000000 1.0
C      1  0.4169820000000  0.5289120000000  0.4758610000000 1.0
C      1  0.5041800000000  0.4907340000000  0.4149480000000 1.0
C      1  0.4339510000000  0.4484600000000  0.5279690000000 1.0
C      1  0.5307590000000  0.4900490000000  0.4537710000000 1.0
C      1  0.4965170000000  0.5475160000000  0.5107540000000 1.0
C      1  0.4939250000000  0.5530060000000  0.5604970000000 1.0
C      1  0.4441210000000  0.4803700000000  0.4826350000000 1.0
C      1  0.5063360000000  0.5713320000000  0.5421400000000 1.0
C      1  0.4865140000000  0.4541580000000  0.4835910000000 1.0
C      1  0.4758230000000  0.5719850000000  0.4710960000000 1.0
C      1  0.4798290000000  0.5135720000000  0.5302420000000 1.0
C      1  0.4364800000000  0.4664210000000  0.4382210000000 1.0
C      1  0.5112040000000  0.4746800000000  0.4387460000000 1.0
C      1  0.4218960000000  0.5096560000000  0.4539480000000 1.0
C      1  0.5220260000000  0.4217720000000  0.4623250000000 1.0
C      1  0.5071590000000  0.4178820000000  0.5119640000000 1.0
C      1  0.5541220000000  0.5036620000000  0.4393670000000 1.0
C      1  0.4609060000000  0.5148910000000  0.5793980000000 1.0
C      1  0.5754280000000  0.5071300000000  0.4616250000000 1.0
C      1  0.5505830000000  0.5370270000000  0.4674630000000 1.0
C      1  0.4750620000000  0.5577670000000  0.4454620000000 1.0
C      1  0.5090760000000  0.5260150000000  0.5286500000000 1.0
C      1  0.4684490000000  0.5347680000000  0.5576940000000 1.0
C      1  0.5550880000000  0.4771250000000  0.4241950000000 1.0
C      1  0.4158090000000  0.5212590000000  0.5036840000000 1.0
C      1  0.5391490000000  0.4448840000000  0.5445380000000 1.0
C      1  0.4955980000000  0.5374610000000  0.4378580000000 1.0
C      1  0.5275780000000  0.4749110000000  0.4163670000000 1.0
C      1  0.4905280000000  0.5884260000000  0.4912670000000 1.0
C      1  0.4337830000000  0.4842680000000  0.5626580000000 1.0
C      1  0.5446690000000  0.5325370000000  0.4260030000000 1.0
C      1  0.4145330000000  0.4936890000000  0.5121080000000 1.0
C      1  0.5398570000000  0.4667320000000  0.5006020000000 1.0
C      1  0.4540290000000  0.4775410000000  0.4203220000000 1.0
C      1  0.4662350000000  0.5224640000000  0.4796750000000 1.0
C      1  0.5689590000000  0.5160030000000  0.5872970000000 1.0
C      1  0.4798210000000  0.4304400000000  0.5038020000000 1.0
C      1  0.4621260000000  0.4555830000000  0.4357720000000 1.0
C      1  0.5172950000000  0.5880410000000  0.4869420000000 1.0
C      1  0.5795960000000  0.4783580000000  0.4656910000000 1.0
C      1  0.5399850000000  0.5492290000000  0.5577220000000 1.0
C      1  0.4595970000000  0.4362380000000  0.5285150000000 1.0
C      1  0.5485420000000  0.4399740000000  0.4896520000000 1.0
C      1  0.5729580000000  0.5481040000000  0.5014320000000 1.0
C      1  0.4439960000000  0.4261490000000  0.4749860000000 1.0
C      1  0.5290030000000  0.4686090000000  0.5283630000000 1.0
C      1  0.5725870000000  0.4598400000000  0.5659300000000 1.0
C      1  0.5151100000000  0.5327460000000  0.5626150000000 1.0
C      1  0.5349800000000  0.5661520000000  0.5345480000000 1.0
C      1  0.5316860000000  0.4883700000000  0.4824330000000 1.0
C      1  0.4930250000000  0.4225100000000  0.4571940000000 1.0
C      1  0.5586980000000  0.5072520000000  0.5215470000000 1.0
C      1  0.4473000000000  0.5488330000000  0.4432820000000 1.0
C      1  0.4856670000000  0.4823270000000  0.4889030000000 1.0
C      1  0.5211070000000  0.4220080000000  0.5376730000000 1.0
C      1  0.5595440000000  0.4873590000000  0.5741160000000 1.0
C      1  0.4522460000000  0.5656390000000  0.5125460000000 1.0
C      1  0.4358820000000  0.5413720000000  0.5212160000000 1.0
C      1  0.5822890000000  0.4670770000000  0.4916470000000 1.0
C      1  0.4804310000000  0.4694940000000  0.5388660000000 1.0
C      1  0.4175470000000  0.4634590000000  0.5078400000000 1.0
C      1  0.4643650000000  0.4893440000000  0.5315860000000 1.0
C      1  0.5680070000000  0.5005990000000  0.5484230000000 1.0
C      1  0.5853290000000  0.5243360000000  0.5489630000000 1.0
C      1  0.5097060000000  0.4637830000000  0.5823330000000 1.0
C      1  0.5087210000000  0.5051880000000  0.5792740000000 1.0
C      1  0.4590560000000  0.5218760000000  0.5080650000000 1.0
C      1  0.5272770000000  0.4845110000000  0.5811240000000 1.0
C      1  0.4228470000000  0.4461340000000  0.4827780000000 1.0
END
