TITL C-884139-6216-175 11.2279074309317 125000 -20053.3156302988 0 0 134 (C1) n - 1
REM
REM in /home/nfs/bkarasulu/CARBON/AIRSS/Generating-Clusters/ReaxFF-fromJPCA2015/Units_Real/with-SteepDescent/Only-C1/SD-CG/Try1-3A/FIRE-CG
REM
REM
REM
REM
REM
REM ./C.cell (11c1c37f851c82e70ff6c80c92926a4b)
REM
REM compiler GCC version 9.2.1 20190827 (Red Hat 9.2.1-1)
REM options -cpp -mtune=generic -march=x86-64 -g -O0 -fpre-include=/usr/include/finclude/math-vector-fortran.h
REM seed 609699750 -869544824 2010525770 599902127 1877123136 -1239257596 653516147 1533302451 1293073247 2117115722 -1318679373 561146881 -1293909036 -996685953 -739090690 -97910234 -547088540 377116061 -1854198365 -372129281 769223532 -1281004392 -844694048 1908597758 -1701325601 918340921 -41968802 -562246640 -1099345764 -1062333509 1236891094 1951192679 -337599653
REM
CELL 1.54180   50.00000   50.00000   50.00000   90.00000   90.00000   90.00000
LATT -1
SFAC C  
C      1  0.4921430000000  0.4776820000000  0.4098230000000 1.0
C      1  0.5061850000000  0.4742580000000  0.5161030000000 1.0
C      1  0.5884420000000  0.4455890000000  0.5152930000000 1.0
C      1  0.5265290000000  0.5259880000000  0.4687950000000 1.0
C      1  0.4492580000000  0.4791700000000  0.5829050000000 1.0
C      1  0.5294870000000  0.4449490000000  0.5778930000000 1.0
C      1  0.6136420000000  0.5376990000000  0.5185840000000 1.0
C      1  0.4037880000000  0.5331470000000  0.4899330000000 1.0
C      1  0.5647720000000  0.5734500000000  0.5116500000000 1.0
C      1  0.5419160000000  0.4477160000000  0.5201120000000 1.0
C      1  0.5666700000000  0.5089030000000  0.5737550000000 1.0
C      1  0.4670400000000  0.5435330000000  0.5296870000000 1.0
C      1  0.5391740000000  0.5147330000000  0.5391780000000 1.0
C      1  0.5155120000000  0.5522560000000  0.5821300000000 1.0
C      1  0.5342090000000  0.5814640000000  0.4761200000000 1.0
C      1  0.5738110000000  0.4298900000000  0.5371440000000 1.0
C      1  0.4280850000000  0.4696490000000  0.5621280000000 1.0
C      1  0.4266700000000  0.5073780000000  0.4633140000000 1.0
C      1  0.5403020000000  0.4812910000000  0.6014960000000 1.0
C      1  0.4270370000000  0.4408660000000  0.4736900000000 1.0
C      1  0.5871420000000  0.5088620000000  0.5555840000000 1.0
C      1  0.4607610000000  0.5026090000000  0.5043860000000 1.0
C      1  0.5766130000000  0.4870200000000  0.4771150000000 1.0
C      1  0.5183930000000  0.5433070000000  0.4905000000000 1.0
C      1  0.4442450000000  0.4596570000000  0.4599010000000 1.0
C      1  0.4779460000000  0.5176830000000  0.4634550000000 1.0
C      1  0.5427630000000  0.5427420000000  0.5383380000000 1.0
C      1  0.4293230000000  0.5367050000000  0.4368040000000 1.0
C      1  0.5161140000000  0.4580020000000  0.4555030000000 1.0
C      1  0.5117980000000  0.4026000000000  0.4863710000000 1.0
C      1  0.4903420000000  0.4712720000000  0.4580580000000 1.0
C      1  0.4450620000000  0.5631740000000  0.4725160000000 1.0
C      1  0.5453750000000  0.5087300000000  0.5925140000000 1.0
C      1  0.4523910000000  0.5073760000000  0.5826560000000 1.0
C      1  0.4951820000000  0.4060790000000  0.5232850000000 1.0
C      1  0.4743730000000  0.4474040000000  0.4958370000000 1.0
C      1  0.5033850000000  0.5249820000000  0.4524440000000 1.0
C      1  0.5049330000000  0.4944040000000  0.4960340000000 1.0
C      1  0.4316500000000  0.4448780000000  0.5451760000000 1.0
C      1  0.5681710000000  0.4738820000000  0.4488310000000 1.0
C      1  0.5642650000000  0.5191020000000  0.4229960000000 1.0
C      1  0.5559900000000  0.4894200000000  0.4266990000000 1.0
C      1  0.6034290000000  0.4893490000000  0.5130270000000 1.0
C      1  0.5510810000000  0.5386710000000  0.4463440000000 1.0
C      1  0.4556370000000  0.4596350000000  0.3797370000000 1.0
C      1  0.4659160000000  0.5839660000000  0.4706160000000 1.0
C      1  0.5952390000000  0.4842660000000  0.5405210000000 1.0
C      1  0.4188850000000  0.5238640000000  0.5641730000000 1.0
C      1  0.4917380000000  0.4205510000000  0.4969580000000 1.0
C      1  0.4643340000000  0.5037600000000  0.4393280000000 1.0
C      1  0.6041240000000  0.5165740000000  0.4987600000000 1.0
C      1  0.5165700000000  0.5742960000000  0.4534680000000 1.0
C      1  0.4914340000000  0.5528860000000  0.4919220000000 1.0
C      1  0.5347300000000  0.4692770000000  0.5623070000000 1.0
C      1  0.4825960000000  0.4833920000000  0.4351550000000 1.0
C      1  0.4912340000000  0.5668540000000  0.5725910000000 1.0
C      1  0.4553370000000  0.5302530000000  0.5065540000000 1.0
C      1  0.5747280000000  0.5283940000000  0.4015070000000 1.0
C      1  0.5281850000000  0.5002690000000  0.4823380000000 1.0
C      1  0.4976550000000  0.6053040000000  0.5070650000000 1.0
C      1  0.4664470000000  0.4108540000000  0.5268500000000 1.0
C      1  0.5191800000000  0.5239990000000  0.5894190000000 1.0
C      1  0.5274940000000  0.5538590000000  0.4360950000000 1.0
C      1  0.4884140000000  0.4846520000000  0.5678350000000 1.0
C      1  0.5233580000000  0.4422090000000  0.4321750000000 1.0
C      1  0.5329170000000  0.4171090000000  0.4741990000000 1.0
C      1  0.4198030000000  0.4937420000000  0.4235580000000 1.0
C      1  0.5066320000000  0.4282150000000  0.5652030000000 1.0
C      1  0.4875560000000  0.6032800000000  0.5351420000000 1.0
C      1  0.4097550000000  0.5340360000000  0.5397140000000 1.0
C      1  0.5498670000000  0.4693240000000  0.5377010000000 1.0
C      1  0.4694840000000  0.4585700000000  0.4708200000000 1.0
C      1  0.5071720000000  0.5040840000000  0.4119180000000 1.0
C      1  0.5000220000000  0.5109040000000  0.5721780000000 1.0
C      1  0.4799150000000  0.5561530000000  0.4302380000000 1.0
C      1  0.4607760000000  0.4360420000000  0.5431940000000 1.0
C      1  0.4802310000000  0.4390510000000  0.5674590000000 1.0
C      1  0.5138090000000  0.5083630000000  0.5470170000000 1.0
C      1  0.4629420000000  0.5586450000000  0.5684560000000 1.0
C      1  0.5172050000000  0.4147010000000  0.5416600000000 1.0
C      1  0.4719500000000  0.5956560000000  0.4966470000000 1.0
C      1  0.5312280000000  0.5865500000000  0.5495320000000 1.0
C      1  0.4961270000000  0.4448250000000  0.4218990000000 1.0
C      1  0.5251860000000  0.5963070000000  0.4999150000000 1.0
C      1  0.5211500000000  0.4535020000000  0.5051760000000 1.0
C      1  0.4190350000000  0.4956960000000  0.5592960000000 1.0
C      1  0.5298050000000  0.4920600000000  0.4183720000000 1.0
C      1  0.5024900000000  0.5888340000000  0.5565040000000 1.0
C      1  0.5347940000000  0.4585600000000  0.6017300000000 1.0
C      1  0.5453300000000  0.4221230000000  0.5331540000000 1.0
C      1  0.4748320000000  0.4637420000000  0.5818100000000 1.0
C      1  0.4619090000000  0.4790680000000  0.3943190000000 1.0
C      1  0.5416680000000  0.4236960000000  0.4472400000000 1.0
C      1  0.4375310000000  0.4859820000000  0.4470000000000 1.0
C      1  0.4473880000000  0.5333520000000  0.5757450000000 1.0
C      1  0.4386970000000  0.4984240000000  0.4026300000000 1.0
C      1  0.5529410000000  0.4942550000000  0.5238420000000 1.0
C      1  0.4441920000000  0.4180920000000  0.4788550000000 1.0
C      1  0.4551700000000  0.5678240000000  0.5413620000000 1.0
C      1  0.5079800000000  0.4805060000000  0.5459340000000 1.0
C      1  0.4437510000000  0.4807570000000  0.5130840000000 1.0
C      1  0.4099530000000  0.5155460000000  0.4425410000000 1.0
C      1  0.4526380000000  0.5457010000000  0.4226980000000 1.0
C      1  0.5588330000000  0.5668530000000  0.4835710000000 1.0
C      1  0.4035700000000  0.5416120000000  0.5166630000000 1.0
C      1  0.5926120000000  0.5360520000000  0.5396510000000 1.0
C      1  0.5893120000000  0.4551780000000  0.5426300000000 1.0
C      1  0.5923270000000  0.4686250000000  0.4973360000000 1.0
C      1  0.5428080000000  0.5900810000000  0.5219840000000 1.0
C      1  0.5273320000000  0.4452660000000  0.4789950000000 1.0
C      1  0.5215680000000  0.5451820000000  0.5181710000000 1.0
C      1  0.4442140000000  0.4154330000000  0.5082890000000 1.0
C      1  0.4613400000000  0.4575220000000  0.5172310000000 1.0
C      1  0.5038610000000  0.5369520000000  0.4253680000000 1.0
C      1  0.4865470000000  0.4002490000000  0.4749990000000 1.0
C      1  0.4808970000000  0.4992120000000  0.4846410000000 1.0
C      1  0.4664370000000  0.4126170000000  0.4590410000000 1.0
C      1  0.5693370000000  0.5428970000000  0.4695830000000 1.0
C      1  0.4172990000000  0.4814590000000  0.5000860000000 1.0
C      1  0.4088070000000  0.5035540000000  0.4816920000000 1.0
C      1  0.5628190000000  0.4453100000000  0.4474200000000 1.0
C      1  0.4142850000000  0.4524970000000  0.4978070000000 1.0
C      1  0.4242120000000  0.4349360000000  0.5191460000000 1.0
C      1  0.4663260000000  0.5408880000000  0.4819070000000 1.0
C      1  0.4938100000000  0.5537450000000  0.5210650000000 1.0
C      1  0.4773120000000  0.4288550000000  0.4361890000000 1.0
C      1  0.5845540000000  0.5193380000000  0.4783880000000 1.0
C      1  0.4863680000000  0.5753880000000  0.4503550000000 1.0
C      1  0.5528580000000  0.4921230000000  0.4944100000000 1.0
C      1  0.4579960000000  0.5178460000000  0.4126080000000 1.0
C      1  0.4211760000000  0.5545390000000  0.4838900000000 1.0
C      1  0.5710250000000  0.5520270000000  0.5304580000000 1.0
C      1  0.5352600000000  0.5621160000000  0.5634920000000 1.0
C      1  0.4624350000000  0.5917390000000  0.5257110000000 1.0
END
