TITL C-883740-3686-325 43.6405752238877 125000 -18811.0944198025 0 0 129 (C1) n - 1
REM
REM in /home/nfs/bkarasulu/CARBON/AIRSS/Generating-Clusters/ReaxFF-fromJPCA2015/Units_Real/with-SteepDescent/Only-C1/SD-CG/Try1-3A/FIRE-CG
REM
REM
REM
REM
REM
REM ./C.cell (11c1c37f851c82e70ff6c80c92926a4b)
REM
REM compiler GCC version 9.2.1 20190827 (Red Hat 9.2.1-1)
REM options -cpp -mtune=generic -march=x86-64 -g -O0 -fpre-include=/usr/include/finclude/math-vector-fortran.h
REM seed -184344870 1639171766 -1818411582 -150645798 -1417658670 -1260998501 -1835763694 -1609089040 -1292697726 -468172210 1438148051 -379035983 1559537197 -1319995078 108983335 216418243 -397850731 1298621346 -1289326588 459333531 -6334018 1734716924 1781698243 -250144342 642441306 -1981809218 -1793857295 302521113 -477732756 -1712875827 948124773 -602609248 -713966526
REM
CELL 1.54180   50.00000   50.00000   50.00000   90.00000   90.00000   90.00000
LATT -1
SFAC C  
C      1  0.5463240000000  0.5074230000000  0.4361730000000 1.0
C      1  0.5742080000000  0.5133910000000  0.4520700000000 1.0
C      1  0.4219720000000  0.5425140000000  0.4678100000000 1.0
C      1  0.5903840000000  0.5048480000000  0.5233270000000 1.0
C      1  0.5237080000000  0.5489950000000  0.4141900000000 1.0
C      1  0.4856820000000  0.4616670000000  0.5220020000000 1.0
C      1  0.5540680000000  0.4709360000000  0.4092230000000 1.0
C      1  0.5841580000000  0.4924070000000  0.4674640000000 1.0
C      1  0.4975450000000  0.4305140000000  0.4297640000000 1.0
C      1  0.5442510000000  0.4221440000000  0.5140390000000 1.0
C      1  0.4895850000000  0.5762890000000  0.5315500000000 1.0
C      1  0.4897240000000  0.4910960000000  0.4823220000000 1.0
C      1  0.5120040000000  0.5045410000000  0.5939700000000 1.0
C      1  0.4506260000000  0.4898830000000  0.4723210000000 1.0
C      1  0.4767620000000  0.5148820000000  0.4900870000000 1.0
C      1  0.5633910000000  0.4370920000000  0.4512050000000 1.0
C      1  0.5226560000000  0.5195850000000  0.5534830000000 1.0
C      1  0.4830770000000  0.5874460000000  0.4650470000000 1.0
C      1  0.5417570000000  0.5347420000000  0.5375630000000 1.0
C      1  0.5186670000000  0.5692530000000  0.5839710000000 1.0
C      1  0.4266650000000  0.4894250000000  0.4520740000000 1.0
C      1  0.4351080000000  0.5668980000000  0.4761160000000 1.0
C      1  0.5156490000000  0.3883450000000  0.5336900000000 1.0
C      1  0.5687080000000  0.5729810000000  0.5289020000000 1.0
C      1  0.5241440000000  0.5111160000000  0.4930840000000 1.0
C      1  0.5849930000000  0.5513730000000  0.5390010000000 1.0
C      1  0.4732400000000  0.5957840000000  0.4909630000000 1.0
C      1  0.4864770000000  0.4563330000000  0.4159990000000 1.0
C      1  0.5322690000000  0.4871550000000  0.4775430000000 1.0
C      1  0.4608700000000  0.4618010000000  0.4279670000000 1.0
C      1  0.4778730000000  0.5649120000000  0.5595750000000 1.0
C      1  0.4541160000000  0.5006960000000  0.5007910000000 1.0
C      1  0.5122490000000  0.5861740000000  0.4631390000000 1.0
C      1  0.5878020000000  0.4737200000000  0.5161220000000 1.0
C      1  0.4777140000000  0.4399120000000  0.5396410000000 1.0
C      1  0.4923230000000  0.4642730000000  0.4733980000000 1.0
C      1  0.5196130000000  0.5162700000000  0.4456830000000 1.0
C      1  0.5743670000000  0.5390550000000  0.4645950000000 1.0
C      1  0.4454290000000  0.4107120000000  0.5075280000000 1.0
C      1  0.4692250000000  0.5057310000000  0.4492110000000 1.0
C      1  0.5667150000000  0.5088020000000  0.5081580000000 1.0
C      1  0.5147150000000  0.5017130000000  0.4002940000000 1.0
C      1  0.4994020000000  0.4824720000000  0.4162280000000 1.0
C      1  0.4811420000000  0.4438380000000  0.5684230000000 1.0
C      1  0.4307400000000  0.4859480000000  0.5416570000000 1.0
C      1  0.4752120000000  0.5684450000000  0.4818630000000 1.0
C      1  0.5644770000000  0.5378430000000  0.5548630000000 1.0
C      1  0.5574790000000  0.4905620000000  0.5645540000000 1.0
C      1  0.5191050000000  0.5387000000000  0.4912180000000 1.0
C      1  0.5598420000000  0.5175030000000  0.5758560000000 1.0
C      1  0.5805410000000  0.5339810000000  0.4944740000000 1.0
C      1  0.5350880000000  0.4678720000000  0.5006400000000 1.0
C      1  0.5360110000000  0.5663190000000  0.4355400000000 1.0
C      1  0.4678160000000  0.4125300000000  0.5278890000000 1.0
C      1  0.4969980000000  0.4438810000000  0.4946490000000 1.0
C      1  0.5528200000000  0.5771010000000  0.4805130000000 1.0
C      1  0.5423420000000  0.5841030000000  0.5363230000000 1.0
C      1  0.4354110000000  0.5391470000000  0.5111140000000 1.0
C      1  0.4897890000000  0.5481600000000  0.5235740000000 1.0
C      1  0.4890280000000  0.3962310000000  0.5284560000000 1.0
C      1  0.4107470000000  0.4955790000000  0.4923930000000 1.0
C      1  0.5285380000000  0.4389520000000  0.4932310000000 1.0
C      1  0.5151710000000  0.4788630000000  0.5790550000000 1.0
C      1  0.4359330000000  0.4382350000000  0.4684540000000 1.0
C      1  0.5318290000000  0.5224240000000  0.5828180000000 1.0
C      1  0.5851840000000  0.4459320000000  0.4696360000000 1.0
C      1  0.4609740000000  0.4862080000000  0.5252780000000 1.0
C      1  0.4506460000000  0.5326060000000  0.5350120000000 1.0
C      1  0.4735290000000  0.5316750000000  0.4126200000000 1.0
C      1  0.4028910000000  0.5339150000000  0.5586590000000 1.0
C      1  0.5429490000000  0.4963070000000  0.4064250000000 1.0
C      1  0.4201600000000  0.4223770000000  0.5155430000000 1.0
C      1  0.4068140000000  0.4772100000000  0.4689980000000 1.0
C      1  0.5747670000000  0.4540480000000  0.5387330000000 1.0
C      1  0.4430120000000  0.5665620000000  0.5043470000000 1.0
C      1  0.5920410000000  0.4707870000000  0.4836580000000 1.0
C      1  0.5779850000000  0.4680510000000  0.5646050000000 1.0
C      1  0.4584510000000  0.5532870000000  0.4251510000000 1.0
C      1  0.5195340000000  0.5381870000000  0.4640240000000 1.0
C      1  0.4966920000000  0.4995780000000  0.4407120000000 1.0
C      1  0.4336590000000  0.5466300000000  0.4402840000000 1.0
C      1  0.4939540000000  0.5524680000000  0.5802360000000 1.0
C      1  0.4084640000000  0.4474180000000  0.4712710000000 1.0
C      1  0.4850590000000  0.4186120000000  0.4529460000000 1.0
C      1  0.4135180000000  0.4802250000000  0.5175850000000 1.0
C      1  0.4822300000000  0.4202900000000  0.4801710000000 1.0
C      1  0.5102210000000  0.5029460000000  0.5166940000000 1.0
C      1  0.4197940000000  0.5143710000000  0.5582160000000 1.0
C      1  0.5610100000000  0.4812690000000  0.5084080000000 1.0
C      1  0.4528160000000  0.4160040000000  0.4798420000000 1.0
C      1  0.4564540000000  0.4571510000000  0.5808460000000 1.0
C      1  0.4203600000000  0.5238320000000  0.4903970000000 1.0
C      1  0.5514380000000  0.4367350000000  0.5396240000000 1.0
C      1  0.4177940000000  0.4519570000000  0.5142940000000 1.0
C      1  0.4514010000000  0.5535470000000  0.5552760000000 1.0
C      1  0.4903520000000  0.5240720000000  0.5895560000000 1.0
C      1  0.4637810000000  0.5842290000000  0.5156570000000 1.0
C      1  0.5036470000000  0.5293180000000  0.4055420000000 1.0
C      1  0.4629230000000  0.4840440000000  0.5837060000000 1.0
C      1  0.5196550000000  0.5854090000000  0.5183170000000 1.0
C      1  0.4512050000000  0.5679020000000  0.4507370000000 1.0
C      1  0.4014920000000  0.4350620000000  0.4966750000000 1.0
C      1  0.4409220000000  0.4844360000000  0.4266690000000 1.0
C      1  0.4973690000000  0.5221240000000  0.5358540000000 1.0
C      1  0.5435050000000  0.4837810000000  0.4518260000000 1.0
C      1  0.5981220000000  0.5328980000000  0.5193200000000 1.0
C      1  0.5623240000000  0.5600030000000  0.5034430000000 1.0
C      1  0.4285770000000  0.5402970000000  0.5697300000000 1.0
C      1  0.4681900000000  0.5096600000000  0.5433110000000 1.0
C      1  0.5393550000000  0.5434280000000  0.5110900000000 1.0
C      1  0.5383870000000  0.4292910000000  0.4645490000000 1.0
C      1  0.5580050000000  0.5621200000000  0.4566340000000 1.0
C      1  0.4693530000000  0.5085500000000  0.5757510000000 1.0
C      1  0.4699740000000  0.4560990000000  0.4553360000000 1.0
C      1  0.4559260000000  0.5103650000000  0.4237980000000 1.0
C      1  0.5300380000000  0.4337120000000  0.5613160000000 1.0
C      1  0.4516480000000  0.4607820000000  0.4749700000000 1.0
C      1  0.5272600000000  0.5872460000000  0.4903090000000 1.0
C      1  0.5359820000000  0.5840240000000  0.5656880000000 1.0
C      1  0.4336010000000  0.4640960000000  0.5626230000000 1.0
C      1  0.5229470000000  0.4295390000000  0.4424160000000 1.0
C      1  0.4863050000000  0.5448980000000  0.4950630000000 1.0
C      1  0.5392910000000  0.3936220000000  0.5134340000000 1.0
C      1  0.5139730000000  0.5616390000000  0.4505430000000 1.0
C      1  0.5290110000000  0.4870100000000  0.5542480000000 1.0
C      1  0.5550760000000  0.4622150000000  0.4353720000000 1.0
C      1  0.5135820000000  0.4755660000000  0.5254090000000 1.0
C      1  0.5194960000000  0.4101090000000  0.5516660000000 1.0
C      1  0.5086480000000  0.4507540000000  0.5751090000000 1.0
END
