TITL C-884141-4321-438 99.2878069788961 125000 -20631.4983311609 0 0 140 (C1) n - 1
REM
REM in /home/nfs/bkarasulu/CARBON/AIRSS/Generating-Clusters/ReaxFF-fromJPCA2015/Units_Real/with-SteepDescent/Only-C1/SD-CG/Try1-3A/FIRE-CG
REM
REM
REM
REM
REM
REM ./C.cell (11c1c37f851c82e70ff6c80c92926a4b)
REM
REM compiler GCC version 9.2.1 20190827 (Red Hat 9.2.1-1)
REM options -cpp -mtune=generic -march=x86-64 -g -O0 -fpre-include=/usr/include/finclude/math-vector-fortran.h
REM seed -381377664 -548489389 -864402734 -958218058 -1162987736 -1149292722 -1107690312 -1485870119 1053761306 806513657 2112480437 -1144973953 -611992523 -1651294421 736354524 -906093885 -1113948677 -1270464336 2122120470 1205031169 -1215409110 -744206656 892430280 184630357 1032865570 -2015340313 912242523 1624062591 2006951389 -499616328 -2081702525 1286792037 -493770111
REM
CELL 1.54180   50.00000   50.00000   50.00000   90.00000   90.00000   90.00000
LATT -1
SFAC C  
C      1  0.4811910000000  0.5470680000000  0.5938270000000 1.0
C      1  0.5011140000000  0.5377330000000  0.5332590000000 1.0
C      1  0.5632130000000  0.5677990000000  0.4553320000000 1.0
C      1  0.5204430000000  0.5141450000000  0.5877480000000 1.0
C      1  0.5518780000000  0.4272390000000  0.4489070000000 1.0
C      1  0.5723750000000  0.5227730000000  0.5548910000000 1.0
C      1  0.5164020000000  0.4731560000000  0.4994930000000 1.0
C      1  0.5821530000000  0.5531060000000  0.4716270000000 1.0
C      1  0.5437930000000  0.5679700000000  0.5613510000000 1.0
C      1  0.5097590000000  0.4865570000000  0.5917410000000 1.0
C      1  0.4827330000000  0.4872170000000  0.6028730000000 1.0
C      1  0.5097370000000  0.5442630000000  0.5068040000000 1.0
C      1  0.4896900000000  0.4894910000000  0.4485290000000 1.0
C      1  0.4232000000000  0.4771970000000  0.5082840000000 1.0
C      1  0.4974050000000  0.4445660000000  0.4085140000000 1.0
C      1  0.5082500000000  0.4355550000000  0.5349600000000 1.0
C      1  0.4704710000000  0.5965480000000  0.5230730000000 1.0
C      1  0.5233130000000  0.4609600000000  0.5382690000000 1.0
C      1  0.5814240000000  0.5473920000000  0.5399780000000 1.0
C      1  0.5131830000000  0.5157100000000  0.5469780000000 1.0
C      1  0.4568540000000  0.5161890000000  0.4637650000000 1.0
C      1  0.5343740000000  0.5822820000000  0.4580560000000 1.0
C      1  0.5580940000000  0.5289970000000  0.4238770000000 1.0
C      1  0.5357010000000  0.5566420000000  0.5047460000000 1.0
C      1  0.4940360000000  0.5906530000000  0.4898000000000 1.0
C      1  0.5208110000000  0.5656710000000  0.5766060000000 1.0
C      1  0.5785660000000  0.5066340000000  0.5297320000000 1.0
C      1  0.4127620000000  0.4967880000000  0.5276600000000 1.0
C      1  0.4700800000000  0.5254000000000  0.4876030000000 1.0
C      1  0.4503710000000  0.4527420000000  0.5636250000000 1.0
C      1  0.4111590000000  0.4559790000000  0.5231660000000 1.0
C      1  0.4698560000000  0.4378160000000  0.4190100000000 1.0
C      1  0.5447250000000  0.5080440000000  0.4967830000000 1.0
C      1  0.4355360000000  0.5246330000000  0.5730390000000 1.0
C      1  0.4208200000000  0.4858070000000  0.4283920000000 1.0
C      1  0.5178500000000  0.5258910000000  0.4551920000000 1.0
C      1  0.5731700000000  0.4455500000000  0.5579430000000 1.0
C      1  0.4740820000000  0.5598260000000  0.4173170000000 1.0
C      1  0.4415440000000  0.4185230000000  0.4998300000000 1.0
C      1  0.4657890000000  0.4982300000000  0.5278730000000 1.0
C      1  0.5204810000000  0.5450260000000  0.4303230000000 1.0
C      1  0.5394870000000  0.4084310000000  0.5262470000000 1.0
C      1  0.5138200000000  0.4187920000000  0.4550970000000 1.0
C      1  0.5317030000000  0.4797320000000  0.4274490000000 1.0
C      1  0.6006310000000  0.4887040000000  0.5739260000000 1.0
C      1  0.5626700000000  0.4404400000000  0.4962620000000 1.0
C      1  0.4123980000000  0.4677780000000  0.4527950000000 1.0
C      1  0.4394890000000  0.4228460000000  0.4708010000000 1.0
C      1  0.5308380000000  0.4637330000000  0.5657950000000 1.0
C      1  0.4276530000000  0.4329480000000  0.5207470000000 1.0
C      1  0.5952950000000  0.5173740000000  0.5756040000000 1.0
C      1  0.4947210000000  0.5406090000000  0.4816520000000 1.0
C      1  0.4099070000000  0.4743230000000  0.5464190000000 1.0
C      1  0.5329730000000  0.5266720000000  0.4089980000000 1.0
C      1  0.4370950000000  0.4964090000000  0.5800730000000 1.0
C      1  0.4304170000000  0.4725170000000  0.5670920000000 1.0
C      1  0.5222310000000  0.5983600000000  0.4789780000000 1.0
C      1  0.4119220000000  0.5358280000000  0.4957420000000 1.0
C      1  0.4128800000000  0.4876940000000  0.4774400000000 1.0
C      1  0.5604880000000  0.4307620000000  0.4703330000000 1.0
C      1  0.4576610000000  0.5296830000000  0.5923720000000 1.0
C      1  0.4578830000000  0.5234540000000  0.5156200000000 1.0
C      1  0.4667610000000  0.4087880000000  0.5108980000000 1.0
C      1  0.5434970000000  0.4654470000000  0.5096760000000 1.0
C      1  0.5536010000000  0.5569190000000  0.4301290000000 1.0
C      1  0.4243260000000  0.5390260000000  0.5498150000000 1.0
C      1  0.5749750000000  0.4732240000000  0.5670440000000 1.0
C      1  0.4712170000000  0.4422130000000  0.4455820000000 1.0
C      1  0.4682940000000  0.4612280000000  0.4989840000000 1.0
C      1  0.4733120000000  0.5099010000000  0.4412230000000 1.0
C      1  0.4908670000000  0.4087270000000  0.4672450000000 1.0
C      1  0.4945540000000  0.4941610000000  0.3980760000000 1.0
C      1  0.4411970000000  0.4922340000000  0.4704240000000 1.0
C      1  0.5877080000000  0.4824430000000  0.4685660000000 1.0
C      1  0.5096690000000  0.4810170000000  0.5260500000000 1.0
C      1  0.5953430000000  0.5325480000000  0.4880340000000 1.0
C      1  0.5597360000000  0.4723450000000  0.4263520000000 1.0
C      1  0.4234850000000  0.5603200000000  0.4815360000000 1.0
C      1  0.5647200000000  0.5715970000000  0.5440910000000 1.0
C      1  0.5692100000000  0.4465970000000  0.4331480000000 1.0
C      1  0.4613200000000  0.5579410000000  0.5534420000000 1.0
C      1  0.5165270000000  0.4968950000000  0.4504940000000 1.0
C      1  0.4723510000000  0.5399440000000  0.5345720000000 1.0
C      1  0.5214600000000  0.5000250000000  0.4048740000000 1.0
C      1  0.4943830000000  0.4592830000000  0.4879320000000 1.0
C      1  0.5591860000000  0.5200280000000  0.4749740000000 1.0
C      1  0.5386430000000  0.5115750000000  0.5637910000000 1.0
C      1  0.5490810000000  0.4845560000000  0.5679620000000 1.0
C      1  0.4527100000000  0.4738720000000  0.5200160000000 1.0
C      1  0.4985930000000  0.5838880000000  0.5669820000000 1.0
C      1  0.4246870000000  0.4448290000000  0.4608030000000 1.0
C      1  0.4577520000000  0.4692570000000  0.4744770000000 1.0
C      1  0.4592020000000  0.5015020000000  0.5970130000000 1.0
C      1  0.4908610000000  0.4643080000000  0.5916450000000 1.0
C      1  0.5292110000000  0.4189540000000  0.5516040000000 1.0
C      1  0.5093380000000  0.5406970000000  0.5900730000000 1.0
C      1  0.4233450000000  0.5134730000000  0.4321570000000 1.0
C      1  0.5898700000000  0.4524320000000  0.5065910000000 1.0
C      1  0.5584560000000  0.4907930000000  0.5149340000000 1.0
C      1  0.4918360000000  0.5806730000000  0.5155420000000 1.0
C      1  0.5153650000000  0.5736670000000  0.4375500000000 1.0
C      1  0.4421930000000  0.5858060000000  0.5263010000000 1.0
C      1  0.4692460000000  0.5361820000000  0.4108390000000 1.0
C      1  0.3993010000000  0.5162680000000  0.4796100000000 1.0
C      1  0.4293670000000  0.5375540000000  0.4418950000000 1.0
C      1  0.4682520000000  0.4182320000000  0.5380470000000 1.0
C      1  0.4673290000000  0.5706790000000  0.4563280000000 1.0
C      1  0.5473790000000  0.5225860000000  0.4508520000000 1.0
C      1  0.4853900000000  0.4665830000000  0.3934080000000 1.0
C      1  0.5533600000000  0.5354510000000  0.4979750000000 1.0
C      1  0.4391290000000  0.5599410000000  0.4565080000000 1.0
C      1  0.4486900000000  0.4387060000000  0.5388780000000 1.0
C      1  0.5898240000000  0.5306790000000  0.5174770000000 1.0
C      1  0.4686870000000  0.5070650000000  0.4126960000000 1.0
C      1  0.4822820000000  0.4636440000000  0.4601380000000 1.0
C      1  0.5459560000000  0.4383780000000  0.5656010000000 1.0
C      1  0.4234610000000  0.5241430000000  0.5235150000000 1.0
C      1  0.4857970000000  0.5782030000000  0.4347340000000 1.0
C      1  0.4921540000000  0.4053180000000  0.4965580000000 1.0
C      1  0.6016570000000  0.4753960000000  0.4938340000000 1.0
C      1  0.4891400000000  0.4275590000000  0.5552370000000 1.0
C      1  0.4282330000000  0.5825420000000  0.5004640000000 1.0
C      1  0.4834590000000  0.5675390000000  0.4785120000000 1.0
C      1  0.4771060000000  0.4480090000000  0.5725720000000 1.0
C      1  0.4653110000000  0.4188970000000  0.4551800000000 1.0
C      1  0.5835690000000  0.4377360000000  0.5313000000000 1.0
C      1  0.5473930000000  0.5801800000000  0.5196210000000 1.0
C      1  0.5652990000000  0.4197610000000  0.5176700000000 1.0
C      1  0.4935870000000  0.5952770000000  0.5408640000000 1.0
C      1  0.4435820000000  0.4839290000000  0.4112600000000 1.0
C      1  0.4755530000000  0.5700550000000  0.5768010000000 1.0
C      1  0.4339070000000  0.5664600000000  0.5473690000000 1.0
C      1  0.5182130000000  0.4511780000000  0.4278160000000 1.0
C      1  0.5147640000000  0.4148660000000  0.5121750000000 1.0
C      1  0.6017030000000  0.5039550000000  0.4812490000000 1.0
C      1  0.5272400000000  0.4376690000000  0.4506730000000 1.0
C      1  0.4918230000000  0.4977380000000  0.5398950000000 1.0
C      1  0.5432690000000  0.5959190000000  0.4974610000000 1.0
C      1  0.5823330000000  0.4709830000000  0.4417780000000 1.0
C      1  0.4578590000000  0.4607450000000  0.4023910000000 1.0
END
