TITL C-884135-4325-3 -493331.513603533 125000 -6143.8798825806 0 0 43 (C1) n - 1
REM
REM in /home/nfs/bkarasulu/CARBON/AIRSS/Generating-Clusters/ReaxFF-fromJPCA2015/Units_Real/with-SteepDescent/Only-C1/SD-CG/Try1-3A/FIRE-CG
REM
REM
REM
REM
REM
REM ./C.cell (11c1c37f851c82e70ff6c80c92926a4b)
REM
REM compiler GCC version 9.2.1 20190827 (Red Hat 9.2.1-1)
REM options -cpp -mtune=generic -march=x86-64 -g -O0 -fpre-include=/usr/include/finclude/math-vector-fortran.h
REM seed 2053281473 1261783149 1381141271 1049303673 1269869045 978621526 -358055345 205832243 1816156903 1549182839 774109545 1344643374 1312909302 -1678578502 -1914194593 319661682 -345671625 1156686017 1294084752 -501338192 -1404816755 -176105728 -879892900 151233827 798495835 -303966626 1505773119 -962684523 1580819717 -859996268 -1366872109 -1827476544 -907141347
REM
CELL 1.54180   50.00000   50.00000   50.00000   90.00000   90.00000   90.00000
LATT -1
SFAC C  
C      1  0.4469410000000  0.4698040000000  0.5251050000000 1.0
C      1  0.4550450000000  0.5501330000000  0.5166790000000 1.0
C      1  0.4728710000000  0.5470050000000  0.4933230000000 1.0
C      1  0.4997490000000  0.5037370000000  0.5083800000000 1.0
C      1  0.4896950000000  0.4559610000000  0.4663650000000 1.0
C      1  0.5056730000000  0.5659080000000  0.4497010000000 1.0
C      1  0.5003510000000  0.4908050000000  0.5587000000000 1.0
C      1  0.5609960000000  0.5092820000000  0.5189150000000 1.0
C      1  0.4612680000000  0.4848820000000  0.5432830000000 1.0
C      1  0.4277520000000  0.5408990000000  0.5057600000000 1.0
C      1  0.4773200000000  0.4760790000000  0.5695350000000 1.0
C      1  0.5576060000000  0.4592830000000  0.4648870000000 1.0
C      1  0.4697110000000  0.5544590000000  0.5402830000000 1.0
C      1  0.4388180000000  0.4605460000000  0.5038520000000 1.0
C      1  0.5179350000000  0.5271650000000  0.5153480000000 1.0
C      1  0.5442320000000  0.5273550000000  0.5022060000000 1.0
C      1  0.5792650000000  0.4609310000000  0.5260360000000 1.0
C      1  0.5375390000000  0.4770170000000  0.4476480000000 1.0
C      1  0.4357870000000  0.5333160000000  0.4780810000000 1.0
C      1  0.4856310000000  0.4986600000000  0.5340160000000 1.0
C      1  0.5453220000000  0.4962570000000  0.5379940000000 1.0
C      1  0.5427630000000  0.5270060000000  0.4727790000000 1.0
C      1  0.4374060000000  0.4576850000000  0.4766780000000 1.0
C      1  0.4918120000000  0.5552500000000  0.5513760000000 1.0
C      1  0.5707600000000  0.4830410000000  0.5077470000000 1.0
C      1  0.5497120000000  0.4735480000000  0.4888030000000 1.0
C      1  0.4575310000000  0.5533610000000  0.4696880000000 1.0
C      1  0.5174990000000  0.4512760000000  0.5133150000000 1.0
C      1  0.5102750000000  0.4650710000000  0.4475670000000 1.0
C      1  0.4524220000000  0.5084060000000  0.4768470000000 1.0
C      1  0.4785510000000  0.5505390000000  0.4491220000000 1.0
C      1  0.5291960000000  0.4799020000000  0.5527340000000 1.0
C      1  0.5409160000000  0.5032490000000  0.4587310000000 1.0
C      1  0.5304290000000  0.4532850000000  0.5391660000000 1.0
C      1  0.4609460000000  0.4600430000000  0.4592310000000 1.0
C      1  0.4973250000000  0.4572790000000  0.4948090000000 1.0
C      1  0.5172240000000  0.4761440000000  0.4991850000000 1.0
C      1  0.4931010000000  0.5265000000000  0.4575920000000 1.0
C      1  0.4805730000000  0.5177320000000  0.4843570000000 1.0
C      1  0.4453210000000  0.4840570000000  0.4632280000000 1.0
C      1  0.5194670000000  0.5395980000000  0.4556350000000 1.0
C      1  0.5588000000000  0.4435880000000  0.5391470000000 1.0
C      1  0.5084640000000  0.5439550000000  0.5361670000000 1.0
END
