TITL C-883738-3659-246 41.6402696165094 125000 -25769.6356715595 0 0 173 (C1) n - 1
REM
REM in /home/nfs/bkarasulu/CARBON/AIRSS/Generating-Clusters/ReaxFF-fromJPCA2015/Units_Real/with-SteepDescent/Only-C1/SD-CG/Try1-3A/FIRE-CG
REM
REM
REM
REM
REM
REM ./C.cell (11c1c37f851c82e70ff6c80c92926a4b)
REM
REM compiler GCC version 9.2.1 20190827 (Red Hat 9.2.1-1)
REM options -cpp -mtune=generic -march=x86-64 -g -O0 -fpre-include=/usr/include/finclude/math-vector-fortran.h
REM seed 1795616259 -424320170 -401939545 -1911734171 580669820 1357119942 -245989893 -2075241584 1152660270 -1773206017 820110210 -158239800 -1394027473 -906403120 1551479025 -1939457149 1608600547 727095457 -1016306562 -551920012 1535675982 1064333265 1151493476 980972263 1095847301 13557972 -912502509 -405122609 -114229297 -1633266604 -45525321 1147071767 -835653267
REM
CELL 1.54180   50.00000   50.00000   50.00000   90.00000   90.00000   90.00000
LATT -1
SFAC C  
C      1  0.5451360000000  0.5333560000000  0.4285650000000 1.0
C      1  0.5584430000000  0.4255270000000  0.5006120000000 1.0
C      1  0.6110670000000  0.4819880000000  0.5133660000000 1.0
C      1  0.5107930000000  0.4226780000000  0.5324600000000 1.0
C      1  0.4718240000000  0.5627350000000  0.4295860000000 1.0
C      1  0.4992630000000  0.4964480000000  0.4255600000000 1.0
C      1  0.4350950000000  0.4734240000000  0.4296670000000 1.0
C      1  0.5510380000000  0.4673870000000  0.6079430000000 1.0
C      1  0.4811160000000  0.5295530000000  0.6023020000000 1.0
C      1  0.6065030000000  0.5087330000000  0.5201520000000 1.0
C      1  0.5245800000000  0.4939260000000  0.4876040000000 1.0
C      1  0.5280010000000  0.5763220000000  0.4636450000000 1.0
C      1  0.5647520000000  0.4597650000000  0.5835850000000 1.0
C      1  0.4640110000000  0.5624230000000  0.5498410000000 1.0
C      1  0.4091630000000  0.5882650000000  0.5662890000000 1.0
C      1  0.4193150000000  0.4229690000000  0.5157090000000 1.0
C      1  0.5597720000000  0.5984830000000  0.5461120000000 1.0
C      1  0.5554660000000  0.5312240000000  0.5618430000000 1.0
C      1  0.4075950000000  0.4336990000000  0.4891860000000 1.0
C      1  0.4582110000000  0.4541220000000  0.5049910000000 1.0
C      1  0.5397180000000  0.4826950000000  0.3746920000000 1.0
C      1  0.5187770000000  0.5629150000000  0.4224790000000 1.0
C      1  0.4360640000000  0.4226200000000  0.5593940000000 1.0
C      1  0.4255340000000  0.5135180000000  0.5500340000000 1.0
C      1  0.4547400000000  0.5096110000000  0.3924430000000 1.0
C      1  0.4452150000000  0.5508240000000  0.4278270000000 1.0
C      1  0.6005770000000  0.4589030000000  0.4693890000000 1.0
C      1  0.5785090000000  0.5448890000000  0.5014190000000 1.0
C      1  0.5729420000000  0.5382030000000  0.4300090000000 1.0
C      1  0.5221350000000  0.6002580000000  0.4748640000000 1.0
C      1  0.5453410000000  0.5156960000000  0.4508620000000 1.0
C      1  0.4964600000000  0.4387790000000  0.4070520000000 1.0
C      1  0.4349240000000  0.5175800000000  0.4797460000000 1.0
C      1  0.4355330000000  0.5068370000000  0.5032820000000 1.0
C      1  0.5505180000000  0.4379920000000  0.5706780000000 1.0
C      1  0.5414450000000  0.5718980000000  0.4374090000000 1.0
C      1  0.4627350000000  0.5299810000000  0.4804220000000 1.0
C      1  0.4752730000000  0.4640440000000  0.4565610000000 1.0
C      1  0.5731150000000  0.4895320000000  0.4149660000000 1.0
C      1  0.5779100000000  0.4505350000000  0.5327770000000 1.0
C      1  0.5667350000000  0.5597840000000  0.4488410000000 1.0
C      1  0.5884180000000  0.5122490000000  0.4295460000000 1.0
C      1  0.4939190000000  0.6299590000000  0.5210760000000 1.0
C      1  0.4462720000000  0.4672750000000  0.5287460000000 1.0
C      1  0.4952100000000  0.5518610000000  0.4145810000000 1.0
C      1  0.4560670000000  0.6027270000000  0.4946740000000 1.0
C      1  0.4756490000000  0.4830650000000  0.5923110000000 1.0
C      1  0.5160670000000  0.4482090000000  0.5211290000000 1.0
C      1  0.4796710000000  0.4913390000000  0.4459400000000 1.0
C      1  0.4632290000000  0.4227540000000  0.4928030000000 1.0
C      1  0.4872750000000  0.5460840000000  0.5595000000000 1.0
C      1  0.4490250000000  0.4423050000000  0.5778570000000 1.0
C      1  0.4947380000000  0.4312350000000  0.5807710000000 1.0
C      1  0.4236010000000  0.5684560000000  0.4759790000000 1.0
C      1  0.5201570000000  0.3943500000000  0.4621250000000 1.0
C      1  0.5030070000000  0.5326320000000  0.4626180000000 1.0
C      1  0.4770160000000  0.4902710000000  0.4903200000000 1.0
C      1  0.4201400000000  0.5029600000000  0.4564900000000 1.0
C      1  0.5868120000000  0.4346380000000  0.4624600000000 1.0
C      1  0.5405200000000  0.6126540000000  0.4914670000000 1.0
C      1  0.4570420000000  0.4126520000000  0.5429730000000 1.0
C      1  0.4789440000000  0.4910740000000  0.5194220000000 1.0
C      1  0.4168950000000  0.5476810000000  0.5177080000000 1.0
C      1  0.5712670000000  0.5669940000000  0.4773440000000 1.0
C      1  0.5865400000000  0.5507860000000  0.5304690000000 1.0
C      1  0.4931900000000  0.5029430000000  0.6062330000000 1.0
C      1  0.4135150000000  0.4326220000000  0.5421960000000 1.0
C      1  0.5503910000000  0.4096510000000  0.5252020000000 1.0
C      1  0.4261710000000  0.4742620000000  0.4605050000000 1.0
C      1  0.4832440000000  0.5054590000000  0.3878040000000 1.0
C      1  0.4162620000000  0.4717170000000  0.5680080000000 1.0
C      1  0.4483760000000  0.5572700000000  0.5186150000000 1.0
C      1  0.3850090000000  0.5070450000000  0.5263210000000 1.0
C      1  0.5196210000000  0.4799260000000  0.5703320000000 1.0
C      1  0.4533500000000  0.4536040000000  0.4199100000000 1.0
C      1  0.5013070000000  0.5501390000000  0.5124580000000 1.0
C      1  0.4739400000000  0.4488330000000  0.5909060000000 1.0
C      1  0.5608360000000  0.4718270000000  0.5218380000000 1.0
C      1  0.4386490000000  0.5253260000000  0.4102800000000 1.0
C      1  0.5490090000000  0.4682970000000  0.4656270000000 1.0
C      1  0.5482460000000  0.4211230000000  0.4744660000000 1.0
C      1  0.4792910000000  0.5759320000000  0.4557680000000 1.0
C      1  0.5017500000000  0.5342900000000  0.5378350000000 1.0
C      1  0.5825540000000  0.5033150000000  0.4791450000000 1.0
C      1  0.4798210000000  0.6130750000000  0.5384520000000 1.0
C      1  0.4538640000000  0.5311080000000  0.5925240000000 1.0
C      1  0.4667340000000  0.6209800000000  0.5158420000000 1.0
C      1  0.5760450000000  0.4737640000000  0.4750960000000 1.0
C      1  0.4818260000000  0.4551190000000  0.5493440000000 1.0
C      1  0.4803870000000  0.5171850000000  0.4609970000000 1.0
C      1  0.5339850000000  0.5980220000000  0.5613800000000 1.0
C      1  0.5021660000000  0.4773210000000  0.4850480000000 1.0
C      1  0.5094670000000  0.5841090000000  0.5677330000000 1.0
C      1  0.4428920000000  0.4638470000000  0.5579640000000 1.0
C      1  0.5167590000000  0.4665840000000  0.3829980000000 1.0
C      1  0.5498210000000  0.3923960000000  0.4639560000000 1.0
C      1  0.4050120000000  0.5277480000000  0.5353240000000 1.0
C      1  0.4039610000000  0.4611260000000  0.4785160000000 1.0
C      1  0.5375440000000  0.4883760000000  0.4498190000000 1.0
C      1  0.5531530000000  0.5585540000000  0.5634390000000 1.0
C      1  0.5531780000000  0.5308320000000  0.5134420000000 1.0
C      1  0.5247990000000  0.4973380000000  0.5158910000000 1.0
C      1  0.4342840000000  0.4968360000000  0.4118190000000 1.0
C      1  0.4463300000000  0.4119060000000  0.5165840000000 1.0
C      1  0.4246380000000  0.4991400000000  0.5753610000000 1.0
C      1  0.5855690000000  0.4270620000000  0.4906200000000 1.0
C      1  0.5211430000000  0.4781170000000  0.4294850000000 1.0
C      1  0.5944410000000  0.5123030000000  0.4563360000000 1.0
C      1  0.3799250000000  0.5064340000000  0.4976100000000 1.0
C      1  0.5040390000000  0.4489000000000  0.4745830000000 1.0
C      1  0.5586800000000  0.5905260000000  0.4867580000000 1.0
C      1  0.3938050000000  0.5170400000000  0.4531560000000 1.0
C      1  0.5503240000000  0.5004340000000  0.5301200000000 1.0
C      1  0.5220730000000  0.5097560000000  0.6071030000000 1.0
C      1  0.5294650000000  0.5392870000000  0.5006450000000 1.0
C      1  0.5405760000000  0.4319530000000  0.4280340000000 1.0
C      1  0.5026590000000  0.5965600000000  0.4954890000000 1.0
C      1  0.4928390000000  0.4238250000000  0.4879470000000 1.0
C      1  0.5332060000000  0.4446280000000  0.4680930000000 1.0
C      1  0.4698600000000  0.5445530000000  0.5028050000000 1.0
C      1  0.5007060000000  0.5776810000000  0.5181980000000 1.0
C      1  0.5725010000000  0.5710820000000  0.5468420000000 1.0
C      1  0.4361620000000  0.4958250000000  0.5274200000000 1.0
C      1  0.5244320000000  0.4624750000000  0.5954430000000 1.0
C      1  0.5032810000000  0.5602460000000  0.4636420000000 1.0
C      1  0.4924350000000  0.4218220000000  0.4293540000000 1.0
C      1  0.4669790000000  0.4362810000000  0.4414800000000 1.0
C      1  0.5630410000000  0.4923220000000  0.5771690000000 1.0
C      1  0.5188570000000  0.4147570000000  0.4388670000000 1.0
C      1  0.4499130000000  0.5032500000000  0.5897630000000 1.0
C      1  0.4345950000000  0.5594900000000  0.4514890000000 1.0
C      1  0.4863700000000  0.4620850000000  0.5217320000000 1.0
C      1  0.4050980000000  0.5505090000000  0.4920030000000 1.0
C      1  0.5481560000000  0.4960020000000  0.6048730000000 1.0
C      1  0.5984100000000  0.4423350000000  0.5122350000000 1.0
C      1  0.5235840000000  0.4010290000000  0.5176040000000 1.0
C      1  0.4561300000000  0.4706230000000  0.4788620000000 1.0
C      1  0.4007490000000  0.4591290000000  0.5467920000000 1.0
C      1  0.3888990000000  0.4773190000000  0.5268500000000 1.0
C      1  0.4266450000000  0.4277870000000  0.4706840000000 1.0
C      1  0.4740240000000  0.4559340000000  0.3992190000000 1.0
C      1  0.3876900000000  0.5288840000000  0.4801170000000 1.0
C      1  0.5422470000000  0.4536580000000  0.5104570000000 1.0
C      1  0.5987070000000  0.5224140000000  0.4946250000000 1.0
C      1  0.5676910000000  0.4388950000000  0.4370770000000 1.0
C      1  0.5787780000000  0.5176480000000  0.5659820000000 1.0
C      1  0.5012730000000  0.5059380000000  0.5310280000000 1.0
C      1  0.4905070000000  0.4776670000000  0.5659100000000 1.0
C      1  0.5179860000000  0.6190370000000  0.5095310000000 1.0
C      1  0.4478010000000  0.5558500000000  0.5739510000000 1.0
C      1  0.5336040000000  0.5205350000000  0.4055830000000 1.0
C      1  0.3879560000000  0.4770580000000  0.4969960000000 1.0
C      1  0.5607740000000  0.4289040000000  0.5447020000000 1.0
C      1  0.5937570000000  0.5251970000000  0.5425160000000 1.0
C      1  0.5105550000000  0.4013090000000  0.4904950000000 1.0
C      1  0.5233350000000  0.4354520000000  0.5847500000000 1.0
C      1  0.6154050000000  0.4604710000000  0.4968350000000 1.0
C      1  0.5408340000000  0.4942920000000  0.5582600000000 1.0
C      1  0.4385440000000  0.5793630000000  0.4995890000000 1.0
C      1  0.4889460000000  0.4769130000000  0.3846380000000 1.0
C      1  0.5033970000000  0.5211660000000  0.4056290000000 1.0
C      1  0.4881750000000  0.5863900000000  0.5427800000000 1.0
C      1  0.4994670000000  0.5484240000000  0.5868050000000 1.0
C      1  0.5700490000000  0.4637680000000  0.4252880000000 1.0
C      1  0.4762250000000  0.5961830000000  0.4756180000000 1.0
C      1  0.5521940000000  0.5410930000000  0.5868940000000 1.0
C      1  0.4855160000000  0.4249460000000  0.5518660000000 1.0
C      1  0.5243230000000  0.5370090000000  0.5970070000000 1.0
C      1  0.4273770000000  0.5725200000000  0.5704140000000 1.0
C      1  0.4516630000000  0.4210460000000  0.4636030000000 1.0
C      1  0.5512920000000  0.5002680000000  0.3969090000000 1.0
C      1  0.5238470000000  0.4532510000000  0.4128250000000 1.0
C      1  0.5263150000000  0.5218100000000  0.4745630000000 1.0
END
