TITL C-883740-3686-250 -3.59959162391552 125000 -7257.71449752473 0 0 49 (C1) n - 1
REM
REM in /home/nfs/bkarasulu/CARBON/AIRSS/Generating-Clusters/ReaxFF-fromJPCA2015/Units_Real/with-SteepDescent/Only-C1/SD-CG/Try1-3A/FIRE-CG
REM
REM
REM
REM
REM
REM ./C.cell (11c1c37f851c82e70ff6c80c92926a4b)
REM
REM compiler GCC version 9.2.1 20190827 (Red Hat 9.2.1-1)
REM options -cpp -mtune=generic -march=x86-64 -g -O0 -fpre-include=/usr/include/finclude/math-vector-fortran.h
REM seed 670194709 1058057808 -1052378193 1803320877 -518393233 126798572 -841495976 254722249 -2075822906 750023810 1463806196 1101720284 1407672632 -1881282046 1361667979 -260696231 876565472 -45078292 -582921667 -506159832 -1641569844 109639364 1737622767 1956335094 -358543423 -473406211 2131141764 1379661914 1940432368 947640338 -1552797321 -765938046 -845830982
REM
CELL 1.54180   50.00000   50.00000   50.00000   90.00000   90.00000   90.00000
LATT -1
SFAC C  
C      1  0.5443580000000  0.5340420000000  0.5501490000000 1.0
C      1  0.4291350000000  0.4930620000000  0.4882490000000 1.0
C      1  0.4965650000000  0.4772200000000  0.5648610000000 1.0
C      1  0.4876530000000  0.4304530000000  0.5185020000000 1.0
C      1  0.4971700000000  0.4928550000000  0.4829360000000 1.0
C      1  0.4659690000000  0.4883760000000  0.5287510000000 1.0
C      1  0.5528850000000  0.5051610000000  0.5466710000000 1.0
C      1  0.4826790000000  0.5444000000000  0.4718160000000 1.0
C      1  0.5444330000000  0.5111540000000  0.4549740000000 1.0
C      1  0.5633800000000  0.4712990000000  0.4776880000000 1.0
C      1  0.5658430000000  0.5247560000000  0.4991880000000 1.0
C      1  0.5047420000000  0.5290340000000  0.4396840000000 1.0
C      1  0.5779840000000  0.4717410000000  0.5018540000000 1.0
C      1  0.5063890000000  0.4942810000000  0.4171810000000 1.0
C      1  0.4417280000000  0.4723470000000  0.4743870000000 1.0
C      1  0.4773490000000  0.4825570000000  0.5010170000000 1.0
C      1  0.4590050000000  0.5132240000000  0.4432970000000 1.0
C      1  0.5447380000000  0.5292520000000  0.4782520000000 1.0
C      1  0.4508280000000  0.4897720000000  0.4543610000000 1.0
C      1  0.4556350000000  0.5139860000000  0.5406110000000 1.0
C      1  0.4695270000000  0.4696030000000  0.5520230000000 1.0
C      1  0.4566140000000  0.5366970000000  0.4618580000000 1.0
C      1  0.5431250000000  0.4821310000000  0.4613280000000 1.0
C      1  0.4593740000000  0.4372280000000  0.5191780000000 1.0
C      1  0.5131310000000  0.4419760000000  0.5314450000000 1.0
C      1  0.4388380000000  0.5414740000000  0.4842810000000 1.0
C      1  0.4898280000000  0.5510240000000  0.5425790000000 1.0
C      1  0.5427230000000  0.4781570000000  0.5401220000000 1.0
C      1  0.4246690000000  0.5188660000000  0.4988700000000 1.0
C      1  0.5799400000000  0.5005070000000  0.5006390000000 1.0
C      1  0.4885300000000  0.4375970000000  0.4893010000000 1.0
C      1  0.4847760000000  0.5136700000000  0.4252560000000 1.0
C      1  0.5186180000000  0.4640910000000  0.5492020000000 1.0
C      1  0.5646700000000  0.5254610000000  0.5298970000000 1.0
C      1  0.5272670000000  0.5136470000000  0.4310290000000 1.0
C      1  0.5015870000000  0.5232080000000  0.4706760000000 1.0
C      1  0.5192980000000  0.5382930000000  0.4883360000000 1.0
C      1  0.4968970000000  0.5563990000000  0.4934070000000 1.0
C      1  0.4506000000000  0.5510650000000  0.5097550000000 1.0
C      1  0.5320990000000  0.4443320000000  0.5097370000000 1.0
C      1  0.4788770000000  0.5576750000000  0.5160530000000 1.0
C      1  0.4370200000000  0.5296980000000  0.5244370000000 1.0
C      1  0.5180580000000  0.5458690000000  0.5462610000000 1.0
C      1  0.4647540000000  0.4563160000000  0.4923570000000 1.0
C      1  0.5157460000000  0.4740800000000  0.4730330000000 1.0
C      1  0.5154510000000  0.4473410000000  0.4850850000000 1.0
C      1  0.5536080000000  0.4623300000000  0.5181510000000 1.0
C      1  0.4761400000000  0.5277310000000  0.5570280000000 1.0
C      1  0.4897700000000  0.5045630000000  0.5642440000000 1.0
END
