TITL C-884141-4321-436 19.2654927201847 125000 -22536.3365516339 0 0 150 (C1) n - 1
REM
REM in /home/nfs/bkarasulu/CARBON/AIRSS/Generating-Clusters/ReaxFF-fromJPCA2015/Units_Real/with-SteepDescent/Only-C1/SD-CG/Try1-3A/FIRE-CG
REM
REM
REM
REM
REM
REM ./C.cell (11c1c37f851c82e70ff6c80c92926a4b)
REM
REM compiler GCC version 9.2.1 20190827 (Red Hat 9.2.1-1)
REM options -cpp -mtune=generic -march=x86-64 -g -O0 -fpre-include=/usr/include/finclude/math-vector-fortran.h
REM seed 1042969437 1434937441 468162182 2086761450 985469116 1517157005 -926236834 1030581380 1612013261 -94556951 510968297 215775895 -738514093 956469760 102293606 1292198870 -1100309798 -1249841550 1146125970 2099430403 -1710669209 1614659348 -409174724 1838871853 406630170 532963041 1800318107 514193647 -1764125975 1584257615 1880224190 -367014819 -766674128
REM
CELL 1.54180   50.00000   50.00000   50.00000   90.00000   90.00000   90.00000
LATT -1
SFAC C  
C      1  0.5198250000000  0.5424090000000  0.4781750000000 1.0
C      1  0.5111230000000  0.5169730000000  0.5502350000000 1.0
C      1  0.5497990000000  0.5782920000000  0.5228340000000 1.0
C      1  0.4796850000000  0.5392930000000  0.4054930000000 1.0
C      1  0.4453960000000  0.5802580000000  0.4834150000000 1.0
C      1  0.4408330000000  0.5249340000000  0.5088520000000 1.0
C      1  0.4916630000000  0.4659640000000  0.6065820000000 1.0
C      1  0.4089800000000  0.5190180000000  0.4843800000000 1.0
C      1  0.4295210000000  0.4653390000000  0.5630250000000 1.0
C      1  0.4984550000000  0.4713730000000  0.4487230000000 1.0
C      1  0.6005370000000  0.4850840000000  0.5076840000000 1.0
C      1  0.4197660000000  0.4462920000000  0.5183070000000 1.0
C      1  0.5964390000000  0.4806330000000  0.5372330000000 1.0
C      1  0.4563210000000  0.4980960000000  0.4672310000000 1.0
C      1  0.4400560000000  0.4410170000000  0.4738330000000 1.0
C      1  0.5523630000000  0.4813650000000  0.4964890000000 1.0
C      1  0.5427000000000  0.5101960000000  0.3999700000000 1.0
C      1  0.4882650000000  0.5662880000000  0.5590320000000 1.0
C      1  0.5051740000000  0.5928500000000  0.5145040000000 1.0
C      1  0.4427790000000  0.5024930000000  0.5954080000000 1.0
C      1  0.5380150000000  0.4349470000000  0.4530630000000 1.0
C      1  0.5248360000000  0.4186410000000  0.5658040000000 1.0
C      1  0.5319230000000  0.4954370000000  0.4214020000000 1.0
C      1  0.5767770000000  0.4371760000000  0.4880940000000 1.0
C      1  0.5137390000000  0.5141630000000  0.4317640000000 1.0
C      1  0.5019690000000  0.4276830000000  0.5814200000000 1.0
C      1  0.5070120000000  0.5408780000000  0.4246080000000 1.0
C      1  0.4110990000000  0.5469580000000  0.4931350000000 1.0
C      1  0.4302440000000  0.4681740000000  0.4783190000000 1.0
C      1  0.4325140000000  0.4803120000000  0.4202790000000 1.0
C      1  0.4248220000000  0.5627800000000  0.4717940000000 1.0
C      1  0.4963500000000  0.5260770000000  0.4831630000000 1.0
C      1  0.4708210000000  0.5145170000000  0.4499820000000 1.0
C      1  0.4549550000000  0.4947700000000  0.4054480000000 1.0
C      1  0.4914270000000  0.4973600000000  0.4343250000000 1.0
C      1  0.5862610000000  0.5290390000000  0.5493240000000 1.0
C      1  0.4110950000000  0.4837750000000  0.4626710000000 1.0
C      1  0.4438480000000  0.4753940000000  0.5031830000000 1.0
C      1  0.5539100000000  0.5027550000000  0.4771790000000 1.0
C      1  0.5394670000000  0.4587410000000  0.5876860000000 1.0
C      1  0.4843380000000  0.5291110000000  0.5091890000000 1.0
C      1  0.5726730000000  0.4917540000000  0.5449440000000 1.0
C      1  0.4472010000000  0.5669640000000  0.5298700000000 1.0
C      1  0.5100830000000  0.5608820000000  0.5785890000000 1.0
C      1  0.5485820000000  0.4518250000000  0.4286020000000 1.0
C      1  0.4784630000000  0.5384830000000  0.4639280000000 1.0
C      1  0.5687980000000  0.5159630000000  0.5300890000000 1.0
C      1  0.4871880000000  0.5202050000000  0.6101030000000 1.0
C      1  0.5142580000000  0.5697230000000  0.4753210000000 1.0
C      1  0.4420820000000  0.4314650000000  0.4425190000000 1.0
C      1  0.5960200000000  0.5354720000000  0.4833420000000 1.0
C      1  0.5134790000000  0.4491560000000  0.5974960000000 1.0
C      1  0.4843270000000  0.4681410000000  0.5371600000000 1.0
C      1  0.4701110000000  0.5616790000000  0.4817410000000 1.0
C      1  0.5480040000000  0.4375370000000  0.5695980000000 1.0
C      1  0.5346160000000  0.5713150000000  0.5672200000000 1.0
C      1  0.4696210000000  0.4549150000000  0.5917460000000 1.0
C      1  0.5370520000000  0.5851240000000  0.4739600000000 1.0
C      1  0.3986860000000  0.4914090000000  0.4891690000000 1.0
C      1  0.4541110000000  0.5723460000000  0.4337810000000 1.0
C      1  0.5775880000000  0.5678280000000  0.5251190000000 1.0
C      1  0.4607150000000  0.5250140000000  0.5977820000000 1.0
C      1  0.5824150000000  0.4946330000000  0.4228030000000 1.0
C      1  0.4339620000000  0.5536710000000  0.4455270000000 1.0
C      1  0.5827300000000  0.4553500000000  0.5320300000000 1.0
C      1  0.5345590000000  0.5643840000000  0.5411040000000 1.0
C      1  0.5472370000000  0.4230510000000  0.5262280000000 1.0
C      1  0.4951670000000  0.5277260000000  0.3834950000000 1.0
C      1  0.4285340000000  0.5134130000000  0.5735250000000 1.0
C      1  0.4996600000000  0.4835860000000  0.4925240000000 1.0
C      1  0.4897830000000  0.4889090000000  0.5181700000000 1.0
C      1  0.5600500000000  0.5087820000000  0.5853410000000 1.0
C      1  0.5255770000000  0.4725970000000  0.4887310000000 1.0
C      1  0.5624540000000  0.5596300000000  0.4540750000000 1.0
C      1  0.5280900000000  0.4496920000000  0.5226690000000 1.0
C      1  0.4969650000000  0.5007290000000  0.3838900000000 1.0
C      1  0.5833520000000  0.5053400000000  0.5672420000000 1.0
C      1  0.5702540000000  0.5157630000000  0.4061300000000 1.0
C      1  0.4798700000000  0.5984030000000  0.5007970000000 1.0
C      1  0.4757200000000  0.5556240000000  0.5129110000000 1.0
C      1  0.4717310000000  0.5681140000000  0.4103510000000 1.0
C      1  0.4697510000000  0.4118900000000  0.5271970000000 1.0
C      1  0.4265000000000  0.5484790000000  0.5179400000000 1.0
C      1  0.4676190000000  0.4176740000000  0.4475810000000 1.0
C      1  0.5146270000000  0.4351820000000  0.5014980000000 1.0
C      1  0.4376530000000  0.5147270000000  0.4818940000000 1.0
C      1  0.4528440000000  0.5221580000000  0.4122220000000 1.0
C      1  0.4646050000000  0.4574390000000  0.5117620000000 1.0
C      1  0.4978010000000  0.4014130000000  0.5260530000000 1.0
C      1  0.4556590000000  0.5325810000000  0.5686090000000 1.0
C      1  0.5432860000000  0.5275870000000  0.4884330000000 1.0
C      1  0.5260020000000  0.4642350000000  0.4167240000000 1.0
C      1  0.5180060000000  0.5660560000000  0.4286210000000 1.0
C      1  0.5446680000000  0.5264290000000  0.5173110000000 1.0
C      1  0.4536740000000  0.4757860000000  0.5793040000000 1.0
C      1  0.5606640000000  0.4177810000000  0.4995400000000 1.0
C      1  0.5471880000000  0.4870860000000  0.4517940000000 1.0
C      1  0.5112760000000  0.5112870000000  0.5979210000000 1.0
C      1  0.5989760000000  0.5098400000000  0.4955520000000 1.0
C      1  0.5150290000000  0.4666710000000  0.5416870000000 1.0
C      1  0.4796450000000  0.5122440000000  0.5533750000000 1.0
C      1  0.4206240000000  0.4996890000000  0.4389300000000 1.0
C      1  0.4683430000000  0.4491750000000  0.4850490000000 1.0
C      1  0.4702100000000  0.4064480000000  0.4746810000000 1.0
C      1  0.4533830000000  0.5902520000000  0.5093940000000 1.0
C      1  0.5419900000000  0.5753110000000  0.4466710000000 1.0
C      1  0.5241920000000  0.4914050000000  0.5548450000000 1.0
C      1  0.4587230000000  0.4275480000000  0.5491410000000 1.0
C      1  0.4375560000000  0.4542690000000  0.4294580000000 1.0
C      1  0.4751660000000  0.5093240000000  0.5248540000000 1.0
C      1  0.5226890000000  0.4070570000000  0.5397550000000 1.0
C      1  0.4730040000000  0.4845780000000  0.5590010000000 1.0
C      1  0.5849390000000  0.5229090000000  0.4307280000000 1.0
C      1  0.5769420000000  0.4634690000000  0.5011260000000 1.0
C      1  0.5800450000000  0.5568780000000  0.5532550000000 1.0
C      1  0.5495310000000  0.5355720000000  0.5887350000000 1.0
C      1  0.4558260000000  0.4115380000000  0.5009840000000 1.0
C      1  0.5601620000000  0.5587560000000  0.5744190000000 1.0
C      1  0.5101610000000  0.4050230000000  0.4995330000000 1.0
C      1  0.4164380000000  0.4907240000000  0.5589780000000 1.0
C      1  0.4740180000000  0.4327050000000  0.5739860000000 1.0
C      1  0.4758640000000  0.5886550000000  0.4456090000000 1.0
C      1  0.4927010000000  0.4275910000000  0.4341840000000 1.0
C      1  0.4967420000000  0.4935790000000  0.6145180000000 1.0
C      1  0.4339070000000  0.4440530000000  0.5445280000000 1.0
C      1  0.4042830000000  0.4720300000000  0.5120610000000 1.0
C      1  0.4327840000000  0.5264370000000  0.4326000000000 1.0
C      1  0.5206820000000  0.5382880000000  0.5938950000000 1.0
C      1  0.5680480000000  0.4726080000000  0.4360450000000 1.0
C      1  0.4829680000000  0.4861980000000  0.4052330000000 1.0
C      1  0.5128940000000  0.4174140000000  0.4506860000000 1.0
C      1  0.5259980000000  0.4660020000000  0.4608700000000 1.0
C      1  0.4988140000000  0.4022560000000  0.4722290000000 1.0
C      1  0.4603420000000  0.5592270000000  0.5565740000000 1.0
C      1  0.5212920000000  0.5167200000000  0.3818080000000 1.0
C      1  0.4987600000000  0.4550340000000  0.4223880000000 1.0
C      1  0.4392560000000  0.4986700000000  0.5207330000000 1.0
C      1  0.4961160000000  0.5695090000000  0.5300810000000 1.0
C      1  0.4938160000000  0.5829850000000  0.4232760000000 1.0
C      1  0.5650980000000  0.4372640000000  0.5461580000000 1.0
C      1  0.5397730000000  0.4877580000000  0.5809020000000 1.0
C      1  0.5332870000000  0.5912780000000  0.5030170000000 1.0
C      1  0.4784710000000  0.4745440000000  0.4724550000000 1.0
C      1  0.5815280000000  0.5403530000000  0.4546380000000 1.0
C      1  0.4311940000000  0.4267950000000  0.4997600000000 1.0
C      1  0.5874230000000  0.5517210000000  0.5040090000000 1.0
C      1  0.5585080000000  0.4247660000000  0.4722710000000 1.0
C      1  0.5234480000000  0.5383800000000  0.5345750000000 1.0
C      1  0.4889810000000  0.5835500000000  0.4735310000000 1.0
C      1  0.4107370000000  0.4937030000000  0.5299630000000 1.0
END
