TITL C-883731-9874-103 4.08129766240973 125000 -5000.79243798002 0 0 35 (C1) n - 1
REM
REM in /home/nfs/bkarasulu/CARBON/AIRSS/Generating-Clusters/ReaxFF-fromJPCA2015/Units_Real/with-SteepDescent/Only-C1/SD-CG/Try1-3A/FIRE-CG
REM
REM
REM
REM
REM
REM ./C.cell (11c1c37f851c82e70ff6c80c92926a4b)
REM
REM compiler GCC version 9.2.1 20190827 (Red Hat 9.2.1-1)
REM options -cpp -mtune=generic -march=x86-64 -g -O0 -fpre-include=/usr/include/finclude/math-vector-fortran.h
REM seed -352951692 -809697623 1550525751 -1016690960 1540156341 1640078955 291530374 -1899474001 -443810376 -1933264804 1801986620 1831672889 -982178301 -543377741 -959765094 70975946 153304525 -1730129413 977462347 -1707468788 629877681 -468142383 -566844602 -1299603434 -132807489 879639425 -1075185174 -1336255190 1837309575 -1585517124 79611075 -1798342275 654183836
REM
CELL 1.54180   50.00000   50.00000   50.00000   90.00000   90.00000   90.00000
LATT -1
SFAC C  
C      1  0.5065530000000  0.4410600000000  0.4918600000000 1.0
C      1  0.4833890000000  0.5249360000000  0.4807480000000 1.0
C      1  0.4811230000000  0.4511460000000  0.4475880000000 1.0
C      1  0.4911380000000  0.4317720000000  0.4683580000000 1.0
C      1  0.5560510000000  0.4901430000000  0.4544050000000 1.0
C      1  0.4967590000000  0.5418680000000  0.5259290000000 1.0
C      1  0.5375070000000  0.4898460000000  0.5248730000000 1.0
C      1  0.5444790000000  0.4646740000000  0.5099890000000 1.0
C      1  0.5143440000000  0.4931890000000  0.5446060000000 1.0
C      1  0.4689000000000  0.5497150000000  0.5189420000000 1.0
C      1  0.5072420000000  0.5405500000000  0.4751390000000 1.0
C      1  0.4918770000000  0.4547390000000  0.5134640000000 1.0
C      1  0.5313740000000  0.4748500000000  0.4615420000000 1.0
C      1  0.5027700000000  0.4704080000000  0.5337640000000 1.0
C      1  0.5477460000000  0.5189250000000  0.4503690000000 1.0
C      1  0.4999710000000  0.5197940000000  0.5463570000000 1.0
C      1  0.5251460000000  0.5073330000000  0.5039900000000 1.0
C      1  0.4777810000000  0.4801920000000  0.5017220000000 1.0
C      1  0.5397810000000  0.5334840000000  0.5076880000000 1.0
C      1  0.5090530000000  0.4918040000000  0.4540700000000 1.0
C      1  0.5183800000000  0.5200310000000  0.4565090000000 1.0
C      1  0.4450830000000  0.4954130000000  0.5393140000000 1.0
C      1  0.4399880000000  0.4938560000000  0.4871230000000 1.0
C      1  0.4517250000000  0.5066820000000  0.5605900000000 1.0
C      1  0.5313200000000  0.4557180000000  0.4851230000000 1.0
C      1  0.5150350000000  0.5483130000000  0.5029660000000 1.0
C      1  0.5564210000000  0.5388330000000  0.5295000000000 1.0
C      1  0.4970100000000  0.5046790000000  0.4969410000000 1.0
C      1  0.4343770000000  0.5234410000000  0.4861050000000 1.0
C      1  0.4629690000000  0.4794180000000  0.4747180000000 1.0
C      1  0.4480790000000  0.4847980000000  0.5138550000000 1.0
C      1  0.4589350000000  0.5391970000000  0.4925130000000 1.0
C      1  0.5708540000000  0.5434720000000  0.5484180000000 1.0
C      1  0.4750690000000  0.5149330000000  0.5586020000000 1.0
C      1  0.4817730000000  0.4807870000000  0.4523200000000 1.0
END
