TITL C-883727-9645-221 1.83915665615621 125000 -17586.9134799963 0 0 118 (C1) n - 1
REM
REM in /home/nfs/bkarasulu/CARBON/AIRSS/Generating-Clusters/ReaxFF-fromJPCA2015/Units_Real/with-SteepDescent/Only-C1/SD-CG/Try1-3A/FIRE-CG
REM
REM
REM
REM
REM
REM ./C.cell (11c1c37f851c82e70ff6c80c92926a4b)
REM
REM compiler GCC version 9.2.1 20190827 (Red Hat 9.2.1-1)
REM options -cpp -mtune=generic -march=x86-64 -g -O0 -fpre-include=/usr/include/finclude/math-vector-fortran.h
REM seed -496937703 -327308095 -277392032 2102961803 -1133792137 -1113903979 2039627370 -2066121099 -782246331 1355397124 -1579414622 1425762190 2092330993 -1857585199 721438447 -971734721 -771610456 -1797735701 -723272486 -325238259 1943213523 -854180221 649224308 -1117335272 -826599985 409730727 605711083 -791247178 701510625 -33183444 -207014085 1222308956 -1611588546
REM
CELL 1.54180   50.00000   50.00000   50.00000   90.00000   90.00000   90.00000
LATT -1
SFAC C  
C      1  0.5004080000000  0.4162320000000  0.5219660000000 1.0
C      1  0.5061570000000  0.5672480000000  0.4410640000000 1.0
C      1  0.4317670000000  0.4751370000000  0.5344030000000 1.0
C      1  0.4457550000000  0.4259230000000  0.4825120000000 1.0
C      1  0.5287210000000  0.4612590000000  0.5767210000000 1.0
C      1  0.5445760000000  0.4773050000000  0.4776960000000 1.0
C      1  0.5146490000000  0.5833130000000  0.4644910000000 1.0
C      1  0.4751990000000  0.5994810000000  0.4706080000000 1.0
C      1  0.4344410000000  0.4465330000000  0.5284820000000 1.0
C      1  0.5878370000000  0.5490690000000  0.4966760000000 1.0
C      1  0.5052890000000  0.5007130000000  0.4067720000000 1.0
C      1  0.4243600000000  0.5290680000000  0.5011220000000 1.0
C      1  0.4950100000000  0.4452110000000  0.5149280000000 1.0
C      1  0.5985130000000  0.5086290000000  0.4906870000000 1.0
C      1  0.5092930000000  0.4675280000000  0.5304590000000 1.0
C      1  0.4576410000000  0.4821310000000  0.5790140000000 1.0
C      1  0.4505820000000  0.4354390000000  0.5505300000000 1.0
C      1  0.4440490000000  0.4835210000000  0.4785300000000 1.0
C      1  0.4671140000000  0.5798050000000  0.5267090000000 1.0
C      1  0.5537710000000  0.5043840000000  0.4207780000000 1.0
C      1  0.5172720000000  0.4053240000000  0.4696840000000 1.0
C      1  0.5234630000000  0.5555740000000  0.5799080000000 1.0
C      1  0.5837450000000  0.4830920000000  0.5291500000000 1.0
C      1  0.4148650000000  0.4861810000000  0.5556430000000 1.0
C      1  0.5863370000000  0.5308390000000  0.4723860000000 1.0
C      1  0.5008250000000  0.5691260000000  0.5685650000000 1.0
C      1  0.5475300000000  0.5625360000000  0.5643680000000 1.0
C      1  0.4183270000000  0.4665880000000  0.4857950000000 1.0
C      1  0.5019410000000  0.4890780000000  0.5505600000000 1.0
C      1  0.4735520000000  0.4329740000000  0.4702370000000 1.0
C      1  0.5825720000000  0.5118660000000  0.5350890000000 1.0
C      1  0.4785300000000  0.5510090000000  0.5719940000000 1.0
C      1  0.4403930000000  0.5479050000000  0.5416530000000 1.0
C      1  0.4595640000000  0.5632290000000  0.5517940000000 1.0
C      1  0.4549260000000  0.4802560000000  0.4071760000000 1.0
C      1  0.4735790000000  0.4610870000000  0.4150040000000 1.0
C      1  0.4797850000000  0.3891710000000  0.5318600000000 1.0
C      1  0.5493210000000  0.5325660000000  0.4306970000000 1.0
C      1  0.5690350000000  0.4647830000000  0.5464880000000 1.0
C      1  0.5346520000000  0.4272080000000  0.4737630000000 1.0
C      1  0.5587820000000  0.4313570000000  0.5138310000000 1.0
C      1  0.5376590000000  0.5807860000000  0.5423120000000 1.0
C      1  0.5633860000000  0.5781690000000  0.4800600000000 1.0
C      1  0.5305770000000  0.4883290000000  0.4129780000000 1.0
C      1  0.5713110000000  0.4447610000000  0.4651710000000 1.0
C      1  0.4948120000000  0.5198230000000  0.5219820000000 1.0
C      1  0.4890990000000  0.5532650000000  0.4950750000000 1.0
C      1  0.4984840000000  0.5935920000000  0.4877940000000 1.0
C      1  0.4822810000000  0.4948220000000  0.5880630000000 1.0
C      1  0.5022420000000  0.5289800000000  0.4150010000000 1.0
C      1  0.4585790000000  0.5777460000000  0.4568750000000 1.0
C      1  0.5268110000000  0.4557060000000  0.4684340000000 1.0
C      1  0.4478810000000  0.5167110000000  0.4892200000000 1.0
C      1  0.3952480000000  0.4765420000000  0.4764930000000 1.0
C      1  0.4883760000000  0.4810300000000  0.4867450000000 1.0
C      1  0.4801400000000  0.5255880000000  0.4961850000000 1.0
C      1  0.4831500000000  0.4826590000000  0.4003810000000 1.0
C      1  0.4929310000000  0.5902590000000  0.5204560000000 1.0
C      1  0.5723190000000  0.4690030000000  0.4812810000000 1.0
C      1  0.4897830000000  0.4518760000000  0.4877070000000 1.0
C      1  0.4780270000000  0.4572500000000  0.4432060000000 1.0
C      1  0.5677470000000  0.5316320000000  0.4513070000000 1.0
C      1  0.5344930000000  0.4769640000000  0.5185200000000 1.0
C      1  0.4589920000000  0.3919500000000  0.5162700000000 1.0
C      1  0.4018620000000  0.4955820000000  0.4594450000000 1.0
C      1  0.4900550000000  0.4085520000000  0.4727590000000 1.0
C      1  0.4405340000000  0.4866460000000  0.4314890000000 1.0
C      1  0.4173900000000  0.5149140000000  0.5563440000000 1.0
C      1  0.4332060000000  0.4981230000000  0.5752230000000 1.0
C      1  0.5319250000000  0.4623840000000  0.4277900000000 1.0
C      1  0.4423310000000  0.5667870000000  0.4786170000000 1.0
C      1  0.5564520000000  0.5195380000000  0.5429190000000 1.0
C      1  0.5089200000000  0.5853700000000  0.5442080000000 1.0
C      1  0.5298960000000  0.4380940000000  0.5585400000000 1.0
C      1  0.4494860000000  0.5236330000000  0.4628850000000 1.0
C      1  0.4277710000000  0.4413110000000  0.4999880000000 1.0
C      1  0.5527630000000  0.4760260000000  0.5672440000000 1.0
C      1  0.5131130000000  0.5282520000000  0.5841370000000 1.0
C      1  0.4772450000000  0.5362770000000  0.4289020000000 1.0
C      1  0.5411610000000  0.5695350000000  0.4648670000000 1.0
C      1  0.5431020000000  0.5727130000000  0.5152670000000 1.0
C      1  0.5094480000000  0.4593860000000  0.4456350000000 1.0
C      1  0.5200590000000  0.5184500000000  0.4669930000000 1.0
C      1  0.5617580000000  0.4255020000000  0.4865580000000 1.0
C      1  0.4933530000000  0.5069340000000  0.4700390000000 1.0
C      1  0.5204060000000  0.5060370000000  0.5665400000000 1.0
C      1  0.4450260000000  0.4045460000000  0.4996540000000 1.0
C      1  0.4783580000000  0.4331400000000  0.5615180000000 1.0
C      1  0.5969730000000  0.5266470000000  0.5132510000000 1.0
C      1  0.4556350000000  0.4754410000000  0.4519530000000 1.0
C      1  0.5549810000000  0.4391870000000  0.5403280000000 1.0
C      1  0.4597030000000  0.4528880000000  0.5723380000000 1.0
C      1  0.5304460000000  0.5434050000000  0.4774340000000 1.0
C      1  0.5051870000000  0.4252990000000  0.5510480000000 1.0
C      1  0.5482200000000  0.5038720000000  0.5646140000000 1.0
C      1  0.5904110000000  0.4823690000000  0.5005510000000 1.0
C      1  0.5218660000000  0.5455790000000  0.4277730000000 1.0
C      1  0.5390220000000  0.5044540000000  0.5074190000000 1.0
C      1  0.5215830000000  0.5513270000000  0.5047260000000 1.0
C      1  0.4790020000000  0.5037690000000  0.5396920000000 1.0
C      1  0.4630930000000  0.4806640000000  0.5007080000000 1.0
C      1  0.5080610000000  0.4033650000000  0.4953250000000 1.0
C      1  0.5722250000000  0.4824410000000  0.4309150000000 1.0
C      1  0.5607770000000  0.5407330000000  0.5545470000000 1.0
C      1  0.5601320000000  0.4570070000000  0.4395940000000 1.0
C      1  0.5051540000000  0.4754450000000  0.5891590000000 1.0
C      1  0.5715630000000  0.5729010000000  0.5061080000000 1.0
C      1  0.4212210000000  0.5325840000000  0.5314010000000 1.0
C      1  0.4237640000000  0.5302220000000  0.4529710000000 1.0
C      1  0.5239070000000  0.5255370000000  0.5218840000000 1.0
C      1  0.4206980000000  0.5465720000000  0.4781520000000 1.0
C      1  0.5399170000000  0.5043340000000  0.4788170000000 1.0
C      1  0.4770410000000  0.5638520000000  0.4383450000000 1.0
C      1  0.4847380000000  0.5256110000000  0.5857560000000 1.0
C      1  0.4731180000000  0.5174800000000  0.4505270000000 1.0
C      1  0.4177230000000  0.5053710000000  0.4388070000000 1.0
C      1  0.4559950000000  0.4899970000000  0.5269230000000 1.0
C      1  0.4637670000000  0.5667850000000  0.5000650000000 1.0
END
