TITL C-883739-1268-228 4.52069172085035 125000 -18046.0325501173 0 0 122 (C1) n - 1
REM
REM in /home/nfs/bkarasulu/CARBON/AIRSS/Generating-Clusters/ReaxFF-fromJPCA2015/Units_Real/with-SteepDescent/Only-C1/SD-CG/Try1-3A/FIRE-CG
REM
REM
REM
REM
REM
REM ./C.cell (11c1c37f851c82e70ff6c80c92926a4b)
REM
REM compiler GCC version 9.2.1 20190827 (Red Hat 9.2.1-1)
REM options -cpp -mtune=generic -march=x86-64 -g -O0 -fpre-include=/usr/include/finclude/math-vector-fortran.h
REM seed 765179208 -525446547 -427180165 1634071735 360962609 1054600365 268201219 1337372281 1059210936 1336883971 -404852125 -848950143 2125590900 579287724 1005411682 -1970585225 -46022434 -603884025 2129532457 1965885185 -1172443171 -1711601693 -734518758 -2065410510 1597404661 -316726074 -1080409907 -12082356 -1936452771 -989220700 -1461863325 282255768 -1319993508
REM
CELL 1.54180   50.00000   50.00000   50.00000   90.00000   90.00000   90.00000
LATT -1
SFAC C  
C      1  0.4782770000000  0.4544660000000  0.4973310000000 1.0
C      1  0.5045300000000  0.5947240000000  0.5366540000000 1.0
C      1  0.5570420000000  0.4597440000000  0.4225640000000 1.0
C      1  0.5673240000000  0.4394610000000  0.5352600000000 1.0
C      1  0.5673710000000  0.4858470000000  0.4870840000000 1.0
C      1  0.4666910000000  0.5327450000000  0.5293600000000 1.0
C      1  0.5557100000000  0.4229870000000  0.5144280000000 1.0
C      1  0.5599630000000  0.4484330000000  0.4500630000000 1.0
C      1  0.5298300000000  0.5818570000000  0.5500950000000 1.0
C      1  0.4382560000000  0.4777030000000  0.4237470000000 1.0
C      1  0.4820550000000  0.4094260000000  0.4957070000000 1.0
C      1  0.5784520000000  0.4663160000000  0.5419860000000 1.0
C      1  0.5284630000000  0.5497050000000  0.5244030000000 1.0
C      1  0.5219190000000  0.4383560000000  0.4817690000000 1.0
C      1  0.5112070000000  0.4554140000000  0.4092760000000 1.0
C      1  0.4580320000000  0.4461140000000  0.5722040000000 1.0
C      1  0.4804020000000  0.5226520000000  0.4077500000000 1.0
C      1  0.5928100000000  0.5387770000000  0.5014410000000 1.0
C      1  0.5062960000000  0.4607150000000  0.5799920000000 1.0
C      1  0.4869790000000  0.4808950000000  0.4327340000000 1.0
C      1  0.5137580000000  0.4398170000000  0.5623610000000 1.0
C      1  0.4838950000000  0.4519060000000  0.4245470000000 1.0
C      1  0.4419520000000  0.5305830000000  0.5727680000000 1.0
C      1  0.5012090000000  0.4106340000000  0.5198730000000 1.0
C      1  0.4413470000000  0.4864010000000  0.5540050000000 1.0
C      1  0.4350540000000  0.5379120000000  0.4653640000000 1.0
C      1  0.4417950000000  0.4927140000000  0.4471130000000 1.0
C      1  0.5013680000000  0.5721800000000  0.4513060000000 1.0
C      1  0.5278870000000  0.4937030000000  0.4821590000000 1.0
C      1  0.4665970000000  0.4267170000000  0.5522780000000 1.0
C      1  0.4154420000000  0.4850700000000  0.4857320000000 1.0
C      1  0.5617050000000  0.5794880000000  0.5028960000000 1.0
C      1  0.5415070000000  0.5143430000000  0.4974890000000 1.0
C      1  0.4799470000000  0.5490910000000  0.5644520000000 1.0
C      1  0.5299630000000  0.4079100000000  0.5178080000000 1.0
C      1  0.4966090000000  0.5304130000000  0.4862900000000 1.0
C      1  0.4948050000000  0.4876170000000  0.5123650000000 1.0
C      1  0.4148250000000  0.5152570000000  0.5270300000000 1.0
C      1  0.5736900000000  0.5316650000000  0.4402900000000 1.0
C      1  0.5080120000000  0.5597320000000  0.4245840000000 1.0
C      1  0.4951380000000  0.4240590000000  0.5464850000000 1.0
C      1  0.5340490000000  0.5204540000000  0.5274520000000 1.0
C      1  0.5997000000000  0.5171680000000  0.4865960000000 1.0
C      1  0.4518020000000  0.5687830000000  0.5206530000000 1.0
C      1  0.4519690000000  0.5574600000000  0.5683290000000 1.0
C      1  0.5595160000000  0.5103780000000  0.5499270000000 1.0
C      1  0.5606890000000  0.4668800000000  0.5639410000000 1.0
C      1  0.4412720000000  0.5064910000000  0.4241550000000 1.0
C      1  0.4877740000000  0.5390920000000  0.5911130000000 1.0
C      1  0.5567600000000  0.5134620000000  0.4217760000000 1.0
C      1  0.5401390000000  0.5403530000000  0.4594370000000 1.0
C      1  0.4797640000000  0.5453220000000  0.5060250000000 1.0
C      1  0.5206430000000  0.5384160000000  0.4391480000000 1.0
C      1  0.4948980000000  0.4842440000000  0.4600700000000 1.0
C      1  0.5422960000000  0.4491570000000  0.5505680000000 1.0
C      1  0.4176160000000  0.5399590000000  0.5115890000000 1.0
C      1  0.5166030000000  0.5384010000000  0.5869210000000 1.0
C      1  0.4862670000000  0.5255790000000  0.5484690000000 1.0
C      1  0.5806680000000  0.5603950000000  0.5066240000000 1.0
C      1  0.4970840000000  0.4995840000000  0.4118560000000 1.0
C      1  0.4564380000000  0.5475740000000  0.4495490000000 1.0
C      1  0.5683460000000  0.4952140000000  0.4614550000000 1.0
C      1  0.5218740000000  0.4159690000000  0.4637150000000 1.0
C      1  0.5188960000000  0.5113060000000  0.5884680000000 1.0
C      1  0.5476480000000  0.5722170000000  0.5288040000000 1.0
C      1  0.4509810000000  0.4379000000000  0.4536910000000 1.0
C      1  0.4533320000000  0.4532600000000  0.4286630000000 1.0
C      1  0.5259450000000  0.5367890000000  0.4846580000000 1.0
C      1  0.5518890000000  0.5748660000000  0.4746260000000 1.0
C      1  0.4593410000000  0.5293230000000  0.4257820000000 1.0
C      1  0.4951970000000  0.5408170000000  0.4080760000000 1.0
C      1  0.4530240000000  0.5798200000000  0.5472240000000 1.0
C      1  0.5509490000000  0.4904700000000  0.5723000000000 1.0
C      1  0.5018470000000  0.4829790000000  0.5397150000000 1.0
C      1  0.5562740000000  0.5391920000000  0.5597470000000 1.0
C      1  0.4963900000000  0.5876940000000  0.5078230000000 1.0
C      1  0.4163770000000  0.4554710000000  0.5439000000000 1.0
C      1  0.5094870000000  0.5110430000000  0.5408930000000 1.0
C      1  0.5240030000000  0.5748920000000  0.4688950000000 1.0
C      1  0.4581680000000  0.5001660000000  0.4830600000000 1.0
C      1  0.4741880000000  0.5842060000000  0.4872630000000 1.0
C      1  0.5184450000000  0.4731680000000  0.5031390000000 1.0
C      1  0.4543800000000  0.4184660000000  0.4997110000000 1.0
C      1  0.4799440000000  0.4314580000000  0.4528400000000 1.0
C      1  0.4790180000000  0.5910300000000  0.5450460000000 1.0
C      1  0.4648000000000  0.5186490000000  0.5902610000000 1.0
C      1  0.4707270000000  0.4919890000000  0.5886740000000 1.0
C      1  0.5396340000000  0.4953830000000  0.4551890000000 1.0
C      1  0.4277360000000  0.5124530000000  0.5543670000000 1.0
C      1  0.4940100000000  0.4551210000000  0.4743070000000 1.0
C      1  0.5863520000000  0.4979600000000  0.5049320000000 1.0
C      1  0.5300010000000  0.5124560000000  0.4333770000000 1.0
C      1  0.4387550000000  0.4366960000000  0.4805770000000 1.0
C      1  0.4061390000000  0.4611320000000  0.5186620000000 1.0
C      1  0.4615790000000  0.4808670000000  0.5334270000000 1.0
C      1  0.4279040000000  0.5536660000000  0.4871720000000 1.0
C      1  0.4737910000000  0.5695530000000  0.4621330000000 1.0
C      1  0.5255620000000  0.4676590000000  0.5308060000000 1.0
C      1  0.4627280000000  0.4538190000000  0.5200850000000 1.0
C      1  0.4682120000000  0.4946350000000  0.5086460000000 1.0
C      1  0.5206270000000  0.4823290000000  0.4044840000000 1.0
C      1  0.4930320000000  0.4097240000000  0.4683510000000 1.0
C      1  0.5794080000000  0.4936320000000  0.5329950000000 1.0
C      1  0.5040760000000  0.5602220000000  0.5136670000000 1.0
C      1  0.5675670000000  0.4579060000000  0.4771870000000 1.0
C      1  0.4839850000000  0.5086050000000  0.4723250000000 1.0
C      1  0.4394940000000  0.5466470000000  0.5294960000000 1.0
C      1  0.5351030000000  0.4400630000000  0.4171620000000 1.0
C      1  0.4321720000000  0.5050060000000  0.4708160000000 1.0
C      1  0.4512260000000  0.4268200000000  0.5271780000000 1.0
C      1  0.5254540000000  0.4847010000000  0.5851570000000 1.0
C      1  0.5888820000000  0.5155250000000  0.4585630000000 1.0
C      1  0.5637210000000  0.5563590000000  0.4534030000000 1.0
C      1  0.5405130000000  0.4271860000000  0.4433600000000 1.0
C      1  0.4200750000000  0.4569570000000  0.4906550000000 1.0
C      1  0.5500460000000  0.4861580000000  0.4109400000000 1.0
C      1  0.4774620000000  0.4644470000000  0.5855980000000 1.0
C      1  0.4061010000000  0.4908010000000  0.5120170000000 1.0
C      1  0.4472450000000  0.5763270000000  0.4937920000000 1.0
C      1  0.5488210000000  0.4419300000000  0.4927740000000 1.0
C      1  0.4324980000000  0.4594770000000  0.5662320000000 1.0
C      1  0.5345560000000  0.5567260000000  0.5665010000000 1.0
END
