TITL C-883741-3679-284 0.54235987021525 125000 -9961.42902074187 0 0 68 (C1) n - 1
REM
REM in /home/nfs/bkarasulu/CARBON/AIRSS/Generating-Clusters/ReaxFF-fromJPCA2015/Units_Real/with-SteepDescent/Only-C1/SD-CG/Try1-3A/FIRE-CG
REM
REM
REM
REM
REM
REM ./C.cell (11c1c37f851c82e70ff6c80c92926a4b)
REM
REM compiler GCC version 9.2.1 20190827 (Red Hat 9.2.1-1)
REM options -cpp -mtune=generic -march=x86-64 -g -O0 -fpre-include=/usr/include/finclude/math-vector-fortran.h
REM seed 1788359310 -689701103 156391483 905050853 -648697521 2126233961 1945073521 -1672346355 -1482021744 -1719702652 -445631307 -770919067 -250985372 -1984749317 -1100646745 32067635 -1572720256 -516413536 1767037764 -494274939 -1426705418 -1161380413 1739716665 583215900 -1697459304 2060875104 1252156170 -484882213 -1209010848 -1407594546 1293592948 -1141592447 -563298430
REM
CELL 1.54180   50.00000   50.00000   50.00000   90.00000   90.00000   90.00000
LATT -1
SFAC C  
C      1  0.5233610000000  0.4883010000000  0.5345140000000 1.0
C      1  0.4520480000000  0.5458420000000  0.5246380000000 1.0
C      1  0.5399760000000  0.4728200000000  0.4213050000000 1.0
C      1  0.4703980000000  0.4619700000000  0.4371310000000 1.0
C      1  0.4594520000000  0.4309230000000  0.4917240000000 1.0
C      1  0.5051400000000  0.5254640000000  0.5719450000000 1.0
C      1  0.5340200000000  0.5725360000000  0.4935330000000 1.0
C      1  0.5457790000000  0.5325310000000  0.5140340000000 1.0
C      1  0.4578540000000  0.5405430000000  0.5533360000000 1.0
C      1  0.4772800000000  0.5659930000000  0.4842920000000 1.0
C      1  0.4474510000000  0.4524420000000  0.4781780000000 1.0
C      1  0.5286450000000  0.4798060000000  0.4751620000000 1.0
C      1  0.4414600000000  0.4731650000000  0.5214350000000 1.0
C      1  0.4763960000000  0.5031090000000  0.4165470000000 1.0
C      1  0.5539100000000  0.5235060000000  0.4361110000000 1.0
C      1  0.5273550000000  0.5102680000000  0.5750000000000 1.0
C      1  0.5723950000000  0.4731070000000  0.5345120000000 1.0
C      1  0.5348580000000  0.5552900000000  0.4750040000000 1.0
C      1  0.4976800000000  0.5010410000000  0.5349580000000 1.0
C      1  0.5493660000000  0.5516000000000  0.5556720000000 1.0
C      1  0.4532370000000  0.5650100000000  0.5026340000000 1.0
C      1  0.5707800000000  0.5257540000000  0.5248300000000 1.0
C      1  0.5262970000000  0.5139450000000  0.5035090000000 1.0
C      1  0.5493260000000  0.4709440000000  0.4928670000000 1.0
C      1  0.5360510000000  0.5549040000000  0.5310340000000 1.0
C      1  0.4605450000000  0.4554100000000  0.5362950000000 1.0
C      1  0.4913180000000  0.5044600000000  0.4413130000000 1.0
C      1  0.4812480000000  0.5467570000000  0.4609870000000 1.0
C      1  0.5195190000000  0.5763970000000  0.5181330000000 1.0
C      1  0.5300370000000  0.5327740000000  0.4580670000000 1.0
C      1  0.4229870000000  0.5244620000000  0.4802590000000 1.0
C      1  0.4520690000000  0.5116620000000  0.5556810000000 1.0
C      1  0.5492870000000  0.4985550000000  0.4269470000000 1.0
C      1  0.5028240000000  0.4367070000000  0.5420340000000 1.0
C      1  0.5493390000000  0.5289460000000  0.5725530000000 1.0
C      1  0.5030250000000  0.5441780000000  0.4427980000000 1.0
C      1  0.4981890000000  0.5144970000000  0.5086320000000 1.0
C      1  0.4932500000000  0.4462020000000  0.4268240000000 1.0
C      1  0.5560460000000  0.4708050000000  0.5547740000000 1.0
C      1  0.5074230000000  0.4323190000000  0.4914420000000 1.0
C      1  0.4758210000000  0.4317050000000  0.5299970000000 1.0
C      1  0.4398920000000  0.5004820000000  0.5313970000000 1.0
C      1  0.4824040000000  0.4199480000000  0.5026690000000 1.0
C      1  0.5762180000000  0.5053090000000  0.5117700000000 1.0
C      1  0.4736340000000  0.4601740000000  0.4655150000000 1.0
C      1  0.5732980000000  0.4807290000000  0.5073750000000 1.0
C      1  0.5705300000000  0.5330650000000  0.5527610000000 1.0
C      1  0.5105800000000  0.4385890000000  0.4494090000000 1.0
C      1  0.5243920000000  0.5081700000000  0.4771370000000 1.0
C      1  0.4715440000000  0.5175460000000  0.4643620000000 1.0
C      1  0.5048030000000  0.4563750000000  0.4734240000000 1.0
C      1  0.5192600000000  0.4392050000000  0.5169380000000 1.0
C      1  0.4300100000000  0.5515780000000  0.4880210000000 1.0
C      1  0.4274690000000  0.4962880000000  0.4746220000000 1.0
C      1  0.5042960000000  0.4581100000000  0.5610430000000 1.0
C      1  0.4733680000000  0.5125720000000  0.4939020000000 1.0
C      1  0.5223820000000  0.4480830000000  0.4245520000000 1.0
C      1  0.4770070000000  0.4668700000000  0.5584180000000 1.0
C      1  0.4336180000000  0.4738040000000  0.4934290000000 1.0
C      1  0.4549990000000  0.4874340000000  0.4296710000000 1.0
C      1  0.4961270000000  0.5251130000000  0.4215310000000 1.0
C      1  0.4828240000000  0.5375670000000  0.5667280000000 1.0
C      1  0.4779280000000  0.4968900000000  0.5570260000000 1.0
C      1  0.4503500000000  0.5192880000000  0.5111020000000 1.0
C      1  0.4945450000000  0.5724630000000  0.5047860000000 1.0
C      1  0.5308720000000  0.4657840000000  0.5152550000000 1.0
C      1  0.5288010000000  0.4790480000000  0.5639350000000 1.0
C      1  0.4454030000000  0.5028680000000  0.4525820000000 1.0
END
