TITL C-883727-9645-285 4.08224749226975e-07 125000 -1960.68598672458 0 0 15 (C1) n - 1
REM
REM in /home/nfs/bkarasulu/CARBON/AIRSS/Generating-Clusters/ReaxFF-fromJPCA2015/Units_Real/with-SteepDescent/Only-C1/SD-CG/Try1-3A/FIRE-CG
REM
REM
REM
REM
REM
REM ./C.cell (11c1c37f851c82e70ff6c80c92926a4b)
REM
REM compiler GCC version 9.2.1 20190827 (Red Hat 9.2.1-1)
REM options -cpp -mtune=generic -march=x86-64 -g -O0 -fpre-include=/usr/include/finclude/math-vector-fortran.h
REM seed -447577227 304781729 594731250 1065745561 -276810641 -169180561 679197065 -528729660 919587739 -1586040525 -1371476187 -878390170 -1369058223 -853119485 2033529172 -995632993 1855926820 -1968114804 -1245347833 -1235460756 372217197 742275429 -1878907282 1325754859 222445149 243352330 -612985963 -203305 435643336 -1013970460 1838458316 490713938 -1794176812
REM
CELL 1.54180   50.00000   50.00000   50.00000   90.00000   90.00000   90.00000
LATT -1
SFAC C  
C      1  0.5140500000000  0.4865400000000  0.5339320000000 1.0
C      1  0.4876560000000  0.5389820000000  0.4897320000000 1.0
C      1  0.5224340000000  0.4551620000000  0.5084040000000 1.0
C      1  0.5435260000000  0.4831540000000  0.5306870000000 1.0
C      1  0.5499040000000  0.4559030000000  0.5129800000000 1.0
C      1  0.4886170000000  0.5777650000000  0.4826910000000 1.0
C      1  0.4418350000000  0.4937250000000  0.4491600000000 1.0
C      1  0.4839580000000  0.4880580000000  0.4966100000000 1.0
C      1  0.4951750000000  0.5174640000000  0.5019540000000 1.0
C      1  0.4985520000000  0.5595390000000  0.4967770000000 1.0
C      1  0.4990840000000  0.4697440000000  0.5146300000000 1.0
C      1  0.4467150000000  0.4666910000000  0.4589980000000 1.0
C      1  0.4663180000000  0.4810900000000  0.4782380000000 1.0
C      1  0.5160090000000  0.5145260000000  0.5241250000000 1.0
C      1  0.5461670000000  0.5116550000000  0.5210820000000 1.0
END
