TITL C-883741-3679-375 6.90829699111958 125000 -18389.3008378075 0 0 122 (C1) n - 1
REM
REM in /home/nfs/bkarasulu/CARBON/AIRSS/Generating-Clusters/ReaxFF-fromJPCA2015/Units_Real/with-SteepDescent/Only-C1/SD-CG/Try1-3A/FIRE-CG
REM
REM
REM
REM
REM
REM ./C.cell (11c1c37f851c82e70ff6c80c92926a4b)
REM
REM compiler GCC version 9.2.1 20190827 (Red Hat 9.2.1-1)
REM options -cpp -mtune=generic -march=x86-64 -g -O0 -fpre-include=/usr/include/finclude/math-vector-fortran.h
REM seed -822702359 359296321 -297879891 1580130162 -948391372 136962181 -2059776456 -2082419432 -1451343926 -1899324982 1898742338 208186428 1060667977 -1039801343 -700965007 212857223 -664847464 454232990 1686901380 1523098598 -1340072044 1053054230 1379975072 596782618 -1923587169 -343987113 920410810 -924309632 -1049808311 -64301411 -178226330 -1510524678 -1917324304
REM
CELL 1.54180   50.00000   50.00000   50.00000   90.00000   90.00000   90.00000
LATT -1
SFAC C  
C      1  0.5803260000000  0.5154350000000  0.5274150000000 1.0
C      1  0.4476820000000  0.4211210000000  0.5021220000000 1.0
C      1  0.4525150000000  0.4630690000000  0.4102960000000 1.0
C      1  0.4631560000000  0.4132460000000  0.5237560000000 1.0
C      1  0.5301620000000  0.5182920000000  0.3997700000000 1.0
C      1  0.4553890000000  0.4615830000000  0.4759990000000 1.0
C      1  0.4530880000000  0.5744540000000  0.5455710000000 1.0
C      1  0.5312180000000  0.5195160000000  0.4861520000000 1.0
C      1  0.4899720000000  0.5027640000000  0.4533720000000 1.0
C      1  0.4749380000000  0.5016660000000  0.5915620000000 1.0
C      1  0.3985340000000  0.4740760000000  0.4944360000000 1.0
C      1  0.5367680000000  0.4926820000000  0.4978220000000 1.0
C      1  0.5104880000000  0.5208450000000  0.4427360000000 1.0
C      1  0.4968060000000  0.4789690000000  0.4046700000000 1.0
C      1  0.4877040000000  0.4775910000000  0.5982450000000 1.0
C      1  0.5187760000000  0.5453930000000  0.5800370000000 1.0
C      1  0.5133600000000  0.4136080000000  0.5598380000000 1.0
C      1  0.4791720000000  0.4815110000000  0.5414020000000 1.0
C      1  0.4600640000000  0.5152440000000  0.4131640000000 1.0
C      1  0.4327200000000  0.5541560000000  0.5513690000000 1.0
C      1  0.5541820000000  0.5503790000000  0.5584580000000 1.0
C      1  0.4802340000000  0.5111880000000  0.4796420000000 1.0
C      1  0.4368720000000  0.4388900000000  0.4828210000000 1.0
C      1  0.4954960000000  0.5892170000000  0.4981870000000 1.0
C      1  0.4274710000000  0.5654890000000  0.5024430000000 1.0
C      1  0.4991790000000  0.4177320000000  0.4506020000000 1.0
C      1  0.5079170000000  0.5295450000000  0.4146030000000 1.0
C      1  0.4369240000000  0.5335930000000  0.5722210000000 1.0
C      1  0.5189340000000  0.4008430000000  0.5210580000000 1.0
C      1  0.5434290000000  0.4470750000000  0.4747220000000 1.0
C      1  0.5873610000000  0.5397770000000  0.4750860000000 1.0
C      1  0.4204960000000  0.4645290000000  0.4518620000000 1.0
C      1  0.5594540000000  0.4700320000000  0.4361750000000 1.0
C      1  0.5358340000000  0.5200200000000  0.4568570000000 1.0
C      1  0.4879680000000  0.5457650000000  0.5772910000000 1.0
C      1  0.5560240000000  0.4527590000000  0.5619920000000 1.0
C      1  0.5487550000000  0.5560870000000  0.4276590000000 1.0
C      1  0.5165310000000  0.4749120000000  0.5924650000000 1.0
C      1  0.5547680000000  0.5007400000000  0.5775920000000 1.0
C      1  0.5655430000000  0.4397220000000  0.5155360000000 1.0
C      1  0.4077940000000  0.5021400000000  0.4927130000000 1.0
C      1  0.4796400000000  0.5363600000000  0.4099440000000 1.0
C      1  0.5626070000000  0.5615030000000  0.5059430000000 1.0
C      1  0.6033150000000  0.5164330000000  0.4782500000000 1.0
C      1  0.5781690000000  0.4655150000000  0.5101750000000 1.0
C      1  0.4612840000000  0.5648830000000  0.4717910000000 1.0
C      1  0.5143320000000  0.5419270000000  0.4954950000000 1.0
C      1  0.5697510000000  0.5601940000000  0.4772790000000 1.0
C      1  0.5823630000000  0.4693000000000  0.4810290000000 1.0
C      1  0.4789240000000  0.5628580000000  0.4221300000000 1.0
C      1  0.4547680000000  0.4385530000000  0.5381150000000 1.0
C      1  0.5125790000000  0.4092470000000  0.4711120000000 1.0
C      1  0.5047860000000  0.4608660000000  0.4278510000000 1.0
C      1  0.3986000000000  0.4918780000000  0.5183520000000 1.0
C      1  0.5108660000000  0.5718730000000  0.5388390000000 1.0
C      1  0.5005700000000  0.4443590000000  0.5262050000000 1.0
C      1  0.4689980000000  0.4877490000000  0.4070800000000 1.0
C      1  0.5574300000000  0.4315790000000  0.5421430000000 1.0
C      1  0.4589090000000  0.4983800000000  0.5465010000000 1.0
C      1  0.4887700000000  0.4329810000000  0.4304080000000 1.0
C      1  0.5225880000000  0.5740490000000  0.4550230000000 1.0
C      1  0.5443750000000  0.5286910000000  0.5752900000000 1.0
C      1  0.5067780000000  0.4334870000000  0.5785570000000 1.0
C      1  0.4404560000000  0.4834410000000  0.4631370000000 1.0
C      1  0.4297230000000  0.5413350000000  0.4520640000000 1.0
C      1  0.4350840000000  0.4504520000000  0.4298500000000 1.0
C      1  0.5061320000000  0.5432120000000  0.5231040000000 1.0
C      1  0.5765100000000  0.4936810000000  0.4410040000000 1.0
C      1  0.5593320000000  0.5402100000000  0.5295150000000 1.0
C      1  0.5495690000000  0.4280180000000  0.4937390000000 1.0
C      1  0.5302000000000  0.5297340000000  0.5316970000000 1.0
C      1  0.4720000000000  0.5221350000000  0.5336360000000 1.0
C      1  0.5390270000000  0.4918780000000  0.6019200000000 1.0
C      1  0.4276760000000  0.5449470000000  0.5231470000000 1.0
C      1  0.4682520000000  0.5820560000000  0.4947700000000 1.0
C      1  0.5601430000000  0.5181300000000  0.4395890000000 1.0
C      1  0.5243300000000  0.4892640000000  0.4016120000000 1.0
C      1  0.4090950000000  0.4928700000000  0.5461790000000 1.0
C      1  0.4609180000000  0.4376130000000  0.4226210000000 1.0
C      1  0.4353700000000  0.4814310000000  0.5516050000000 1.0
C      1  0.4729080000000  0.5621890000000  0.5614110000000 1.0
C      1  0.4906280000000  0.4932410000000  0.4987950000000 1.0
C      1  0.4935810000000  0.4749460000000  0.4504870000000 1.0
C      1  0.4322760000000  0.5605580000000  0.4732130000000 1.0
C      1  0.5654730000000  0.4801830000000  0.5582860000000 1.0
C      1  0.4992710000000  0.5766220000000  0.4375700000000 1.0
C      1  0.5209020000000  0.5052420000000  0.5373870000000 1.0
C      1  0.4330780000000  0.5075320000000  0.4782900000000 1.0
C      1  0.5004010000000  0.4688980000000  0.4894810000000 1.0
C      1  0.4824400000000  0.4481390000000  0.5907730000000 1.0
C      1  0.5295570000000  0.4067850000000  0.4938290000000 1.0
C      1  0.5279630000000  0.4691710000000  0.4829350000000 1.0
C      1  0.4526210000000  0.5317460000000  0.5142990000000 1.0
C      1  0.5430160000000  0.5816900000000  0.5026620000000 1.0
C      1  0.4381350000000  0.4521310000000  0.5592140000000 1.0
C      1  0.5306210000000  0.5920330000000  0.5262490000000 1.0
C      1  0.5226040000000  0.4596060000000  0.5373390000000 1.0
C      1  0.5361140000000  0.4101330000000  0.5432950000000 1.0
C      1  0.4146800000000  0.5155730000000  0.5656450000000 1.0
C      1  0.5345840000000  0.4834620000000  0.5255360000000 1.0
C      1  0.4655630000000  0.5263240000000  0.5842520000000 1.0
C      1  0.5256900000000  0.4554930000000  0.5685080000000 1.0
C      1  0.4768710000000  0.4559770000000  0.5340340000000 1.0
C      1  0.4363850000000  0.5241700000000  0.4303400000000 1.0
C      1  0.4936950000000  0.4156790000000  0.5253530000000 1.0
C      1  0.5038460000000  0.5952330000000  0.5236810000000 1.0
C      1  0.4578240000000  0.4478250000000  0.5781130000000 1.0
C      1  0.4930680000000  0.5017650000000  0.5271350000000 1.0
C      1  0.5774390000000  0.4860640000000  0.5320930000000 1.0
C      1  0.5298440000000  0.5660540000000  0.5637130000000 1.0
C      1  0.4731240000000  0.5736270000000  0.4468660000000 1.0
C      1  0.5650490000000  0.4560550000000  0.4613320000000 1.0
C      1  0.5527910000000  0.5316100000000  0.4136720000000 1.0
C      1  0.5505070000000  0.5694910000000  0.4517330000000 1.0
C      1  0.5173250000000  0.5718640000000  0.4855420000000 1.0
C      1  0.4553960000000  0.5263180000000  0.4855650000000 1.0
C      1  0.4109860000000  0.4535510000000  0.4777140000000 1.0
C      1  0.4481440000000  0.5810490000000  0.5157940000000 1.0
C      1  0.4837600000000  0.4589260000000  0.4704780000000 1.0
C      1  0.5925120000000  0.4911210000000  0.4650880000000 1.0
C      1  0.5352260000000  0.4700020000000  0.4202410000000 1.0
C      1  0.5958830000000  0.5131940000000  0.5056420000000 1.0
END
