TITL C-884138-6203-278 -6.92700267064241 125000 -27437.4132182013 0 0 182 (C1) n - 1
REM
REM in /home/nfs/bkarasulu/CARBON/AIRSS/Generating-Clusters/ReaxFF-fromJPCA2015/Units_Real/with-SteepDescent/Only-C1/SD-CG/Try1-3A/FIRE-CG
REM
REM
REM
REM
REM
REM ./C.cell (11c1c37f851c82e70ff6c80c92926a4b)
REM
REM compiler GCC version 9.2.1 20190827 (Red Hat 9.2.1-1)
REM options -cpp -mtune=generic -march=x86-64 -g -O0 -fpre-include=/usr/include/finclude/math-vector-fortran.h
REM seed -1080718520 1990060517 -1169322552 230257840 842347354 1488152830 -1760466124 648772314 1746059312 -893473483 -126200021 -806109945 -539316497 -1172141343 -916599711 1042588986 -1151049144 560116265 1418852684 -1409227317 -1732223503 852269787 -2067115384 -2116880712 2079481395 -1151206603 -420576274 -2041813545 668721273 -1704084142 -1974221795 -1526276550 -1218665939
REM
CELL 1.54180   50.00000   50.00000   50.00000   90.00000   90.00000   90.00000
LATT -1
SFAC C  
C      1  0.5606620000000  0.5212060000000  0.5919920000000 1.0
C      1  0.4566910000000  0.5782300000000  0.4371600000000 1.0
C      1  0.5736400000000  0.4666130000000  0.4881340000000 1.0
C      1  0.5279180000000  0.5369600000000  0.3912330000000 1.0
C      1  0.4337340000000  0.4782350000000  0.5887720000000 1.0
C      1  0.5010860000000  0.5960010000000  0.5675550000000 1.0
C      1  0.4663550000000  0.4443040000000  0.4793670000000 1.0
C      1  0.5772000000000  0.5169420000000  0.4578950000000 1.0
C      1  0.5648610000000  0.5706620000000  0.5407360000000 1.0
C      1  0.5034580000000  0.3919290000000  0.5398290000000 1.0
C      1  0.5329750000000  0.3911910000000  0.5392060000000 1.0
C      1  0.5439310000000  0.4055380000000  0.5618970000000 1.0
C      1  0.5783000000000  0.5289460000000  0.5697500000000 1.0
C      1  0.5764540000000  0.5465910000000  0.4542910000000 1.0
C      1  0.4544900000000  0.4014240000000  0.4520270000000 1.0
C      1  0.4371300000000  0.4732150000000  0.4505180000000 1.0
C      1  0.5043340000000  0.4623330000000  0.5051420000000 1.0
C      1  0.4594240000000  0.4330100000000  0.3968050000000 1.0
C      1  0.4759850000000  0.4894720000000  0.4772040000000 1.0
C      1  0.4404730000000  0.5058520000000  0.5897340000000 1.0
C      1  0.4352310000000  0.4941310000000  0.4134530000000 1.0
C      1  0.6105520000000  0.5015000000000  0.4879900000000 1.0
C      1  0.5423890000000  0.5467540000000  0.4150630000000 1.0
C      1  0.5953640000000  0.4789480000000  0.4404050000000 1.0
C      1  0.5461340000000  0.5457130000000  0.6032410000000 1.0
C      1  0.5620040000000  0.5836520000000  0.4865870000000 1.0
C      1  0.5694940000000  0.4765160000000  0.5666590000000 1.0
C      1  0.5690650000000  0.5377340000000  0.4226940000000 1.0
C      1  0.5256660000000  0.5260360000000  0.4338660000000 1.0
C      1  0.5719000000000  0.4124450000000  0.5006150000000 1.0
C      1  0.5406690000000  0.5248260000000  0.5263340000000 1.0
C      1  0.4938260000000  0.5602120000000  0.6001960000000 1.0
C      1  0.5498290000000  0.5639830000000  0.4681460000000 1.0
C      1  0.5157310000000  0.5983420000000  0.4782260000000 1.0
C      1  0.4262980000000  0.4560210000000  0.5268580000000 1.0
C      1  0.5189840000000  0.5418750000000  0.5624860000000 1.0
C      1  0.4464540000000  0.5471300000000  0.5193720000000 1.0
C      1  0.5003960000000  0.5764550000000  0.5099300000000 1.0
C      1  0.5988960000000  0.5359810000000  0.5228510000000 1.0
C      1  0.5268170000000  0.5837190000000  0.4569890000000 1.0
C      1  0.5204940000000  0.5131020000000  0.5699170000000 1.0
C      1  0.4790720000000  0.4657810000000  0.6022780000000 1.0
C      1  0.4395240000000  0.4249560000000  0.4428420000000 1.0
C      1  0.3871750000000  0.4909810000000  0.5003770000000 1.0
C      1  0.4315410000000  0.5635580000000  0.5379430000000 1.0
C      1  0.4991540000000  0.5298480000000  0.3895390000000 1.0
C      1  0.5050950000000  0.4571080000000  0.5994660000000 1.0
C      1  0.4739910000000  0.4508930000000  0.5053490000000 1.0
C      1  0.5546840000000  0.5061720000000  0.4720520000000 1.0
C      1  0.5375290000000  0.4122100000000  0.4605410000000 1.0
C      1  0.4847800000000  0.3996150000000  0.4454420000000 1.0
C      1  0.4870110000000  0.4292830000000  0.3876310000000 1.0
C      1  0.5405930000000  0.4232020000000  0.4370080000000 1.0
C      1  0.4756700000000  0.5131510000000  0.5564660000000 1.0
C      1  0.5202840000000  0.5522410000000  0.5904080000000 1.0
C      1  0.4608750000000  0.5216140000000  0.4495600000000 1.0
C      1  0.4865580000000  0.4874250000000  0.5583940000000 1.0
C      1  0.5523190000000  0.4711590000000  0.5903580000000 1.0
C      1  0.5278780000000  0.5082810000000  0.4594670000000 1.0
C      1  0.5447000000000  0.4443310000000  0.5539770000000 1.0
C      1  0.5897700000000  0.4313700000000  0.5154530000000 1.0
C      1  0.4210520000000  0.5154430000000  0.4274740000000 1.0
C      1  0.4491930000000  0.5442230000000  0.4036540000000 1.0
C      1  0.5127270000000  0.5180900000000  0.5273620000000 1.0
C      1  0.5871910000000  0.5715200000000  0.4942680000000 1.0
C      1  0.5146670000000  0.4708390000000  0.5326620000000 1.0
C      1  0.5251620000000  0.4317400000000  0.5688390000000 1.0
C      1  0.4106820000000  0.4408100000000  0.4830910000000 1.0
C      1  0.5307580000000  0.4479910000000  0.5038530000000 1.0
C      1  0.4787540000000  0.5361390000000  0.4342310000000 1.0
C      1  0.4653980000000  0.4918690000000  0.4074290000000 1.0
C      1  0.5782490000000  0.5577970000000  0.5675380000000 1.0
C      1  0.5119880000000  0.4220520000000  0.4048740000000 1.0
C      1  0.4759120000000  0.5041650000000  0.5014720000000 1.0
C      1  0.4884880000000  0.5984780000000  0.4704030000000 1.0
C      1  0.5615620000000  0.4916210000000  0.4956660000000 1.0
C      1  0.5620230000000  0.4218290000000  0.4738250000000 1.0
C      1  0.4394100000000  0.4391650000000  0.4175010000000 1.0
C      1  0.4576830000000  0.5589830000000  0.5781090000000 1.0
C      1  0.5268040000000  0.6015410000000  0.5525280000000 1.0
C      1  0.5666120000000  0.5617010000000  0.5923670000000 1.0
C      1  0.4458450000000  0.4024360000000  0.4786880000000 1.0
C      1  0.5976990000000  0.4563080000000  0.5020810000000 1.0
C      1  0.4196090000000  0.4324070000000  0.5085550000000 1.0
C      1  0.4821090000000  0.5891350000000  0.4428540000000 1.0
C      1  0.5260880000000  0.5650900000000  0.5100110000000 1.0
C      1  0.5654590000000  0.4249290000000  0.5580950000000 1.0
C      1  0.4946090000000  0.4001930000000  0.4929120000000 1.0
C      1  0.5045350000000  0.4102890000000  0.4680700000000 1.0
C      1  0.4372430000000  0.4460020000000  0.4651620000000 1.0
C      1  0.4309950000000  0.5148740000000  0.4818670000000 1.0
C      1  0.4218370000000  0.4497420000000  0.5551740000000 1.0
C      1  0.3811160000000  0.5412140000000  0.4862920000000 1.0
C      1  0.5683280000000  0.4491450000000  0.4652440000000 1.0
C      1  0.4107960000000  0.4978680000000  0.5490120000000 1.0
C      1  0.3893870000000  0.4983140000000  0.4726240000000 1.0
C      1  0.4531020000000  0.4562760000000  0.5888710000000 1.0
C      1  0.5325920000000  0.4211550000000  0.5099140000000 1.0
C      1  0.5563970000000  0.4837350000000  0.5418710000000 1.0
C      1  0.5038190000000  0.5439840000000  0.4397790000000 1.0
C      1  0.5412660000000  0.4618130000000  0.5329020000000 1.0
C      1  0.4293680000000  0.5194060000000  0.5625020000000 1.0
C      1  0.4136350000000  0.4756960000000  0.5662980000000 1.0
C      1  0.4320710000000  0.5676240000000  0.4332130000000 1.0
C      1  0.4381300000000  0.4070570000000  0.5054740000000 1.0
C      1  0.5693930000000  0.5121010000000  0.4095840000000 1.0
C      1  0.5398230000000  0.5930280000000  0.5038380000000 1.0
C      1  0.5871580000000  0.5620240000000  0.5218200000000 1.0
C      1  0.4865750000000  0.4099330000000  0.5570140000000 1.0
C      1  0.5961570000000  0.5501120000000  0.4763610000000 1.0
C      1  0.4847060000000  0.3913040000000  0.5170300000000 1.0
C      1  0.4691940000000  0.5432080000000  0.5998660000000 1.0
C      1  0.4574530000000  0.4140910000000  0.5537350000000 1.0
C      1  0.4246030000000  0.5414650000000  0.4155940000000 1.0
C      1  0.5024690000000  0.4791260000000  0.4789250000000 1.0
C      1  0.5032630000000  0.4783580000000  0.3984330000000 1.0
C      1  0.5014740000000  0.5141830000000  0.5024580000000 1.0
C      1  0.5463140000000  0.5131940000000  0.3911460000000 1.0
C      1  0.5614420000000  0.5049550000000  0.5242860000000 1.0
C      1  0.4306120000000  0.4981910000000  0.5045580000000 1.0
C      1  0.4011110000000  0.5452760000000  0.4648040000000 1.0
C      1  0.4543370000000  0.4959710000000  0.5198580000000 1.0
C      1  0.4740260000000  0.5491740000000  0.5239190000000 1.0
C      1  0.4567760000000  0.4933190000000  0.4560730000000 1.0
C      1  0.4383800000000  0.5935600000000  0.5282030000000 1.0
C      1  0.4096180000000  0.4872000000000  0.5207580000000 1.0
C      1  0.4791330000000  0.5619210000000  0.4981590000000 1.0
C      1  0.5932440000000  0.4647700000000  0.5534070000000 1.0
C      1  0.4874720000000  0.4945260000000  0.6052090000000 1.0
C      1  0.4097420000000  0.5167010000000  0.4585140000000 1.0
C      1  0.4431820000000  0.5396270000000  0.4911990000000 1.0
C      1  0.6099600000000  0.4815550000000  0.5102520000000 1.0
C      1  0.4193800000000  0.5911190000000  0.5066920000000 1.0
C      1  0.5311010000000  0.4505450000000  0.5933800000000 1.0
C      1  0.4884000000000  0.4388830000000  0.4612160000000 1.0
C      1  0.5186040000000  0.5247460000000  0.4821120000000 1.0
C      1  0.5065720000000  0.5722400000000  0.4396950000000 1.0
C      1  0.4619460000000  0.6021430000000  0.5142610000000 1.0
C      1  0.5482410000000  0.3991070000000  0.5131180000000 1.0
C      1  0.5319740000000  0.5482960000000  0.4867710000000 1.0
C      1  0.4910830000000  0.5355310000000  0.5444350000000 1.0
C      1  0.5262190000000  0.4791880000000  0.4157020000000 1.0
C      1  0.5438480000000  0.4973170000000  0.6001860000000 1.0
C      1  0.4621980000000  0.5399590000000  0.4707800000000 1.0
C      1  0.4190610000000  0.5679420000000  0.4611350000000 1.0
C      1  0.5460210000000  0.5936270000000  0.5332520000000 1.0
C      1  0.5895620000000  0.5149080000000  0.5419870000000 1.0
C      1  0.4824750000000  0.5776070000000  0.5796600000000 1.0
C      1  0.5146190000000  0.5035670000000  0.5964940000000 1.0
C      1  0.4321570000000  0.5844160000000  0.4815530000000 1.0
C      1  0.4628030000000  0.5882160000000  0.4877150000000 1.0
C      1  0.4821260000000  0.4694390000000  0.4160970000000 1.0
C      1  0.4766670000000  0.5429480000000  0.4048530000000 1.0
C      1  0.5490560000000  0.4626590000000  0.4120310000000 1.0
C      1  0.4362200000000  0.5499670000000  0.5625200000000 1.0
C      1  0.3740390000000  0.5122590000000  0.4895910000000 1.0
C      1  0.5393200000000  0.4347070000000  0.4123930000000 1.0
C      1  0.3901480000000  0.5563780000000  0.5073620000000 1.0
C      1  0.5014650000000  0.6114380000000  0.5449380000000 1.0
C      1  0.5309020000000  0.5051110000000  0.4148680000000 1.0
C      1  0.6026540000000  0.4877700000000  0.5379010000000 1.0
C      1  0.6007650000000  0.4991750000000  0.4603280000000 1.0
C      1  0.5783750000000  0.4577500000000  0.4398600000000 1.0
C      1  0.5886120000000  0.4368950000000  0.5439050000000 1.0
C      1  0.4649430000000  0.5139220000000  0.6021960000000 1.0
C      1  0.4899940000000  0.5998070000000  0.5220100000000 1.0
C      1  0.5115340000000  0.4949080000000  0.5475780000000 1.0
C      1  0.4509180000000  0.5105790000000  0.5445080000000 1.0
C      1  0.4585150000000  0.4620370000000  0.5268940000000 1.0
C      1  0.5733010000000  0.4788480000000  0.4196490000000 1.0
C      1  0.4952970000000  0.4608550000000  0.4427700000000 1.0
C      1  0.6060700000000  0.5294460000000  0.4948320000000 1.0
C      1  0.5169300000000  0.4772030000000  0.4544010000000 1.0
C      1  0.4801810000000  0.4602850000000  0.5503510000000 1.0
C      1  0.4443590000000  0.4368370000000  0.5688380000000 1.0
C      1  0.4570370000000  0.4027070000000  0.5272390000000 1.0
C      1  0.5392980000000  0.5511650000000  0.5373230000000 1.0
C      1  0.4879470000000  0.5025630000000  0.3906860000000 1.0
C      1  0.4964490000000  0.4371330000000  0.5576920000000 1.0
C      1  0.4026860000000  0.5723440000000  0.5241450000000 1.0
C      1  0.4966580000000  0.4101410000000  0.4234280000000 1.0
C      1  0.4297980000000  0.4669030000000  0.4233780000000 1.0
END
