TITL C-884136-4169-45 9780455.43318384 125000 -29904.4431798852 0 0 200 (C1) n - 1
REM
REM in /home/nfs/bkarasulu/CARBON/AIRSS/Generating-Clusters/ReaxFF-fromJPCA2015/Units_Real/with-SteepDescent/Only-C1/SD-CG/Try1-3A/FIRE-CG
REM
REM
REM
REM
REM
REM ./C.cell (11c1c37f851c82e70ff6c80c92926a4b)
REM
REM compiler GCC version 9.2.1 20190827 (Red Hat 9.2.1-1)
REM options -cpp -mtune=generic -march=x86-64 -g -O0 -fpre-include=/usr/include/finclude/math-vector-fortran.h
REM seed 2113791931 -1095348520 1603968793 448894091 -2090924294 928345864 1127114655 -524259715 -1565881356 1923662437 805776963 -1584688915 -1154869142 1097220277 2051445914 -1219454733 961037806 2039100788 -1536807453 1749008340 1631631350 -2089565156 1281942913 -2047613315 -353457253 1646916179 628396678 -402722954 1829515013 -1183410880 1204766136 -100021928 1891333384
REM
CELL 1.54180   50.00000   50.00000   50.00000   90.00000   90.00000   90.00000
LATT -1
SFAC C  
C      1  0.4285650000000  0.4309990000000  0.4536730000000 1.0
C      1  0.4649000000000  0.4211510000000  0.4184260000000 1.0
C      1  0.4569290000000  0.4229150000000  0.4465510000000 1.0
C      1  0.5039190000000  0.5112740000000  0.6140410000000 1.0
C      1  0.3832540000000  0.5163500000000  0.5198630000000 1.0
C      1  0.4982660000000  0.4080020000000  0.5573670000000 1.0
C      1  0.5380550000000  0.5139900000000  0.4695520000000 1.0
C      1  0.4319430000000  0.4626520000000  0.4093760000000 1.0
C      1  0.5951840000000  0.4895350000000  0.4411960000000 1.0
C      1  0.5134540000000  0.3945860000000  0.4669820000000 1.0
C      1  0.5796890000000  0.5843050000000  0.4912410000000 1.0
C      1  0.4257050000000  0.4485530000000  0.4803880000000 1.0
C      1  0.4717340000000  0.4881020000000  0.4640330000000 1.0
C      1  0.4537550000000  0.4856340000000  0.4396980000000 1.0
C      1  0.6030750000000  0.5567580000000  0.5111920000000 1.0
C      1  0.5532170000000  0.4258350000000  0.4189070000000 1.0
C      1  0.4268810000000  0.5059280000000  0.4284130000000 1.0
C      1  0.5061500000000  0.5343740000000  0.5556310000000 1.0
C      1  0.4390160000000  0.5476190000000  0.4631810000000 1.0
C      1  0.5082250000000  0.4892800000000  0.4519540000000 1.0
C      1  0.4864100000000  0.3957110000000  0.5145680000000 1.0
C      1  0.5073030000000  0.5643110000000  0.5253270000000 1.0
C      1  0.5289430000000  0.4708690000000  0.5980540000000 1.0
C      1  0.4754430000000  0.6012520000000  0.5244040000000 1.0
C      1  0.4855050000000  0.4890200000000  0.6130170000000 1.0
C      1  0.5901830000000  0.4690980000000  0.5364400000000 1.0
C      1  0.5316370000000  0.5224760000000  0.3935980000000 1.0
C      1  0.4029580000000  0.4416260000000  0.5287120000000 1.0
C      1  0.5254370000000  0.5112850000000  0.4421040000000 1.0
C      1  0.5708710000000  0.5931330000000  0.5213870000000 1.0
C      1  0.4807450000000  0.4626450000000  0.5205780000000 1.0
C      1  0.5378260000000  0.4346940000000  0.3951920000000 1.0
C      1  0.5702090000000  0.5801520000000  0.5473400000000 1.0
C      1  0.4992950000000  0.6112010000000  0.5370270000000 1.0
C      1  0.5812240000000  0.4723240000000  0.4209420000000 1.0
C      1  0.5942200000000  0.5598340000000  0.4859100000000 1.0
C      1  0.5447470000000  0.5486260000000  0.5211430000000 1.0
C      1  0.5193390000000  0.4397720000000  0.4506610000000 1.0
C      1  0.6106670000000  0.5167130000000  0.5243700000000 1.0
C      1  0.5088740000000  0.5749270000000  0.4180680000000 1.0
C      1  0.5790830000000  0.5456560000000  0.5792590000000 1.0
C      1  0.4388150000000  0.3880070000000  0.4839180000000 1.0
C      1  0.6101580000000  0.4731380000000  0.4911250000000 1.0
C      1  0.4508180000000  0.5770200000000  0.4225260000000 1.0
C      1  0.5745010000000  0.4238290000000  0.5279160000000 1.0
C      1  0.5767660000000  0.5353100000000  0.4231020000000 1.0
C      1  0.5861520000000  0.4358260000000  0.4498600000000 1.0
C      1  0.5338530000000  0.5465370000000  0.6029990000000 1.0
C      1  0.5132980000000  0.4770770000000  0.4081670000000 1.0
C      1  0.4591210000000  0.4946320000000  0.4887790000000 1.0
C      1  0.3954250000000  0.5165430000000  0.4675900000000 1.0
C      1  0.5550750000000  0.5585260000000  0.5873510000000 1.0
C      1  0.5628910000000  0.4495670000000  0.5744820000000 1.0
C      1  0.4838790000000  0.5085870000000  0.3863830000000 1.0
C      1  0.4782540000000  0.5942830000000  0.4970470000000 1.0
C      1  0.4769100000000  0.5147250000000  0.4589650000000 1.0
C      1  0.4527410000000  0.5603650000000  0.4868730000000 1.0
C      1  0.5534740000000  0.4575720000000  0.3918610000000 1.0
C      1  0.4640960000000  0.5724900000000  0.5882940000000 1.0
C      1  0.5658110000000  0.4492430000000  0.4654560000000 1.0
C      1  0.4799800000000  0.5690590000000  0.4808860000000 1.0
C      1  0.5052650000000  0.5119130000000  0.5370590000000 1.0
C      1  0.5010640000000  0.4939760000000  0.5581880000000 1.0
C      1  0.5292380000000  0.4644390000000  0.5383550000000 1.0
C      1  0.4351790000000  0.5721110000000  0.5317920000000 1.0
C      1  0.5227760000000  0.4147610000000  0.5682010000000 1.0
C      1  0.4877710000000  0.5443130000000  0.5182250000000 1.0
C      1  0.5322670000000  0.5610930000000  0.4286890000000 1.0
C      1  0.4606230000000  0.4488620000000  0.4042520000000 1.0
C      1  0.5094610000000  0.4795030000000  0.4979860000000 1.0
C      1  0.5678910000000  0.4502670000000  0.4938790000000 1.0
C      1  0.4725140000000  0.4205600000000  0.4701260000000 1.0
C      1  0.4098390000000  0.5697130000000  0.5173380000000 1.0
C      1  0.5291140000000  0.5892060000000  0.4854400000000 1.0
C      1  0.5633700000000  0.5630370000000  0.4291260000000 1.0
C      1  0.4890140000000  0.3825090000000  0.4707710000000 1.0
C      1  0.5417810000000  0.4297520000000  0.5827090000000 1.0
C      1  0.5779310000000  0.4425130000000  0.4229580000000 1.0
C      1  0.4285620000000  0.5356800000000  0.4191080000000 1.0
C      1  0.6045700000000  0.4929300000000  0.5457750000000 1.0
C      1  0.5030310000000  0.5307390000000  0.3909690000000 1.0
C      1  0.5569020000000  0.5317780000000  0.4029480000000 1.0
C      1  0.4978930000000  0.6008120000000  0.5641480000000 1.0
C      1  0.4997020000000  0.4653090000000  0.5451160000000 1.0
C      1  0.6108340000000  0.4433630000000  0.4908260000000 1.0
C      1  0.6121090000000  0.4440990000000  0.4613260000000 1.0
C      1  0.4370660000000  0.4412920000000  0.5059890000000 1.0
C      1  0.5165520000000  0.5256870000000  0.4884840000000 1.0
C      1  0.4919930000000  0.5794000000000  0.4425070000000 1.0
C      1  0.5439410000000  0.5761850000000  0.5654540000000 1.0
C      1  0.4957010000000  0.5454520000000  0.4903960000000 1.0
C      1  0.4204300000000  0.4261190000000  0.5456000000000 1.0
C      1  0.4668150000000  0.4288260000000  0.5900520000000 1.0
C      1  0.4601570000000  0.4762610000000  0.6008800000000 1.0
C      1  0.5571540000000  0.5021360000000  0.5993900000000 1.0
C      1  0.5905830000000  0.5184130000000  0.4433780000000 1.0
C      1  0.4924110000000  0.4432310000000  0.5903710000000 1.0
C      1  0.4147500000000  0.4869860000000  0.5834850000000 1.0
C      1  0.5468150000000  0.4175040000000  0.5182690000000 1.0
C      1  0.4932380000000  0.5570420000000  0.3997100000000 1.0
C      1  0.5930540000000  0.5037320000000  0.5669380000000 1.0
C      1  0.5065320000000  0.4335590000000  0.3906810000000 1.0
C      1  0.4557350000000  0.5489220000000  0.5718310000000 1.0
C      1  0.5420320000000  0.4451170000000  0.5053880000000 1.0
C      1  0.3880060000000  0.5045560000000  0.4938500000000 1.0
C      1  0.5484390000000  0.5105740000000  0.5374390000000 1.0
C      1  0.4212610000000  0.4581500000000  0.5891010000000 1.0
C      1  0.5262050000000  0.4814520000000  0.4730450000000 1.0
C      1  0.5290000000000  0.4660000000000  0.5124320000000 1.0
C      1  0.4339380000000  0.5066410000000  0.4907280000000 1.0
C      1  0.4841740000000  0.6151310000000  0.4816150000000 1.0
C      1  0.5810400000000  0.5165210000000  0.5876880000000 1.0
C      1  0.3884650000000  0.4645060000000  0.5298560000000 1.0
C      1  0.5695340000000  0.5027520000000  0.5031260000000 1.0
C      1  0.4574250000000  0.4224280000000  0.4956490000000 1.0
C      1  0.4318310000000  0.5588610000000  0.4350270000000 1.0
C      1  0.4044110000000  0.4934660000000  0.5568310000000 1.0
C      1  0.5118820000000  0.5663940000000  0.5984950000000 1.0
C      1  0.5644180000000  0.5773110000000  0.4521290000000 1.0
C      1  0.5836880000000  0.4764320000000  0.5077860000000 1.0
C      1  0.5425620000000  0.4875380000000  0.5518360000000 1.0
C      1  0.5388390000000  0.4186420000000  0.4438880000000 1.0
C      1  0.5020350000000  0.4221580000000  0.4747490000000 1.0
C      1  0.5576970000000  0.5925470000000  0.4736730000000 1.0
C      1  0.4700140000000  0.4160770000000  0.5640080000000 1.0
C      1  0.6095350000000  0.5131420000000  0.4961670000000 1.0
C      1  0.5281060000000  0.5674230000000  0.5052630000000 1.0
C      1  0.4854750000000  0.4588090000000  0.5685670000000 1.0
C      1  0.4955510000000  0.4810930000000  0.3855150000000 1.0
C      1  0.4212410000000  0.4033930000000  0.4690050000000 1.0
C      1  0.4164540000000  0.4421370000000  0.5670400000000 1.0
C      1  0.5349670000000  0.4973520000000  0.4112790000000 1.0
C      1  0.5270680000000  0.5545240000000  0.5449020000000 1.0
C      1  0.4577050000000  0.4017020000000  0.5165370000000 1.0
C      1  0.4371480000000  0.5981290000000  0.4787720000000 1.0
C      1  0.4182000000000  0.4535230000000  0.4334060000000 1.0
C      1  0.4634680000000  0.5315890000000  0.5270020000000 1.0
C      1  0.4480020000000  0.4492930000000  0.6009360000000 1.0
C      1  0.4549700000000  0.5919320000000  0.5422820000000 1.0
C      1  0.5395330000000  0.4584460000000  0.4597240000000 1.0
C      1  0.4518170000000  0.4204610000000  0.5407480000000 1.0
C      1  0.5878570000000  0.5581730000000  0.5544730000000 1.0
C      1  0.4626380000000  0.4744720000000  0.5714450000000 1.0
C      1  0.4845960000000  0.5594360000000  0.6047100000000 1.0
C      1  0.5614760000000  0.4824000000000  0.4024790000000 1.0
C      1  0.4345400000000  0.4914140000000  0.4030390000000 1.0
C      1  0.4121560000000  0.5371040000000  0.5498080000000 1.0
C      1  0.4031670000000  0.4718600000000  0.4504730000000 1.0
C      1  0.5436870000000  0.4001480000000  0.4684840000000 1.0
C      1  0.5124990000000  0.6131140000000  0.4884830000000 1.0
C      1  0.4855890000000  0.4537590000000  0.3848820000000 1.0
C      1  0.5880560000000  0.4275060000000  0.5024310000000 1.0
C      1  0.6105180000000  0.4738540000000  0.4613420000000 1.0
C      1  0.4732410000000  0.4882020000000  0.5112020000000 1.0
C      1  0.4791300000000  0.5307720000000  0.6110750000000 1.0
C      1  0.5469140000000  0.6054780000000  0.5238620000000 1.0
C      1  0.4697660000000  0.5923290000000  0.5673500000000 1.0
C      1  0.5772740000000  0.4461720000000  0.5491000000000 1.0
C      1  0.5581100000000  0.5231260000000  0.5191440000000 1.0
C      1  0.4472240000000  0.5373660000000  0.3970000000000 1.0
C      1  0.4678350000000  0.5362120000000  0.4547070000000 1.0
C      1  0.5187860000000  0.5864220000000  0.5784800000000 1.0
C      1  0.4467710000000  0.5511080000000  0.5139450000000 1.0
C      1  0.4016830000000  0.5000630000000  0.4444150000000 1.0
C      1  0.4644640000000  0.5608450000000  0.4016130000000 1.0
C      1  0.4899760000000  0.4191660000000  0.4068250000000 1.0
C      1  0.5577220000000  0.4727570000000  0.5936020000000 1.0
C      1  0.3812510000000  0.4914830000000  0.5376890000000 1.0
C      1  0.4198670000000  0.5837660000000  0.4941830000000 1.0
C      1  0.4476930000000  0.4809800000000  0.5458280000000 1.0
C      1  0.4670140000000  0.5944340000000  0.4398800000000 1.0
C      1  0.5243910000000  0.4899850000000  0.5752820000000 1.0
C      1  0.5563970000000  0.4062710000000  0.4933380000000 1.0
C      1  0.6073150000000  0.5451980000000  0.5355200000000 1.0
C      1  0.4807220000000  0.5420050000000  0.5641170000000 1.0
C      1  0.4902460000000  0.5496300000000  0.4439280000000 1.0
C      1  0.4227290000000  0.4903510000000  0.5359130000000 1.0
C      1  0.4545600000000  0.4519930000000  0.5281450000000 1.0
C      1  0.5920180000000  0.5288400000000  0.4726020000000 1.0
C      1  0.4078310000000  0.4692420000000  0.4801340000000 1.0
C      1  0.4219660000000  0.5261540000000  0.4746310000000 1.0
C      1  0.4280410000000  0.5340420000000  0.5717420000000 1.0
C      1  0.4603640000000  0.6093230000000  0.4645540000000 1.0
C      1  0.5009550000000  0.4187110000000  0.5053600000000 1.0
C      1  0.4709290000000  0.4673590000000  0.4276090000000 1.0
C      1  0.5113810000000  0.4047620000000  0.5291940000000 1.0
C      1  0.4643380000000  0.3795370000000  0.4767010000000 1.0
C      1  0.5018490000000  0.4662870000000  0.4339020000000 1.0
C      1  0.5161350000000  0.5393050000000  0.4382920000000 1.0
C      1  0.4550180000000  0.5169700000000  0.6045450000000 1.0
C      1  0.5666000000000  0.5148270000000  0.4773990000000 1.0
C      1  0.4551730000000  0.5098170000000  0.3907860000000 1.0
C      1  0.4135240000000  0.4905420000000  0.5027850000000 1.0
C      1  0.4612120000000  0.5031830000000  0.5317300000000 1.0
C      1  0.5215340000000  0.6164810000000  0.5179290000000 1.0
C      1  0.4301480000000  0.5111110000000  0.5911300000000 1.0
C      1  0.5097390000000  0.5067700000000  0.5091090000000 1.0
C      1  0.5203370000000  0.4425980000000  0.5991030000000 1.0
C      1  0.5327990000000  0.5178020000000  0.6071110000000 1.0
C      1  0.3976260000000  0.5412930000000  0.5279050000000 1.0
END
