TITL C-884140-4336-320 11.591010109764 125000 -25959.9551212557 0 0 172 (C1) n - 1
REM
REM in /home/nfs/bkarasulu/CARBON/AIRSS/Generating-Clusters/ReaxFF-fromJPCA2015/Units_Real/with-SteepDescent/Only-C1/SD-CG/Try1-3A/FIRE-CG
REM
REM
REM
REM
REM
REM ./C.cell (11c1c37f851c82e70ff6c80c92926a4b)
REM
REM compiler GCC version 9.2.1 20190827 (Red Hat 9.2.1-1)
REM options -cpp -mtune=generic -march=x86-64 -g -O0 -fpre-include=/usr/include/finclude/math-vector-fortran.h
REM seed 588315819 -1451989984 868112053 -176056282 298338566 -470881818 572566440 1174283683 -1305102629 -1918480791 449753381 -774157125 112259670 -62790542 -289389611 -829471213 -1355906540 -783299352 -578115089 1973116093 681764625 154378679 -327966034 65616288 1204949831 -1709688421 488806792 1378859768 1636198649 -724567343 383446912 -476795872 -1904113988
REM
CELL 1.54180   50.00000   50.00000   50.00000   90.00000   90.00000   90.00000
LATT -1
SFAC C  
C      1  0.4719280000000  0.5715190000000  0.5761740000000 1.0
C      1  0.5146240000000  0.5708200000000  0.4780770000000 1.0
C      1  0.4840820000000  0.5563320000000  0.5199860000000 1.0
C      1  0.5915150000000  0.4959290000000  0.4561630000000 1.0
C      1  0.5526450000000  0.6080440000000  0.5224610000000 1.0
C      1  0.4871460000000  0.5344410000000  0.4367250000000 1.0
C      1  0.4144680000000  0.5482020000000  0.5329770000000 1.0
C      1  0.5649040000000  0.5716960000000  0.4564200000000 1.0
C      1  0.5465170000000  0.4954750000000  0.5911650000000 1.0
C      1  0.5198890000000  0.4631650000000  0.4062600000000 1.0
C      1  0.4722800000000  0.4947880000000  0.4820490000000 1.0
C      1  0.4166250000000  0.4318130000000  0.4693390000000 1.0
C      1  0.5303510000000  0.5735240000000  0.5265650000000 1.0
C      1  0.5455950000000  0.4075850000000  0.5573780000000 1.0
C      1  0.4795810000000  0.5101210000000  0.5342730000000 1.0
C      1  0.4657310000000  0.4562560000000  0.5063010000000 1.0
C      1  0.5794090000000  0.5292330000000  0.5712530000000 1.0
C      1  0.5305350000000  0.4983810000000  0.5613670000000 1.0
C      1  0.5370640000000  0.5346060000000  0.5072720000000 1.0
C      1  0.4891380000000  0.5103810000000  0.5015420000000 1.0
C      1  0.4400020000000  0.5843910000000  0.4759970000000 1.0
C      1  0.5813910000000  0.4734650000000  0.4390980000000 1.0
C      1  0.4866190000000  0.5213470000000  0.6090640000000 1.0
C      1  0.4850710000000  0.4624260000000  0.5282650000000 1.0
C      1  0.5391890000000  0.4101110000000  0.4577190000000 1.0
C      1  0.5886040000000  0.4614830000000  0.4920580000000 1.0
C      1  0.4223800000000  0.4646660000000  0.5207820000000 1.0
C      1  0.4994330000000  0.5800180000000  0.5716760000000 1.0
C      1  0.4710540000000  0.5870760000000  0.4388980000000 1.0
C      1  0.4929500000000  0.3974790000000  0.4847580000000 1.0
C      1  0.4428940000000  0.4380240000000  0.4206430000000 1.0
C      1  0.5123920000000  0.4954750000000  0.5015190000000 1.0
C      1  0.5709730000000  0.4552500000000  0.5786000000000 1.0
C      1  0.5280790000000  0.5535130000000  0.4601490000000 1.0
C      1  0.5981530000000  0.5132340000000  0.5012130000000 1.0
C      1  0.5090460000000  0.5620020000000  0.5059430000000 1.0
C      1  0.4802930000000  0.4433890000000  0.4823110000000 1.0
C      1  0.5453560000000  0.5600050000000  0.5927060000000 1.0
C      1  0.5877350000000  0.5653300000000  0.5409100000000 1.0
C      1  0.5269320000000  0.5972000000000  0.4765700000000 1.0
C      1  0.5106430000000  0.4282640000000  0.5919230000000 1.0
C      1  0.5935700000000  0.5052930000000  0.5287210000000 1.0
C      1  0.4110750000000  0.5063770000000  0.4416270000000 1.0
C      1  0.4326990000000  0.5586430000000  0.5534800000000 1.0
C      1  0.4401490000000  0.4440200000000  0.5173420000000 1.0
C      1  0.5577070000000  0.4706930000000  0.4925370000000 1.0
C      1  0.4490040000000  0.4052950000000  0.4608150000000 1.0
C      1  0.4884230000000  0.3934090000000  0.5141490000000 1.0
C      1  0.5007730000000  0.4253930000000  0.4880560000000 1.0
C      1  0.5863610000000  0.5413320000000  0.4944660000000 1.0
C      1  0.4968960000000  0.5034120000000  0.5623110000000 1.0
C      1  0.5065480000000  0.5213880000000  0.3958870000000 1.0
C      1  0.5258580000000  0.4487500000000  0.5205800000000 1.0
C      1  0.4469420000000  0.4846750000000  0.4487040000000 1.0
C      1  0.5738710000000  0.5221890000000  0.5439160000000 1.0
C      1  0.4807100000000  0.6053960000000  0.4911290000000 1.0
C      1  0.4647150000000  0.5449210000000  0.5850080000000 1.0
C      1  0.5493740000000  0.4372610000000  0.4290550000000 1.0
C      1  0.5811310000000  0.5483670000000  0.4664460000000 1.0
C      1  0.5305350000000  0.5243740000000  0.4596380000000 1.0
C      1  0.4337200000000  0.5126440000000  0.3982060000000 1.0
C      1  0.4241680000000  0.5258980000000  0.4229600000000 1.0
C      1  0.5420130000000  0.3994070000000  0.5297630000000 1.0
C      1  0.5338250000000  0.5110500000000  0.4881800000000 1.0
C      1  0.4539070000000  0.4698160000000  0.6001020000000 1.0
C      1  0.5270770000000  0.5423180000000  0.6039950000000 1.0
C      1  0.5812470000000  0.4311180000000  0.5314540000000 1.0
C      1  0.5194530000000  0.5700120000000  0.4188620000000 1.0
C      1  0.4217040000000  0.5458500000000  0.5050490000000 1.0
C      1  0.4809770000000  0.4511760000000  0.3994750000000 1.0
C      1  0.4792680000000  0.4604410000000  0.5551760000000 1.0
C      1  0.4633950000000  0.5972380000000  0.4681000000000 1.0
C      1  0.4712880000000  0.4314480000000  0.4150850000000 1.0
C      1  0.4313230000000  0.4108930000000  0.4843330000000 1.0
C      1  0.4861280000000  0.5244550000000  0.5823240000000 1.0
C      1  0.5686920000000  0.4143380000000  0.4865420000000 1.0
C      1  0.4771680000000  0.4422240000000  0.4551340000000 1.0
C      1  0.5426770000000  0.5650980000000  0.4379560000000 1.0
C      1  0.4896820000000  0.5333950000000  0.4847150000000 1.0
C      1  0.4362560000000  0.4839200000000  0.3925690000000 1.0
C      1  0.4327330000000  0.4247410000000  0.4447350000000 1.0
C      1  0.5272890000000  0.4349680000000  0.4938270000000 1.0
C      1  0.5416230000000  0.4513820000000  0.5427810000000 1.0
C      1  0.5522440000000  0.4649370000000  0.5979650000000 1.0
C      1  0.3814400000000  0.4832160000000  0.5044380000000 1.0
C      1  0.5541610000000  0.5061590000000  0.4150130000000 1.0
C      1  0.4867490000000  0.4740080000000  0.6016090000000 1.0
C      1  0.4874740000000  0.5000670000000  0.3886780000000 1.0
C      1  0.5575910000000  0.5154380000000  0.5035980000000 1.0
C      1  0.5238870000000  0.5337610000000  0.5325470000000 1.0
C      1  0.6124380000000  0.5668360000000  0.5417710000000 1.0
C      1  0.4963940000000  0.5813940000000  0.4298220000000 1.0
C      1  0.4388910000000  0.4150420000000  0.5126900000000 1.0
C      1  0.5249100000000  0.4058110000000  0.5784350000000 1.0
C      1  0.4992610000000  0.5240490000000  0.4580680000000 1.0
C      1  0.4627120000000  0.5930030000000  0.5106270000000 1.0
C      1  0.5841590000000  0.5659070000000  0.5117980000000 1.0
C      1  0.4214960000000  0.4900420000000  0.5705280000000 1.0
C      1  0.5189230000000  0.5664920000000  0.5898300000000 1.0
C      1  0.5176740000000  0.4816800000000  0.4290260000000 1.0
C      1  0.4447780000000  0.5333760000000  0.4683780000000 1.0
C      1  0.5930640000000  0.4554370000000  0.5221360000000 1.0
C      1  0.5676660000000  0.4110370000000  0.5158420000000 1.0
C      1  0.4142960000000  0.5161180000000  0.4968200000000 1.0
C      1  0.5487900000000  0.4566940000000  0.4075950000000 1.0
C      1  0.5852520000000  0.4787830000000  0.5682230000000 1.0
C      1  0.4415520000000  0.5375760000000  0.5708040000000 1.0
C      1  0.4037080000000  0.5054120000000  0.4698540000000 1.0
C      1  0.4298510000000  0.4636340000000  0.4127380000000 1.0
C      1  0.3960360000000  0.4579540000000  0.5101910000000 1.0
C      1  0.5269700000000  0.5129370000000  0.6078540000000 1.0
C      1  0.5207360000000  0.6037670000000  0.5256860000000 1.0
C      1  0.5950460000000  0.4782810000000  0.5402020000000 1.0
C      1  0.5092810000000  0.6078020000000  0.4969850000000 1.0
C      1  0.4410990000000  0.5108550000000  0.5615900000000 1.0
C      1  0.5548410000000  0.4887260000000  0.5156330000000 1.0
C      1  0.5433200000000  0.4798320000000  0.5407450000000 1.0
C      1  0.4308860000000  0.5537090000000  0.4301720000000 1.0
C      1  0.4896190000000  0.4800410000000  0.4632210000000 1.0
C      1  0.4350230000000  0.4929240000000  0.5148040000000 1.0
C      1  0.5434990000000  0.5206800000000  0.5477870000000 1.0
C      1  0.3907400000000  0.5095570000000  0.5143060000000 1.0
C      1  0.5984370000000  0.4908320000000  0.4830970000000 1.0
C      1  0.4642900000000  0.5468240000000  0.4847490000000 1.0
C      1  0.4779660000000  0.4018350000000  0.4594640000000 1.0
C      1  0.5035660000000  0.5504560000000  0.4015170000000 1.0
C      1  0.4509560000000  0.5059760000000  0.5363040000000 1.0
C      1  0.4565130000000  0.4446240000000  0.5655500000000 1.0
C      1  0.4620080000000  0.4039120000000  0.5279670000000 1.0
C      1  0.5096730000000  0.4726400000000  0.5177930000000 1.0
C      1  0.4708480000000  0.5958880000000  0.5393740000000 1.0
C      1  0.5248510000000  0.4209210000000  0.4371120000000 1.0
C      1  0.4985530000000  0.5967400000000  0.5480810000000 1.0
C      1  0.3992040000000  0.4526160000000  0.4809630000000 1.0
C      1  0.4945340000000  0.5360570000000  0.5369120000000 1.0
C      1  0.4581260000000  0.5628010000000  0.5081280000000 1.0
C      1  0.4564610000000  0.5666910000000  0.4237790000000 1.0
C      1  0.4764180000000  0.5457680000000  0.4137440000000 1.0
C      1  0.4905540000000  0.4204200000000  0.4389070000000 1.0
C      1  0.5360400000000  0.4608490000000  0.4763210000000 1.0
C      1  0.4195190000000  0.5666330000000  0.4828060000000 1.0
C      1  0.5751130000000  0.5027920000000  0.5821660000000 1.0
C      1  0.4021180000000  0.5015450000000  0.5545430000000 1.0
C      1  0.5025270000000  0.4993770000000  0.6157060000000 1.0
C      1  0.5559970000000  0.5910890000000  0.4761620000000 1.0
C      1  0.5147500000000  0.3963040000000  0.5217200000000 1.0
C      1  0.4360090000000  0.4637970000000  0.5802660000000 1.0
C      1  0.5663850000000  0.4792080000000  0.4149760000000 1.0
C      1  0.5672630000000  0.5910270000000  0.5038010000000 1.0
C      1  0.4529330000000  0.5800800000000  0.5567580000000 1.0
C      1  0.4708080000000  0.4687740000000  0.4461460000000 1.0
C      1  0.5722240000000  0.4469580000000  0.4475730000000 1.0
C      1  0.5550660000000  0.5209320000000  0.4396150000000 1.0
C      1  0.4967740000000  0.4714300000000  0.3885630000000 1.0
C      1  0.4220490000000  0.5500600000000  0.4580470000000 1.0
C      1  0.3959710000000  0.5243690000000  0.5391210000000 1.0
C      1  0.5471370000000  0.5640020000000  0.5470850000000 1.0
C      1  0.5619220000000  0.4339960000000  0.5556460000000 1.0
C      1  0.4911140000000  0.4778520000000  0.5732860000000 1.0
C      1  0.4545690000000  0.4803520000000  0.4977510000000 1.0
C      1  0.3888760000000  0.4806490000000  0.4758360000000 1.0
C      1  0.4215590000000  0.4793040000000  0.4360450000000 1.0
C      1  0.5178820000000  0.4755950000000  0.4584490000000 1.0
C      1  0.5804990000000  0.4381770000000  0.4735670000000 1.0
C      1  0.5245640000000  0.5063510000000  0.4141340000000 1.0
C      1  0.4581100000000  0.4218860000000  0.5488140000000 1.0
C      1  0.5633140000000  0.5558720000000  0.5697600000000 1.0
C      1  0.4530440000000  0.5075260000000  0.4637040000000 1.0
C      1  0.5000170000000  0.4474730000000  0.5987610000000 1.0
C      1  0.5815840000000  0.5238220000000  0.4505810000000 1.0
C      1  0.5410260000000  0.4099430000000  0.4852450000000 1.0
C      1  0.4586500000000  0.5025250000000  0.3858610000000 1.0
END
