TITL C-883732-77-250 45.5722263318046 125000 -28856.5761997095 0 0 195 (C1) n - 1
REM
REM in /home/nfs/bkarasulu/CARBON/AIRSS/Generating-Clusters/ReaxFF-fromJPCA2015/Units_Real/with-SteepDescent/Only-C1/SD-CG/Try1-3A/FIRE-CG
REM
REM
REM
REM
REM
REM ./C.cell (11c1c37f851c82e70ff6c80c92926a4b)
REM
REM compiler GCC version 9.2.1 20190827 (Red Hat 9.2.1-1)
REM options -cpp -mtune=generic -march=x86-64 -g -O0 -fpre-include=/usr/include/finclude/math-vector-fortran.h
REM seed -1428449035 -77720242 1091946344 -1715112594 939983514 -1385388189 -1046281897 -1199746432 374511035 845543802 2016231322 1524985372 1777619668 -2143582720 1448312372 -1695834430 -1020067227 990040359 1893678266 1336747972 -1969634891 1621009141 -2034778403 135075849 -948888358 1797979628 1494919819 1383727340 176454582 948288362 -1696909311 -1230419510 -1555538696
REM
CELL 1.54180   50.00000   50.00000   50.00000   90.00000   90.00000   90.00000
LATT -1
SFAC C  
C      1  0.3946230000000  0.4982380000000  0.4396820000000 1.0
C      1  0.4625570000000  0.5404790000000  0.3901490000000 1.0
C      1  0.5218290000000  0.4486000000000  0.5665620000000 1.0
C      1  0.5478900000000  0.4106960000000  0.5141140000000 1.0
C      1  0.5137610000000  0.4216980000000  0.4204160000000 1.0
C      1  0.4615730000000  0.4959440000000  0.6046420000000 1.0
C      1  0.5045130000000  0.4765370000000  0.6131430000000 1.0
C      1  0.4218790000000  0.5009860000000  0.5693730000000 1.0
C      1  0.5771960000000  0.5299100000000  0.5665410000000 1.0
C      1  0.5792490000000  0.5426150000000  0.4385290000000 1.0
C      1  0.4387940000000  0.5767650000000  0.5140580000000 1.0
C      1  0.4374040000000  0.5431180000000  0.5866430000000 1.0
C      1  0.4583780000000  0.5534110000000  0.4670920000000 1.0
C      1  0.4961530000000  0.5007350000000  0.5235190000000 1.0
C      1  0.5032250000000  0.5044940000000  0.5745760000000 1.0
C      1  0.4563700000000  0.4659380000000  0.6067990000000 1.0
C      1  0.5090210000000  0.5643900000000  0.5259440000000 1.0
C      1  0.6148490000000  0.5276250000000  0.4791580000000 1.0
C      1  0.5340100000000  0.4741700000000  0.3996780000000 1.0
C      1  0.4651410000000  0.4516770000000  0.4736800000000 1.0
C      1  0.4437000000000  0.5983630000000  0.4954940000000 1.0
C      1  0.4723310000000  0.5980480000000  0.4995110000000 1.0
C      1  0.5830910000000  0.4307140000000  0.5222060000000 1.0
C      1  0.4307970000000  0.4214170000000  0.4702580000000 1.0
C      1  0.5029120000000  0.4811090000000  0.4886220000000 1.0
C      1  0.5662240000000  0.4466170000000  0.4794230000000 1.0
C      1  0.4273060000000  0.5032840000000  0.4908910000000 1.0
C      1  0.4780600000000  0.4909140000000  0.5782740000000 1.0
C      1  0.4908840000000  0.4036730000000  0.5494900000000 1.0
C      1  0.5407330000000  0.5514700000000  0.5540280000000 1.0
C      1  0.4728270000000  0.5818220000000  0.5480320000000 1.0
C      1  0.4529180000000  0.4556850000000  0.4051090000000 1.0
C      1  0.5144760000000  0.4282760000000  0.5862760000000 1.0
C      1  0.4732480000000  0.4875200000000  0.3870130000000 1.0
C      1  0.5000880000000  0.3948490000000  0.4704190000000 1.0
C      1  0.5815970000000  0.4953380000000  0.4165850000000 1.0
C      1  0.5203950000000  0.5166670000000  0.5253400000000 1.0
C      1  0.4121170000000  0.5402030000000  0.5480290000000 1.0
C      1  0.3618350000000  0.5332270000000  0.4750500000000 1.0
C      1  0.4817300000000  0.5595510000000  0.3891200000000 1.0
C      1  0.5972590000000  0.4503900000000  0.5078430000000 1.0
C      1  0.4021810000000  0.4248680000000  0.4791110000000 1.0
C      1  0.4114350000000  0.5573360000000  0.4715790000000 1.0
C      1  0.4684380000000  0.4671700000000  0.5377560000000 1.0
C      1  0.4191570000000  0.5538200000000  0.4439890000000 1.0
C      1  0.5448210000000  0.4033500000000  0.4737240000000 1.0
C      1  0.5373200000000  0.4116510000000  0.4345650000000 1.0
C      1  0.4851180000000  0.5281080000000  0.4896390000000 1.0
C      1  0.4962990000000  0.5843820000000  0.5710370000000 1.0
C      1  0.4710660000000  0.4162180000000  0.5683160000000 1.0
C      1  0.5118310000000  0.4511430000000  0.5397660000000 1.0
C      1  0.5115610000000  0.5636100000000  0.4730820000000 1.0
C      1  0.3997790000000  0.5148570000000  0.5566200000000 1.0
C      1  0.3824480000000  0.4990730000000  0.5088450000000 1.0
C      1  0.4276140000000  0.4852310000000  0.5449850000000 1.0
C      1  0.5725950000000  0.5929980000000  0.4755500000000 1.0
C      1  0.5870550000000  0.5639420000000  0.5391950000000 1.0
C      1  0.5326960000000  0.4787040000000  0.6061420000000 1.0
C      1  0.5302950000000  0.6039380000000  0.4546030000000 1.0
C      1  0.4389470000000  0.5142090000000  0.5896440000000 1.0
C      1  0.4894980000000  0.5015980000000  0.6166820000000 1.0
C      1  0.4565880000000  0.4001130000000  0.5048220000000 1.0
C      1  0.5280440000000  0.4896250000000  0.4831520000000 1.0
C      1  0.6140980000000  0.5247160000000  0.5335230000000 1.0
C      1  0.4148360000000  0.4570190000000  0.5427480000000 1.0
C      1  0.4968510000000  0.5062580000000  0.3879760000000 1.0
C      1  0.5250360000000  0.4102890000000  0.4599690000000 1.0
C      1  0.5597920000000  0.5246680000000  0.5432620000000 1.0
C      1  0.5674630000000  0.5987790000000  0.5030010000000 1.0
C      1  0.4379360000000  0.4498240000000  0.4764210000000 1.0
C      1  0.5923000000000  0.4791590000000  0.4401080000000 1.0
C      1  0.5668770000000  0.5723230000000  0.4926130000000 1.0
C      1  0.4311630000000  0.4988730000000  0.4630300000000 1.0
C      1  0.4851000000000  0.5437590000000  0.5628810000000 1.0
C      1  0.6128310000000  0.5375830000000  0.5074880000000 1.0
C      1  0.5391430000000  0.5516820000000  0.5836730000000 1.0
C      1  0.4016780000000  0.4494470000000  0.4965410000000 1.0
C      1  0.6114820000000  0.4955010000000  0.5398300000000 1.0
C      1  0.4388080000000  0.5534250000000  0.4903340000000 1.0
C      1  0.4422930000000  0.4598180000000  0.5818740000000 1.0
C      1  0.5821590000000  0.4850140000000  0.5859260000000 1.0
C      1  0.5366110000000  0.5552500000000  0.4893440000000 1.0
C      1  0.5566570000000  0.5930370000000  0.4510930000000 1.0
C      1  0.5019570000000  0.5208390000000  0.5991850000000 1.0
C      1  0.4868310000000  0.5491710000000  0.4697450000000 1.0
C      1  0.3941840000000  0.4802080000000  0.4901960000000 1.0
C      1  0.4819990000000  0.4462820000000  0.4941930000000 1.0
C      1  0.5533470000000  0.4713070000000  0.4919770000000 1.0
C      1  0.6083690000000  0.4755670000000  0.4641470000000 1.0
C      1  0.5207780000000  0.5380670000000  0.4281800000000 1.0
C      1  0.4442000000000  0.4226740000000  0.5226460000000 1.0
C      1  0.4725600000000  0.4379690000000  0.5206650000000 1.0
C      1  0.4868220000000  0.5741720000000  0.4133420000000 1.0
C      1  0.4511210000000  0.4909550000000  0.4984310000000 1.0
C      1  0.4536520000000  0.4035830000000  0.4756860000000 1.0
C      1  0.4240080000000  0.4443540000000  0.5140520000000 1.0
C      1  0.3823420000000  0.5482890000000  0.4835590000000 1.0
C      1  0.5236300000000  0.5012270000000  0.3966800000000 1.0
C      1  0.5234840000000  0.5438520000000  0.5135760000000 1.0
C      1  0.5448210000000  0.4072010000000  0.5544160000000 1.0
C      1  0.4816070000000  0.5739290000000  0.5200870000000 1.0
C      1  0.5471600000000  0.4520290000000  0.5777200000000 1.0
C      1  0.4171860000000  0.5802610000000  0.4557190000000 1.0
C      1  0.5586450000000  0.4812680000000  0.4072020000000 1.0
C      1  0.5692860000000  0.5251220000000  0.5106040000000 1.0
C      1  0.5576580000000  0.5291540000000  0.5890540000000 1.0
C      1  0.4968120000000  0.4468600000000  0.3918110000000 1.0
C      1  0.5631190000000  0.4160330000000  0.4900060000000 1.0
C      1  0.4637730000000  0.4371680000000  0.4255580000000 1.0
C      1  0.5677460000000  0.4902670000000  0.4795890000000 1.0
C      1  0.5018570000000  0.4855110000000  0.4435680000000 1.0
C      1  0.5607930000000  0.5745610000000  0.5449330000000 1.0
C      1  0.4763630000000  0.5425440000000  0.5113100000000 1.0
C      1  0.5184810000000  0.4059360000000  0.5651440000000 1.0
C      1  0.5404220000000  0.5269360000000  0.4109110000000 1.0
C      1  0.5869470000000  0.5521200000000  0.5108270000000 1.0
C      1  0.5266700000000  0.6116200000000  0.5315080000000 1.0
C      1  0.4654290000000  0.5813610000000  0.4315150000000 1.0
C      1  0.5518690000000  0.4521720000000  0.4545250000000 1.0
C      1  0.4792160000000  0.4988840000000  0.4827700000000 1.0
C      1  0.5882310000000  0.4270100000000  0.4521170000000 1.0
C      1  0.5642660000000  0.4279730000000  0.4390320000000 1.0
C      1  0.4739220000000  0.5185820000000  0.5269000000000 1.0
C      1  0.6003730000000  0.5422920000000  0.5532760000000 1.0
C      1  0.5146310000000  0.5228460000000  0.4509960000000 1.0
C      1  0.5941010000000  0.4778390000000  0.5220310000000 1.0
C      1  0.5195400000000  0.4065020000000  0.5155970000000 1.0
C      1  0.5202820000000  0.4434320000000  0.4011080000000 1.0
C      1  0.5662460000000  0.4808640000000  0.4524180000000 1.0
C      1  0.5675810000000  0.4737890000000  0.5412240000000 1.0
C      1  0.5197480000000  0.6139040000000  0.5042500000000 1.0
C      1  0.5698200000000  0.4256300000000  0.5468510000000 1.0
C      1  0.5538130000000  0.4991560000000  0.5897840000000 1.0
C      1  0.4879600000000  0.5332640000000  0.3802490000000 1.0
C      1  0.4386050000000  0.5096960000000  0.4186200000000 1.0
C      1  0.4510990000000  0.4856730000000  0.4058810000000 1.0
C      1  0.4368350000000  0.5324100000000  0.5339280000000 1.0
C      1  0.5865810000000  0.4993970000000  0.4994080000000 1.0
C      1  0.5674600000000  0.5210770000000  0.4222300000000 1.0
C      1  0.4282540000000  0.4402000000000  0.5654930000000 1.0
C      1  0.5522730000000  0.5301930000000  0.4872670000000 1.0
C      1  0.4497920000000  0.4862610000000  0.5264120000000 1.0
C      1  0.5131330000000  0.5806930000000  0.4501230000000 1.0
C      1  0.3839550000000  0.4951880000000  0.5387640000000 1.0
C      1  0.4726680000000  0.4576800000000  0.3826500000000 1.0
C      1  0.5967640000000  0.4495380000000  0.4765860000000 1.0
C      1  0.4850030000000  0.4305100000000  0.5904630000000 1.0
C      1  0.3850130000000  0.4674880000000  0.5465690000000 1.0
C      1  0.5490840000000  0.5599980000000  0.4090680000000 1.0
C      1  0.5234030000000  0.5059750000000  0.5526440000000 1.0
C      1  0.3837580000000  0.4837270000000  0.4627870000000 1.0
C      1  0.5268630000000  0.4526290000000  0.5169930000000 1.0
C      1  0.4189610000000  0.5153080000000  0.4408660000000 1.0
C      1  0.4946250000000  0.4758330000000  0.5352650000000 1.0
C      1  0.5230840000000  0.4443400000000  0.4625780000000 1.0
C      1  0.6112060000000  0.4984090000000  0.4814660000000 1.0
C      1  0.4914200000000  0.5478870000000  0.5917210000000 1.0
C      1  0.4842150000000  0.6073370000000  0.4754720000000 1.0
C      1  0.5510250000000  0.4988120000000  0.5568640000000 1.0
C      1  0.5099720000000  0.5522240000000  0.5504900000000 1.0
C      1  0.4515460000000  0.5340020000000  0.4152990000000 1.0
C      1  0.4382900000000  0.5973840000000  0.4656770000000 1.0
C      1  0.5537400000000  0.5972380000000  0.5287280000000 1.0
C      1  0.5972230000000  0.5369600000000  0.4586630000000 1.0
C      1  0.5135240000000  0.5659910000000  0.5885510000000 1.0
C      1  0.4640760000000  0.4704540000000  0.5660770000000 1.0
C      1  0.4484380000000  0.5551740000000  0.4377270000000 1.0
C      1  0.4979480000000  0.4253160000000  0.5318910000000 1.0
C      1  0.4460550000000  0.4210490000000  0.5548250000000 1.0
C      1  0.4747640000000  0.4526860000000  0.4479860000000 1.0
C      1  0.4847430000000  0.4168400000000  0.4304060000000 1.0
C      1  0.5133550000000  0.6153810000000  0.4772630000000 1.0
C      1  0.4452910000000  0.5758190000000  0.5431320000000 1.0
C      1  0.4772720000000  0.4029800000000  0.4566150000000 1.0
C      1  0.5105370000000  0.5643380000000  0.4260920000000 1.0
C      1  0.4273340000000  0.5599200000000  0.5634670000000 1.0
C      1  0.5110760000000  0.4516060000000  0.4920740000000 1.0
C      1  0.5345460000000  0.5148240000000  0.4711300000000 1.0
C      1  0.4644280000000  0.6004560000000  0.4530030000000 1.0
C      1  0.5623630000000  0.5696250000000  0.4324530000000 1.0
C      1  0.4824230000000  0.4543800000000  0.6067130000000 1.0
C      1  0.5714580000000  0.4515290000000  0.5611070000000 1.0
C      1  0.3721360000000  0.5255250000000  0.5003070000000 1.0
C      1  0.5014500000000  0.3892290000000  0.4992980000000 1.0
C      1  0.4895740000000  0.5069030000000  0.4537570000000 1.0
C      1  0.5494000000000  0.4657540000000  0.5194680000000 1.0
C      1  0.4019050000000  0.4703260000000  0.4439290000000 1.0
C      1  0.5042050000000  0.4580090000000  0.4439190000000 1.0
C      1  0.5362080000000  0.4504370000000  0.6046190000000 1.0
C      1  0.4802750000000  0.3917440000000  0.5185050000000 1.0
C      1  0.4275530000000  0.4703950000000  0.4576220000000 1.0
C      1  0.4329890000000  0.5280300000000  0.5047720000000 1.0
C      1  0.4620330000000  0.5298010000000  0.5507230000000 1.0
C      1  0.5101140000000  0.5994770000000  0.5524020000000 1.0
C      1  0.6001640000000  0.4898710000000  0.5645730000000 1.0
END
