TITL C-883741-3679-190 61.4165204615633 125000 -29566.0496393135 0 0 197 (C1) n - 1
REM
REM in /home/nfs/bkarasulu/CARBON/AIRSS/Generating-Clusters/ReaxFF-fromJPCA2015/Units_Real/with-SteepDescent/Only-C1/SD-CG/Try1-3A/FIRE-CG
REM
REM
REM
REM
REM
REM ./C.cell (11c1c37f851c82e70ff6c80c92926a4b)
REM
REM compiler GCC version 9.2.1 20190827 (Red Hat 9.2.1-1)
REM options -cpp -mtune=generic -march=x86-64 -g -O0 -fpre-include=/usr/include/finclude/math-vector-fortran.h
REM seed 1847618097 1893114677 -1734732675 -648236694 -1329604647 1491343893 1588589495 -1274949774 -1154275237 -996326972 -832731779 2135356523 4899375 -410250321 -901615701 -1101372958 -1795433099 -861666576 1307232827 -650793043 -284251801 -393342892 -733127755 -530572234 -1630240370 1586820629 1689271641 1593430488 -1421224734 1674770778 -2051700780 347656526 -58944279
REM
CELL 1.54180   50.00000   50.00000   50.00000   90.00000   90.00000   90.00000
LATT -1
SFAC C  
C      1  0.4238950000000  0.4732540000000  0.5716590000000 1.0
C      1  0.5498500000000  0.3995630000000  0.4902500000000 1.0
C      1  0.5555710000000  0.5315830000000  0.3930540000000 1.0
C      1  0.4391740000000  0.5980460000000  0.4715650000000 1.0
C      1  0.5248230000000  0.6047760000000  0.5010910000000 1.0
C      1  0.4841120000000  0.5404160000000  0.5564260000000 1.0
C      1  0.5107390000000  0.5179360000000  0.6018630000000 1.0
C      1  0.5777650000000  0.4383740000000  0.4614250000000 1.0
C      1  0.4633080000000  0.4929150000000  0.3937600000000 1.0
C      1  0.4477090000000  0.3988840000000  0.4714320000000 1.0
C      1  0.4110160000000  0.5552570000000  0.5522550000000 1.0
C      1  0.5771270000000  0.4645890000000  0.4805410000000 1.0
C      1  0.5773920000000  0.4551820000000  0.4371110000000 1.0
C      1  0.4742350000000  0.6035650000000  0.5198770000000 1.0
C      1  0.5041840000000  0.4339810000000  0.5332640000000 1.0
C      1  0.5166850000000  0.4211290000000  0.4452800000000 1.0
C      1  0.4239960000000  0.5052110000000  0.4171590000000 1.0
C      1  0.5684070000000  0.4468600000000  0.5241950000000 1.0
C      1  0.4203450000000  0.5547160000000  0.4576980000000 1.0
C      1  0.5492700000000  0.5622250000000  0.5815530000000 1.0
C      1  0.4368040000000  0.5535850000000  0.4332660000000 1.0
C      1  0.4349020000000  0.4825520000000  0.5123030000000 1.0
C      1  0.4498280000000  0.5023580000000  0.5295760000000 1.0
C      1  0.5317360000000  0.4510650000000  0.4897910000000 1.0
C      1  0.5186440000000  0.4019630000000  0.4953320000000 1.0
C      1  0.6048020000000  0.5519270000000  0.5072430000000 1.0
C      1  0.4497730000000  0.4274400000000  0.5753000000000 1.0
C      1  0.5606900000000  0.5308120000000  0.5914210000000 1.0
C      1  0.4353020000000  0.4174940000000  0.5237410000000 1.0
C      1  0.5608630000000  0.5493780000000  0.5084780000000 1.0
C      1  0.4534140000000  0.5809550000000  0.5513240000000 1.0
C      1  0.4654810000000  0.4502030000000  0.5847470000000 1.0
C      1  0.5044340000000  0.4253540000000  0.5062240000000 1.0
C      1  0.5501480000000  0.5285260000000  0.4563530000000 1.0
C      1  0.5075400000000  0.5123510000000  0.4468730000000 1.0
C      1  0.5128070000000  0.5553190000000  0.4914260000000 1.0
C      1  0.4907580000000  0.4067760000000  0.4469830000000 1.0
C      1  0.5041820000000  0.4080830000000  0.5857800000000 1.0
C      1  0.4755810000000  0.4616220000000  0.5607460000000 1.0
C      1  0.4835550000000  0.6056430000000  0.4912080000000 1.0
C      1  0.4472020000000  0.5923190000000  0.5235710000000 1.0
C      1  0.5493630000000  0.4470770000000  0.5435960000000 1.0
C      1  0.5412080000000  0.5553000000000  0.4612900000000 1.0
C      1  0.4735560000000  0.5510420000000  0.5949700000000 1.0
C      1  0.4501040000000  0.5796990000000  0.4249260000000 1.0
C      1  0.5349170000000  0.4352770000000  0.5952340000000 1.0
C      1  0.5690000000000  0.5853830000000  0.4825430000000 1.0
C      1  0.5288400000000  0.4825840000000  0.5839550000000 1.0
C      1  0.5171570000000  0.4671960000000  0.5075290000000 1.0
C      1  0.4744210000000  0.4188280000000  0.4261050000000 1.0
C      1  0.5411040000000  0.5575010000000  0.4890620000000 1.0
C      1  0.5063550000000  0.4339250000000  0.6014520000000 1.0
C      1  0.4801440000000  0.5867990000000  0.4217060000000 1.0
C      1  0.4762620000000  0.3923270000000  0.4688720000000 1.0
C      1  0.5736030000000  0.5081500000000  0.5769980000000 1.0
C      1  0.4447780000000  0.4843410000000  0.4843920000000 1.0
C      1  0.5478190000000  0.4834720000000  0.4435180000000 1.0
C      1  0.4577510000000  0.5224470000000  0.3952740000000 1.0
C      1  0.4116500000000  0.4788780000000  0.5461020000000 1.0
C      1  0.5109460000000  0.5795870000000  0.5076630000000 1.0
C      1  0.3926080000000  0.5198340000000  0.4844200000000 1.0
C      1  0.5434530000000  0.4777960000000  0.3993310000000 1.0
C      1  0.4405050000000  0.4413600000000  0.5393680000000 1.0
C      1  0.4768250000000  0.5322070000000  0.4774990000000 1.0
C      1  0.5087690000000  0.4688660000000  0.4508200000000 1.0
C      1  0.4004990000000  0.4396470000000  0.4887300000000 1.0
C      1  0.3980550000000  0.4831780000000  0.4533620000000 1.0
C      1  0.4944420000000  0.5142450000000  0.5030190000000 1.0
C      1  0.5267630000000  0.5366720000000  0.3912310000000 1.0
C      1  0.4389870000000  0.4824820000000  0.4059330000000 1.0
C      1  0.3912590000000  0.4904470000000  0.4811880000000 1.0
C      1  0.4800180000000  0.5909240000000  0.5655730000000 1.0
C      1  0.4868230000000  0.4444100000000  0.4943450000000 1.0
C      1  0.5016230000000  0.5233520000000  0.3823250000000 1.0
C      1  0.5174440000000  0.4819540000000  0.5555150000000 1.0
C      1  0.5910760000000  0.5064160000000  0.5509060000000 1.0
C      1  0.5118500000000  0.4905230000000  0.6061890000000 1.0
C      1  0.4941260000000  0.4377940000000  0.4137040000000 1.0
C      1  0.4670100000000  0.5553140000000  0.5401810000000 1.0
C      1  0.5172310000000  0.5313530000000  0.5065160000000 1.0
C      1  0.4613280000000  0.5038110000000  0.4704530000000 1.0
C      1  0.5278550000000  0.5525360000000  0.4162860000000 1.0
C      1  0.5626640000000  0.4043340000000  0.5140970000000 1.0
C      1  0.4049990000000  0.5298300000000  0.4599390000000 1.0
C      1  0.4642630000000  0.4127370000000  0.5537070000000 1.0
C      1  0.5568150000000  0.5510770000000  0.4176250000000 1.0
C      1  0.4796780000000  0.4375510000000  0.5464490000000 1.0
C      1  0.4025350000000  0.5071410000000  0.5463420000000 1.0
C      1  0.5721070000000  0.5661480000000  0.4373100000000 1.0
C      1  0.5643060000000  0.4415330000000  0.5669880000000 1.0
C      1  0.5621790000000  0.5129940000000  0.4768310000000 1.0
C      1  0.4966280000000  0.5482180000000  0.4626030000000 1.0
C      1  0.5937660000000  0.4496800000000  0.5390280000000 1.0
C      1  0.4062700000000  0.5076200000000  0.4405120000000 1.0
C      1  0.4526360000000  0.4111500000000  0.4991030000000 1.0
C      1  0.5220990000000  0.4567910000000  0.5376410000000 1.0
C      1  0.5153680000000  0.4794260000000  0.3945860000000 1.0
C      1  0.5046940000000  0.5445650000000  0.5417100000000 1.0
C      1  0.4801150000000  0.4933240000000  0.5222070000000 1.0
C      1  0.5565860000000  0.4626490000000  0.5029190000000 1.0
C      1  0.6124880000000  0.4844830000000  0.4674850000000 1.0
C      1  0.5098020000000  0.6112890000000  0.4765580000000 1.0
C      1  0.4519940000000  0.5062470000000  0.5598910000000 1.0
C      1  0.4543910000000  0.5480790000000  0.5151870000000 1.0
C      1  0.4287210000000  0.4457670000000  0.5662970000000 1.0
C      1  0.6017380000000  0.4786800000000  0.5446950000000 1.0
C      1  0.5505900000000  0.5927070000000  0.5321590000000 1.0
C      1  0.6058440000000  0.5302720000000  0.5269390000000 1.0
C      1  0.5652640000000  0.4056450000000  0.5410810000000 1.0
C      1  0.3929810000000  0.5381420000000  0.5081550000000 1.0
C      1  0.5035730000000  0.3850920000000  0.5135390000000 1.0
C      1  0.4775250000000  0.4657760000000  0.5118260000000 1.0
C      1  0.5329610000000  0.4086760000000  0.5804720000000 1.0
C      1  0.4666600000000  0.5003620000000  0.6044220000000 1.0
C      1  0.4349110000000  0.5933980000000  0.4441060000000 1.0
C      1  0.5218410000000  0.4471610000000  0.4627480000000 1.0
C      1  0.4410830000000  0.4974610000000  0.5861340000000 1.0
C      1  0.4211600000000  0.5763430000000  0.4792480000000 1.0
C      1  0.4857320000000  0.4803360000000  0.6106180000000 1.0
C      1  0.5246590000000  0.5261720000000  0.5340830000000 1.0
C      1  0.5818850000000  0.5060080000000  0.4118280000000 1.0
C      1  0.4103050000000  0.4592190000000  0.4423040000000 1.0
C      1  0.4318200000000  0.5668350000000  0.5682310000000 1.0
C      1  0.4999430000000  0.4912280000000  0.4664770000000 1.0
C      1  0.4099580000000  0.4321500000000  0.5153590000000 1.0
C      1  0.4796900000000  0.5406430000000  0.3906350000000 1.0
C      1  0.4466410000000  0.4268280000000  0.4289760000000 1.0
C      1  0.5533010000000  0.5821910000000  0.4559810000000 1.0
C      1  0.3912990000000  0.4660840000000  0.4985860000000 1.0
C      1  0.5008500000000  0.5948020000000  0.4394820000000 1.0
C      1  0.4342690000000  0.4155660000000  0.4514740000000 1.0
C      1  0.5481120000000  0.4602000000000  0.4230080000000 1.0
C      1  0.4936440000000  0.4953920000000  0.3848180000000 1.0
C      1  0.4885860000000  0.4871410000000  0.5534370000000 1.0
C      1  0.5543830000000  0.5993420000000  0.5045490000000 1.0
C      1  0.5695430000000  0.5235250000000  0.5021940000000 1.0
C      1  0.4385690000000  0.5243880000000  0.5165050000000 1.0
C      1  0.5354760000000  0.5096870000000  0.4408590000000 1.0
C      1  0.5126880000000  0.5706840000000  0.5332810000000 1.0
C      1  0.5333360000000  0.5242390000000  0.5840880000000 1.0
C      1  0.4275250000000  0.5255620000000  0.5868010000000 1.0
C      1  0.4823710000000  0.5249000000000  0.6044880000000 1.0
C      1  0.5655570000000  0.4175610000000  0.4751840000000 1.0
C      1  0.5228740000000  0.5983830000000  0.4540620000000 1.0
C      1  0.6050720000000  0.4704310000000  0.4916360000000 1.0
C      1  0.5898590000000  0.5657110000000  0.4830320000000 1.0
C      1  0.4178460000000  0.4401060000000  0.4632380000000 1.0
C      1  0.5311220000000  0.4980660000000  0.5365090000000 1.0
C      1  0.4372880000000  0.5308260000000  0.4140510000000 1.0
C      1  0.4109710000000  0.5194180000000  0.5210280000000 1.0
C      1  0.4251190000000  0.5782400000000  0.5091200000000 1.0
C      1  0.4869680000000  0.5049340000000  0.4296010000000 1.0
C      1  0.4929140000000  0.5695900000000  0.5813340000000 1.0
C      1  0.5415610000000  0.5308000000000  0.5564840000000 1.0
C      1  0.4792090000000  0.3888190000000  0.4976700000000 1.0
C      1  0.4503830000000  0.4602540000000  0.5200900000000 1.0
C      1  0.5225000000000  0.4371410000000  0.4222370000000 1.0
C      1  0.4991910000000  0.4783610000000  0.4224660000000 1.0
C      1  0.5231850000000  0.5926450000000  0.5510820000000 1.0
C      1  0.4627110000000  0.4965070000000  0.4428850000000 1.0
C      1  0.6042480000000  0.5274930000000  0.4526210000000 1.0
C      1  0.5759590000000  0.5027090000000  0.5224610000000 1.0
C      1  0.4583760000000  0.4666620000000  0.4389540000000 1.0
C      1  0.4791880000000  0.5132560000000  0.5629350000000 1.0
C      1  0.4640370000000  0.5570260000000  0.4890570000000 1.0
C      1  0.4000360000000  0.4585880000000  0.5256530000000 1.0
C      1  0.6190480000000  0.5273610000000  0.5015540000000 1.0
C      1  0.4845010000000  0.4523830000000  0.6062030000000 1.0
C      1  0.6044540000000  0.4840500000000  0.5168800000000 1.0
C      1  0.5377090000000  0.3994580000000  0.5529900000000 1.0
C      1  0.5105060000000  0.4910030000000  0.4935530000000 1.0
C      1  0.5514780000000  0.4874730000000  0.5206630000000 1.0
C      1  0.5112770000000  0.3918090000000  0.5424920000000 1.0
C      1  0.5916100000000  0.5537890000000  0.4561230000000 1.0
C      1  0.5853640000000  0.4258010000000  0.5542610000000 1.0
C      1  0.5575680000000  0.4844030000000  0.5871220000000 1.0
C      1  0.5999220000000  0.5039990000000  0.4318720000000 1.0
C      1  0.5602950000000  0.5529400000000  0.5563830000000 1.0
C      1  0.5632610000000  0.5672120000000  0.5315490000000 1.0
C      1  0.4900500000000  0.3990800000000  0.5613520000000 1.0
C      1  0.4469270000000  0.4574620000000  0.4703450000000 1.0
C      1  0.5616960000000  0.5020850000000  0.3942910000000 1.0
C      1  0.4066910000000  0.5601190000000  0.5229400000000 1.0
C      1  0.5576090000000  0.4545820000000  0.5926850000000 1.0
C      1  0.4332510000000  0.4568980000000  0.4231950000000 1.0
C      1  0.4614890000000  0.4369150000000  0.4849310000000 1.0
C      1  0.5241220000000  0.5753820000000  0.5764570000000 1.0
C      1  0.5978590000000  0.4758160000000  0.4424810000000 1.0
C      1  0.4656500000000  0.5856070000000  0.4802510000000 1.0
C      1  0.4925060000000  0.6044020000000  0.5441680000000 1.0
C      1  0.4771960000000  0.4617960000000  0.4163850000000 1.0
C      1  0.4080250000000  0.5287080000000  0.5652960000000 1.0
C      1  0.4444580000000  0.5498270000000  0.5880320000000 1.0
C      1  0.4855430000000  0.5598140000000  0.4127290000000 1.0
C      1  0.5037780000000  0.5513960000000  0.4349570000000 1.0
C      1  0.6151310000000  0.5135360000000  0.4740440000000 1.0
C      1  0.5634590000000  0.4867760000000  0.4665990000000 1.0
END
