TITL C-883741-3679-192 8.57030718439048 125000 -25440.8917317055 0 0 169 (C1) n - 1
REM
REM in /home/nfs/bkarasulu/CARBON/AIRSS/Generating-Clusters/ReaxFF-fromJPCA2015/Units_Real/with-SteepDescent/Only-C1/SD-CG/Try1-3A/FIRE-CG
REM
REM
REM
REM
REM
REM ./C.cell (11c1c37f851c82e70ff6c80c92926a4b)
REM
REM compiler GCC version 9.2.1 20190827 (Red Hat 9.2.1-1)
REM options -cpp -mtune=generic -march=x86-64 -g -O0 -fpre-include=/usr/include/finclude/math-vector-fortran.h
REM seed -519073310 1567506221 -926290733 -1405159382 -24408724 1128585151 195245114 -452434527 1933019391 -1217254482 471364039 742202164 -304772933 -1983056697 1331816876 868542249 1239945138 1955285582 1630641928 20140332 -1735864657 -1343345837 -176789446 -1398315251 -1264908005 566875092 1129580012 1494770798 1084592642 987195147 -1875053985 -1184445446 -8254935
REM
CELL 1.54180   50.00000   50.00000   50.00000   90.00000   90.00000   90.00000
LATT -1
SFAC C  
C      1  0.6047050000000  0.5011170000000  0.4706090000000 1.0
C      1  0.5582990000000  0.4194550000000  0.5025190000000 1.0
C      1  0.5804680000000  0.5638000000000  0.4724980000000 1.0
C      1  0.4936510000000  0.4413010000000  0.4982140000000 1.0
C      1  0.4580340000000  0.4799990000000  0.4543070000000 1.0
C      1  0.4860630000000  0.5462440000000  0.4238720000000 1.0
C      1  0.5135740000000  0.3887130000000  0.4895780000000 1.0
C      1  0.5516790000000  0.5617580000000  0.5753040000000 1.0
C      1  0.4432810000000  0.6065720000000  0.5311390000000 1.0
C      1  0.5493150000000  0.5141950000000  0.5158250000000 1.0
C      1  0.5145500000000  0.5965300000000  0.4960100000000 1.0
C      1  0.4826460000000  0.4596890000000  0.5908930000000 1.0
C      1  0.4251190000000  0.5757490000000  0.5619260000000 1.0
C      1  0.4120320000000  0.4996970000000  0.4170030000000 1.0
C      1  0.4532650000000  0.4619250000000  0.4999670000000 1.0
C      1  0.5377650000000  0.4935970000000  0.4979530000000 1.0
C      1  0.5643770000000  0.5867230000000  0.4813420000000 1.0
C      1  0.5476920000000  0.5851740000000  0.5578270000000 1.0
C      1  0.4064900000000  0.4988250000000  0.5578460000000 1.0
C      1  0.4321410000000  0.4886750000000  0.5668020000000 1.0
C      1  0.5396690000000  0.4643880000000  0.4934980000000 1.0
C      1  0.5104150000000  0.4041170000000  0.4511870000000 1.0
C      1  0.4821410000000  0.4839390000000  0.4384760000000 1.0
C      1  0.5940630000000  0.5187370000000  0.5395890000000 1.0
C      1  0.5824500000000  0.4603710000000  0.5791290000000 1.0
C      1  0.4437760000000  0.4716210000000  0.5471450000000 1.0
C      1  0.4884450000000  0.5207690000000  0.5502580000000 1.0
C      1  0.4719760000000  0.4488240000000  0.5158420000000 1.0
C      1  0.5484370000000  0.4923150000000  0.5927750000000 1.0
C      1  0.3961230000000  0.5348830000000  0.4812470000000 1.0
C      1  0.4962840000000  0.5749500000000  0.5675700000000 1.0
C      1  0.5917380000000  0.4582470000000  0.4521450000000 1.0
C      1  0.5202170000000  0.5797940000000  0.5502080000000 1.0
C      1  0.4661600000000  0.4153960000000  0.4460620000000 1.0
C      1  0.4106850000000  0.5655030000000  0.5248210000000 1.0
C      1  0.5202810000000  0.5983340000000  0.4528380000000 1.0
C      1  0.4884120000000  0.4063740000000  0.5327920000000 1.0
C      1  0.5586930000000  0.4144390000000  0.4742930000000 1.0
C      1  0.5227910000000  0.4237150000000  0.5690880000000 1.0
C      1  0.4656290000000  0.6022740000000  0.4796600000000 1.0
C      1  0.5865280000000  0.4483400000000  0.5527720000000 1.0
C      1  0.5627470000000  0.5024040000000  0.4281590000000 1.0
C      1  0.4897480000000  0.5309190000000  0.5997580000000 1.0
C      1  0.5121980000000  0.3981270000000  0.5173580000000 1.0
C      1  0.5158340000000  0.5194560000000  0.6088020000000 1.0
C      1  0.4990030000000  0.5034540000000  0.4497610000000 1.0
C      1  0.5651300000000  0.5012040000000  0.5362190000000 1.0
C      1  0.4638010000000  0.4614850000000  0.4735570000000 1.0
C      1  0.4615370000000  0.5233120000000  0.4712970000000 1.0
C      1  0.5139040000000  0.4897660000000  0.5124410000000 1.0
C      1  0.5931800000000  0.5736610000000  0.5370580000000 1.0
C      1  0.4258880000000  0.5897710000000  0.5140650000000 1.0
C      1  0.6185470000000  0.4789520000000  0.5189460000000 1.0
C      1  0.5960380000000  0.5465450000000  0.4936390000000 1.0
C      1  0.4637350000000  0.4016290000000  0.4714290000000 1.0
C      1  0.4868130000000  0.6032010000000  0.5017230000000 1.0
C      1  0.4571630000000  0.5517700000000  0.5068040000000 1.0
C      1  0.4990530000000  0.5293160000000  0.5240960000000 1.0
C      1  0.4791080000000  0.5321970000000  0.3981470000000 1.0
C      1  0.3915080000000  0.5048010000000  0.4840900000000 1.0
C      1  0.5524180000000  0.4677160000000  0.5783870000000 1.0
C      1  0.4043390000000  0.5423320000000  0.5086230000000 1.0
C      1  0.4907360000000  0.4919560000000  0.5487230000000 1.0
C      1  0.4715700000000  0.5811750000000  0.5486760000000 1.0
C      1  0.4209260000000  0.4374010000000  0.4356660000000 1.0
C      1  0.6098720000000  0.5210260000000  0.4923040000000 1.0
C      1  0.4437880000000  0.5043650000000  0.4577670000000 1.0
C      1  0.5253700000000  0.5461510000000  0.4796250000000 1.0
C      1  0.5003080000000  0.5704640000000  0.4170420000000 1.0
C      1  0.5417210000000  0.5336890000000  0.6061530000000 1.0
C      1  0.3978580000000  0.4824090000000  0.4375900000000 1.0
C      1  0.3965450000000  0.4538680000000  0.4770040000000 1.0
C      1  0.4744720000000  0.4863670000000  0.5929610000000 1.0
C      1  0.5446230000000  0.4137210000000  0.5511050000000 1.0
C      1  0.5230880000000  0.4917620000000  0.6044360000000 1.0
C      1  0.5617820000000  0.4491860000000  0.5003340000000 1.0
C      1  0.5561540000000  0.5833400000000  0.5081970000000 1.0
C      1  0.4126590000000  0.4329240000000  0.4631260000000 1.0
C      1  0.4233090000000  0.4234340000000  0.4893430000000 1.0
C      1  0.3936450000000  0.4814750000000  0.4664650000000 1.0
C      1  0.4032250000000  0.4421230000000  0.5031440000000 1.0
C      1  0.5214420000000  0.4460210000000  0.5068420000000 1.0
C      1  0.4174450000000  0.5495990000000  0.4672130000000 1.0
C      1  0.5683770000000  0.4261370000000  0.4289510000000 1.0
C      1  0.5232990000000  0.5589860000000  0.4026440000000 1.0
C      1  0.4391250000000  0.5617980000000  0.4836810000000 1.0
C      1  0.5810410000000  0.4667850000000  0.4909230000000 1.0
C      1  0.6135210000000  0.4731070000000  0.4674080000000 1.0
C      1  0.5291880000000  0.4470560000000  0.5847660000000 1.0
C      1  0.4002420000000  0.4526500000000  0.5311030000000 1.0
C      1  0.4925910000000  0.5052390000000  0.5080820000000 1.0
C      1  0.6124610000000  0.5083400000000  0.5189580000000 1.0
C      1  0.5567400000000  0.4391330000000  0.5433490000000 1.0
C      1  0.5473120000000  0.4851520000000  0.5513730000000 1.0
C      1  0.5462460000000  0.5622700000000  0.6065110000000 1.0
C      1  0.4428290000000  0.5179110000000  0.5731230000000 1.0
C      1  0.5109360000000  0.4643550000000  0.5984590000000 1.0
C      1  0.4051770000000  0.4583880000000  0.4221340000000 1.0
C      1  0.5315330000000  0.4504130000000  0.5340460000000 1.0
C      1  0.5535610000000  0.4450630000000  0.4276990000000 1.0
C      1  0.5561020000000  0.5054430000000  0.4601300000000 1.0
C      1  0.4938720000000  0.4292850000000  0.4452540000000 1.0
C      1  0.5801600000000  0.4789550000000  0.4361480000000 1.0
C      1  0.5966690000000  0.5480740000000  0.5226210000000 1.0
C      1  0.5250820000000  0.5606350000000  0.5291010000000 1.0
C      1  0.5782730000000  0.4284670000000  0.4552570000000 1.0
C      1  0.4488370000000  0.4315130000000  0.4287450000000 1.0
C      1  0.5061830000000  0.5246600000000  0.4315330000000 1.0
C      1  0.4644150000000  0.4481590000000  0.4107080000000 1.0
C      1  0.4399380000000  0.5138310000000  0.4225850000000 1.0
C      1  0.5459480000000  0.4477880000000  0.4051480000000 1.0
C      1  0.5474210000000  0.5520440000000  0.4161630000000 1.0
C      1  0.4789840000000  0.4410190000000  0.5681910000000 1.0
C      1  0.4956990000000  0.4202910000000  0.5582270000000 1.0
C      1  0.4635690000000  0.5087840000000  0.4037430000000 1.0
C      1  0.4006510000000  0.4983380000000  0.5112800000000 1.0
C      1  0.4196860000000  0.4346280000000  0.5402270000000 1.0
C      1  0.4433010000000  0.4205740000000  0.5426960000000 1.0
C      1  0.4139770000000  0.4763900000000  0.3983320000000 1.0
C      1  0.5401990000000  0.4060720000000  0.5227620000000 1.0
C      1  0.5731400000000  0.5532090000000  0.4475550000000 1.0
C      1  0.4915290000000  0.3908510000000  0.4698060000000 1.0
C      1  0.5011430000000  0.4647020000000  0.3994260000000 1.0
C      1  0.4876520000000  0.4460140000000  0.4703880000000 1.0
C      1  0.5665040000000  0.5875910000000  0.5350580000000 1.0
C      1  0.5345810000000  0.5335350000000  0.5347560000000 1.0
C      1  0.5188460000000  0.4812440000000  0.5404710000000 1.0
C      1  0.3967620000000  0.4824560000000  0.5350690000000 1.0
C      1  0.4477970000000  0.4820070000000  0.5205190000000 1.0
C      1  0.6037400000000  0.4634650000000  0.5369030000000 1.0
C      1  0.5673030000000  0.5366030000000  0.4265280000000 1.0
C      1  0.5940800000000  0.4844630000000  0.5725610000000 1.0
C      1  0.4666690000000  0.5116100000000  0.5947930000000 1.0
C      1  0.4791090000000  0.5985890000000  0.4561720000000 1.0
C      1  0.5775870000000  0.4924690000000  0.4764650000000 1.0
C      1  0.5460890000000  0.5361700000000  0.5632990000000 1.0
C      1  0.6101210000000  0.4629510000000  0.4948500000000 1.0
C      1  0.5293470000000  0.5701210000000  0.5029690000000 1.0
C      1  0.5415930000000  0.4953460000000  0.4076850000000 1.0
C      1  0.4914390000000  0.4420640000000  0.4141750000000 1.0
C      1  0.5081640000000  0.5350830000000  0.3902790000000 1.0
C      1  0.5357180000000  0.5992350000000  0.4751850000000 1.0
C      1  0.4608570000000  0.4474180000000  0.5465340000000 1.0
C      1  0.4123510000000  0.5614760000000  0.4381800000000 1.0
C      1  0.4723000000000  0.6031690000000  0.5273700000000 1.0
C      1  0.5195310000000  0.5140980000000  0.4074450000000 1.0
C      1  0.4855530000000  0.5483650000000  0.5054200000000 1.0
C      1  0.4227850000000  0.5182570000000  0.5092170000000 1.0
C      1  0.4617300000000  0.5316330000000  0.5528200000000 1.0
C      1  0.5330150000000  0.4002800000000  0.4693370000000 1.0
C      1  0.4378610000000  0.5160540000000  0.4842950000000 1.0
C      1  0.4603310000000  0.4070820000000  0.5230470000000 1.0
C      1  0.4970140000000  0.5422580000000  0.4790920000000 1.0
C      1  0.4763950000000  0.4812560000000  0.4083090000000 1.0
C      1  0.4383120000000  0.5903980000000  0.4877450000000 1.0
C      1  0.5602300000000  0.5171260000000  0.5817260000000 1.0
C      1  0.4100460000000  0.5542460000000  0.5537170000000 1.0
C      1  0.4885110000000  0.5146520000000  0.4764180000000 1.0
C      1  0.4483170000000  0.4093460000000  0.4956050000000 1.0
C      1  0.4447470000000  0.5952080000000  0.5586070000000 1.0
C      1  0.4146310000000  0.5263990000000  0.5645860000000 1.0
C      1  0.5306550000000  0.4701730000000  0.3969350000000 1.0
C      1  0.4263440000000  0.5388830000000  0.4271960000000 1.0
C      1  0.4579120000000  0.5548840000000  0.5358820000000 1.0
C      1  0.4982990000000  0.5952980000000  0.4351290000000 1.0
C      1  0.5406240000000  0.5259510000000  0.4699510000000 1.0
C      1  0.5900740000000  0.5117660000000  0.5687240000000 1.0
C      1  0.4741750000000  0.4920900000000  0.5253460000000 1.0
C      1  0.4930600000000  0.5531810000000  0.5834910000000 1.0
END
