TITL C-884140-4336-192 4.83590749559625 125000 -13824.0151824607 0 0 93 (C1) n - 1
REM
REM in /home/nfs/bkarasulu/CARBON/AIRSS/Generating-Clusters/ReaxFF-fromJPCA2015/Units_Real/with-SteepDescent/Only-C1/SD-CG/Try1-3A/FIRE-CG
REM
REM
REM
REM
REM
REM ./C.cell (11c1c37f851c82e70ff6c80c92926a4b)
REM
REM compiler GCC version 9.2.1 20190827 (Red Hat 9.2.1-1)
REM options -cpp -mtune=generic -march=x86-64 -g -O0 -fpre-include=/usr/include/finclude/math-vector-fortran.h
REM seed -2088390598 -1276392665 1855045554 707554280 -1097280465 -780500174 476873304 -1459440195 -1704069831 1464899283 1755953950 824917421 -267828347 273159347 734716159 1183409975 1151484951 1308263809 464038510 -813542998 -1926056281 415138557 1279290699 -245737606 -891077874 1549046051 1895420977 1856897711 -1026044103 -1318160408 -1134261274 -1471442185 1302227455
REM
CELL 1.54180   50.00000   50.00000   50.00000   90.00000   90.00000   90.00000
LATT -1
SFAC C  
C      1  0.4406980000000  0.5291370000000  0.5547670000000 1.0
C      1  0.4663920000000  0.5058590000000  0.5149630000000 1.0
C      1  0.4652740000000  0.4833360000000  0.5308650000000 1.0
C      1  0.4592740000000  0.5089660000000  0.4874810000000 1.0
C      1  0.4948130000000  0.4723450000000  0.4152150000000 1.0
C      1  0.5020920000000  0.4818060000000  0.4649190000000 1.0
C      1  0.5015430000000  0.5342330000000  0.5415200000000 1.0
C      1  0.4652790000000  0.5342900000000  0.5701230000000 1.0
C      1  0.4727160000000  0.4413600000000  0.4698830000000 1.0
C      1  0.4341970000000  0.4947520000000  0.4786180000000 1.0
C      1  0.5029390000000  0.5484130000000  0.4293460000000 1.0
C      1  0.4464600000000  0.4717820000000  0.4449100000000 1.0
C      1  0.5826120000000  0.5173610000000  0.5055580000000 1.0
C      1  0.5439430000000  0.5627250000000  0.4659700000000 1.0
C      1  0.4918130000000  0.5176510000000  0.5203730000000 1.0
C      1  0.5564470000000  0.4522370000000  0.4786210000000 1.0
C      1  0.4147140000000  0.5110610000000  0.5219290000000 1.0
C      1  0.5301520000000  0.5279020000000  0.5457010000000 1.0
C      1  0.5587000000000  0.4681420000000  0.5632780000000 1.0
C      1  0.4790780000000  0.5129120000000  0.5771010000000 1.0
C      1  0.4218580000000  0.5379280000000  0.5120450000000 1.0
C      1  0.4573840000000  0.4528890000000  0.5559390000000 1.0
C      1  0.5118730000000  0.5661570000000  0.5668370000000 1.0
C      1  0.5330240000000  0.4652500000000  0.5773270000000 1.0
C      1  0.4650620000000  0.4304590000000  0.5392490000000 1.0
C      1  0.5299990000000  0.5107370000000  0.4976970000000 1.0
C      1  0.4596300000000  0.4335250000000  0.5108090000000 1.0
C      1  0.4338790000000  0.5517970000000  0.5348150000000 1.0
C      1  0.5156170000000  0.4296830000000  0.5487180000000 1.0
C      1  0.4881050000000  0.4750060000000  0.5429710000000 1.0
C      1  0.5648620000000  0.5462980000000  0.4801230000000 1.0
C      1  0.4156930000000  0.4894740000000  0.5009970000000 1.0
C      1  0.5308270000000  0.5517370000000  0.4416780000000 1.0
C      1  0.4993720000000  0.5910800000000  0.4837750000000 1.0
C      1  0.4802330000000  0.5588790000000  0.4440040000000 1.0
C      1  0.5312030000000  0.5723300000000  0.5314270000000 1.0
C      1  0.4874240000000  0.5661010000000  0.4717940000000 1.0
C      1  0.4517840000000  0.5491160000000  0.4406090000000 1.0
C      1  0.5086710000000  0.4986080000000  0.4119450000000 1.0
C      1  0.4394370000000  0.5480190000000  0.4654280000000 1.0
C      1  0.4537210000000  0.5698180000000  0.5277270000000 1.0
C      1  0.5335250000000  0.5026690000000  0.4303840000000 1.0
C      1  0.4385980000000  0.4484570000000  0.4959920000000 1.0
C      1  0.5495620000000  0.4641990000000  0.4533500000000 1.0
C      1  0.5278230000000  0.4828760000000  0.4524830000000 1.0
C      1  0.5105320000000  0.4500310000000  0.4251130000000 1.0
C      1  0.5325920000000  0.5759290000000  0.5566090000000 1.0
C      1  0.5309540000000  0.4359990000000  0.4786800000000 1.0
C      1  0.5748580000000  0.4892650000000  0.5145890000000 1.0
C      1  0.5123510000000  0.5226860000000  0.4749870000000 1.0
C      1  0.5111260000000  0.4476680000000  0.5710530000000 1.0
C      1  0.5303650000000  0.5248590000000  0.4504620000000 1.0
C      1  0.5395080000000  0.5086870000000  0.5648750000000 1.0
C      1  0.5443140000000  0.4122910000000  0.5235740000000 1.0
C      1  0.4734870000000  0.5079680000000  0.4359910000000 1.0
C      1  0.4946520000000  0.5223560000000  0.4179070000000 1.0
C      1  0.5291280000000  0.4092890000000  0.5001850000000 1.0
C      1  0.4853420000000  0.5053270000000  0.4675160000000 1.0
C      1  0.4864600000000  0.5557910000000  0.5572870000000 1.0
C      1  0.5418460000000  0.5269430000000  0.5183710000000 1.0
C      1  0.5661070000000  0.5415080000000  0.5093890000000 1.0
C      1  0.5650240000000  0.4977530000000  0.4191030000000 1.0
C      1  0.4403560000000  0.5366450000000  0.4892510000000 1.0
C      1  0.5222310000000  0.4921060000000  0.5815540000000 1.0
C      1  0.4688870000000  0.4792640000000  0.4275410000000 1.0
C      1  0.5827750000000  0.5220730000000  0.4765510000000 1.0
C      1  0.4845810000000  0.5880440000000  0.5083340000000 1.0
C      1  0.5105040000000  0.4465680000000  0.4987830000000 1.0
C      1  0.4323530000000  0.4975660000000  0.4497970000000 1.0
C      1  0.5045470000000  0.5494670000000  0.4885990000000 1.0
C      1  0.5801060000000  0.4937850000000  0.4682380000000 1.0
C      1  0.5662950000000  0.4732480000000  0.5362400000000 1.0
C      1  0.4768410000000  0.5795040000000  0.5342020000000 1.0
C      1  0.5099170000000  0.4961220000000  0.5113750000000 1.0
C      1  0.5722110000000  0.4752080000000  0.4890060000000 1.0
C      1  0.5120480000000  0.4738960000000  0.5292120000000 1.0
C      1  0.5055970000000  0.4048140000000  0.5167030000000 1.0
C      1  0.4254560000000  0.4661380000000  0.5141380000000 1.0
C      1  0.4914060000000  0.4150520000000  0.5390430000000 1.0
C      1  0.4835920000000  0.4361810000000  0.4949180000000 1.0
C      1  0.5638590000000  0.4948470000000  0.5542000000000 1.0
C      1  0.5253970000000  0.5649250000000  0.5045340000000 1.0
C      1  0.4288750000000  0.5047460000000  0.5460240000000 1.0
C      1  0.4946850000000  0.4545440000000  0.4611110000000 1.0
C      1  0.5151460000000  0.4370860000000  0.4490300000000 1.0
C      1  0.4850190000000  0.4634430000000  0.5690130000000 1.0
C      1  0.5726360000000  0.4824630000000  0.4414210000000 1.0
C      1  0.5292960000000  0.5829570000000  0.4820170000000 1.0
C      1  0.4929230000000  0.4915440000000  0.5840570000000 1.0
C      1  0.4454840000000  0.5204020000000  0.4363470000000 1.0
C      1  0.4466320000000  0.4522990000000  0.4675280000000 1.0
C      1  0.5236630000000  0.4472980000000  0.5249050000000 1.0
C      1  0.4397330000000  0.4740560000000  0.5413730000000 1.0
END
