TITL C-883728-9229-15 3896365.41950663 125000 -28932.9601416437 0 0 196 (C1) n - 1
REM
REM in /home/nfs/bkarasulu/CARBON/AIRSS/Generating-Clusters/ReaxFF-fromJPCA2015/Units_Real/with-SteepDescent/Only-C1/SD-CG/Try1-3A/FIRE-CG
REM
REM
REM
REM
REM
REM ./C.cell (11c1c37f851c82e70ff6c80c92926a4b)
REM
REM compiler GCC version 9.2.1 20190827 (Red Hat 9.2.1-1)
REM options -cpp -mtune=generic -march=x86-64 -g -O0 -fpre-include=/usr/include/finclude/math-vector-fortran.h
REM seed -1018636894 -924480403 -543190819 -814864069 1979957875 344406591 2019917516 108372626 979566783 1062569226 1107422177 457978572 -99969388 588118162 1973960146 1006830025 -386453209 -673415353 -335431550 1683322728 1937908315 -984148050 851772481 -1924713165 -1729471536 -914594298 -634497067 -1410718949 -1084962055 -1367036376 -574427440 -759477571 995002463
REM
CELL 1.54180   50.00000   50.00000   50.00000   90.00000   90.00000   90.00000
LATT -1
SFAC C  
C      1  0.4425740000000  0.4508490000000  0.4468400000000 1.0
C      1  0.4771510000000  0.4843640000000  0.3897990000000 1.0
C      1  0.4690500000000  0.5467090000000  0.5541790000000 1.0
C      1  0.4142200000000  0.5304480000000  0.4530330000000 1.0
C      1  0.4501770000000  0.4278360000000  0.4629530000000 1.0
C      1  0.4535880000000  0.4784560000000  0.4068750000000 1.0
C      1  0.5164490000000  0.4949120000000  0.6096350000000 1.0
C      1  0.5425850000000  0.4511890000000  0.4118380000000 1.0
C      1  0.5559420000000  0.5132550000000  0.4587820000000 1.0
C      1  0.5736770000000  0.4359780000000  0.5128500000000 1.0
C      1  0.5519610000000  0.4132530000000  0.4779790000000 1.0
C      1  0.5579090000000  0.4952090000000  0.5532100000000 1.0
C      1  0.4880960000000  0.4415610000000  0.5253570000000 1.0
C      1  0.5791700000000  0.5058630000000  0.4768790000000 1.0
C      1  0.4245160000000  0.5231380000000  0.4239350000000 1.0
C      1  0.5387880000000  0.4934950000000  0.4293600000000 1.0
C      1  0.4164250000000  0.5660560000000  0.4883480000000 1.0
C      1  0.4282480000000  0.5553730000000  0.4637130000000 1.0
C      1  0.3894560000000  0.4901020000000  0.4782720000000 1.0
C      1  0.5165610000000  0.5120110000000  0.5462450000000 1.0
C      1  0.3994830000000  0.5525920000000  0.5420610000000 1.0
C      1  0.5585760000000  0.5452210000000  0.5018560000000 1.0
C      1  0.5304020000000  0.4233260000000  0.5719840000000 1.0
C      1  0.4662680000000  0.4876680000000  0.5165910000000 1.0
C      1  0.5449890000000  0.5242720000000  0.5138600000000 1.0
C      1  0.5163890000000  0.4665490000000  0.5986360000000 1.0
C      1  0.3982820000000  0.4659950000000  0.4642640000000 1.0
C      1  0.4657480000000  0.5259070000000  0.4765420000000 1.0
C      1  0.4680900000000  0.4102280000000  0.4447630000000 1.0
C      1  0.4886830000000  0.5053620000000  0.6065220000000 1.0
C      1  0.6116160000000  0.5557920000000  0.4913200000000 1.0
C      1  0.5498940000000  0.4808720000000  0.4036830000000 1.0
C      1  0.5042530000000  0.4710810000000  0.3891960000000 1.0
C      1  0.6044440000000  0.5048420000000  0.5560220000000 1.0
C      1  0.4914120000000  0.5091970000000  0.5521290000000 1.0
C      1  0.5530370000000  0.5963090000000  0.4618930000000 1.0
C      1  0.4838880000000  0.5952090000000  0.4834840000000 1.0
C      1  0.4166380000000  0.4097950000000  0.5015690000000 1.0
C      1  0.5125950000000  0.5407870000000  0.3912030000000 1.0
C      1  0.5162140000000  0.4415760000000  0.5526030000000 1.0
C      1  0.5827960000000  0.5869620000000  0.5241570000000 1.0
C      1  0.4732220000000  0.5884540000000  0.5247400000000 1.0
C      1  0.4872300000000  0.5534760000000  0.3942260000000 1.0
C      1  0.4310970000000  0.5231190000000  0.5770180000000 1.0
C      1  0.4970330000000  0.4057090000000  0.4418580000000 1.0
C      1  0.5466500000000  0.4505010000000  0.4409610000000 1.0
C      1  0.5267130000000  0.4891740000000  0.3852020000000 1.0
C      1  0.4378780000000  0.4998790000000  0.4155810000000 1.0
C      1  0.5043340000000  0.4183140000000  0.5862520000000 1.0
C      1  0.5131750000000  0.6022300000000  0.5248010000000 1.0
C      1  0.4988450000000  0.4427950000000  0.6025020000000 1.0
C      1  0.4795890000000  0.5643900000000  0.5893980000000 1.0
C      1  0.5599380000000  0.5653560000000  0.5732280000000 1.0
C      1  0.5106150000000  0.5347000000000  0.4210620000000 1.0
C      1  0.4702740000000  0.4306690000000  0.4232100000000 1.0
C      1  0.5297290000000  0.4855740000000  0.5507510000000 1.0
C      1  0.4815830000000  0.3906300000000  0.4771850000000 1.0
C      1  0.4476280000000  0.5047380000000  0.4702090000000 1.0
C      1  0.5810200000000  0.5490390000000  0.5619010000000 1.0
C      1  0.6003880000000  0.4824610000000  0.5183960000000 1.0
C      1  0.5240650000000  0.5848360000000  0.5837050000000 1.0
C      1  0.4490080000000  0.4053600000000  0.5294080000000 1.0
C      1  0.5520480000000  0.4964990000000  0.5081250000000 1.0
C      1  0.4803550000000  0.4082580000000  0.5724300000000 1.0
C      1  0.5457170000000  0.4501520000000  0.5090950000000 1.0
C      1  0.5652070000000  0.5014200000000  0.5813440000000 1.0
C      1  0.5458100000000  0.5899130000000  0.5642260000000 1.0
C      1  0.4576660000000  0.5524140000000  0.4807710000000 1.0
C      1  0.3983730000000  0.4397390000000  0.4786760000000 1.0
C      1  0.6023790000000  0.4656570000000  0.4637730000000 1.0
C      1  0.5611400000000  0.4272580000000  0.4386780000000 1.0
C      1  0.5609640000000  0.4706130000000  0.4590800000000 1.0
C      1  0.4480170000000  0.4917540000000  0.5372420000000 1.0
C      1  0.5706110000000  0.4892040000000  0.5285970000000 1.0
C      1  0.5925510000000  0.4310490000000  0.4948310000000 1.0
C      1  0.4212810000000  0.5479520000000  0.5802340000000 1.0
C      1  0.5786670000000  0.5824710000000  0.4599360000000 1.0
C      1  0.5858420000000  0.5214310000000  0.5703350000000 1.0
C      1  0.5953610000000  0.4831720000000  0.4855210000000 1.0
C      1  0.4957600000000  0.5258450000000  0.4837800000000 1.0
C      1  0.5330600000000  0.5987300000000  0.4401780000000 1.0
C      1  0.4569850000000  0.5942530000000  0.4389290000000 1.0
C      1  0.5108490000000  0.5996660000000  0.4963890000000 1.0
C      1  0.5849740000000  0.5378040000000  0.4474170000000 1.0
C      1  0.5406150000000  0.6004740000000  0.5369730000000 1.0
C      1  0.5554730000000  0.5433390000000  0.4554210000000 1.0
C      1  0.4142410000000  0.4815210000000  0.5719460000000 1.0
C      1  0.4736150000000  0.5465170000000  0.5257430000000 1.0
C      1  0.5105960000000  0.4769150000000  0.5724100000000 1.0
C      1  0.4442410000000  0.4334200000000  0.5205760000000 1.0
C      1  0.3837160000000  0.4782660000000  0.5050560000000 1.0
C      1  0.4863900000000  0.5665530000000  0.4737100000000 1.0
C      1  0.5725990000000  0.5056580000000  0.4080920000000 1.0
C      1  0.5680450000000  0.4271190000000  0.5540900000000 1.0
C      1  0.5402050000000  0.5580580000000  0.4836240000000 1.0
C      1  0.5089100000000  0.4249280000000  0.5124610000000 1.0
C      1  0.5037990000000  0.6026290000000  0.4353770000000 1.0
C      1  0.5851540000000  0.4809810000000  0.4447750000000 1.0
C      1  0.4666740000000  0.5484070000000  0.4397590000000 1.0
C      1  0.4296740000000  0.5808620000000  0.5097300000000 1.0
C      1  0.4566080000000  0.4851390000000  0.5626520000000 1.0
C      1  0.4195480000000  0.5722730000000  0.5371970000000 1.0
C      1  0.5011550000000  0.5536740000000  0.5195720000000 1.0
C      1  0.4899030000000  0.4731930000000  0.5229070000000 1.0
C      1  0.4273810000000  0.5291100000000  0.5129900000000 1.0
C      1  0.4681260000000  0.4852810000000  0.6015570000000 1.0
C      1  0.4887830000000  0.5318340000000  0.5670670000000 1.0
C      1  0.4931840000000  0.5343280000000  0.5967780000000 1.0
C      1  0.5065990000000  0.5135820000000  0.4630890000000 1.0
C      1  0.4672270000000  0.4357250000000  0.5737720000000 1.0
C      1  0.5039890000000  0.5091570000000  0.5026820000000 1.0
C      1  0.4757490000000  0.4418560000000  0.4806770000000 1.0
C      1  0.5254260000000  0.5350270000000  0.5995010000000 1.0
C      1  0.4329080000000  0.4690210000000  0.4895860000000 1.0
C      1  0.4898230000000  0.4669220000000  0.4744990000000 1.0
C      1  0.4961210000000  0.5817530000000  0.5400940000000 1.0
C      1  0.5242490000000  0.4009400000000  0.5202690000000 1.0
C      1  0.4877970000000  0.4427440000000  0.5533340000000 1.0
C      1  0.5628840000000  0.4457460000000  0.5733050000000 1.0
C      1  0.4627660000000  0.5386000000000  0.3947990000000 1.0
C      1  0.5182850000000  0.5263050000000  0.5225870000000 1.0
C      1  0.4171790000000  0.4185160000000  0.5526670000000 1.0
C      1  0.4211200000000  0.4206880000000  0.4768340000000 1.0
C      1  0.4740030000000  0.4567370000000  0.5984800000000 1.0
C      1  0.5400950000000  0.5886310000000  0.4890080000000 1.0
C      1  0.5822100000000  0.5280240000000  0.4934390000000 1.0
C      1  0.4859340000000  0.5063640000000  0.4451460000000 1.0
C      1  0.4192660000000  0.4012870000000  0.5297030000000 1.0
C      1  0.4435220000000  0.5666500000000  0.4349810000000 1.0
C      1  0.5971750000000  0.5597280000000  0.4628110000000 1.0
C      1  0.5451900000000  0.4808250000000  0.4827030000000 1.0
C      1  0.5088690000000  0.5545300000000  0.4903740000000 1.0
C      1  0.5896450000000  0.4354390000000  0.5351410000000 1.0
C      1  0.4239680000000  0.4513960000000  0.5107840000000 1.0
C      1  0.5082400000000  0.3983660000000  0.4692460000000 1.0
C      1  0.5530890000000  0.5253870000000  0.3986860000000 1.0
C      1  0.5991250000000  0.4759090000000  0.5625140000000 1.0
C      1  0.5864410000000  0.5097790000000  0.4330490000000 1.0
C      1  0.4940460000000  0.5579790000000  0.4403390000000 1.0
C      1  0.5764160000000  0.4696310000000  0.5799700000000 1.0
C      1  0.4384150000000  0.5453800000000  0.4109090000000 1.0
C      1  0.4796260000000  0.6046670000000  0.4524870000000 1.0
C      1  0.3794950000000  0.4936220000000  0.5298300000000 1.0
C      1  0.5388420000000  0.5102480000000  0.5991550000000 1.0
C      1  0.4895320000000  0.4727300000000  0.4457190000000 1.0
C      1  0.5298050000000  0.5180550000000  0.3821740000000 1.0
C      1  0.4628080000000  0.4580720000000  0.4288390000000 1.0
C      1  0.4268850000000  0.4712400000000  0.4605480000000 1.0
C      1  0.4336680000000  0.4333910000000  0.5693870000000 1.0
C      1  0.3989010000000  0.5177040000000  0.4726820000000 1.0
C      1  0.4041920000000  0.5313790000000  0.5655690000000 1.0
C      1  0.4020420000000  0.4996850000000  0.5503000000000 1.0
C      1  0.3828810000000  0.5428990000000  0.5203460000000 1.0
C      1  0.6129620000000  0.5085210000000  0.5279390000000 1.0
C      1  0.5125020000000  0.4827250000000  0.4293130000000 1.0
C      1  0.5377150000000  0.5286600000000  0.4235180000000 1.0
C      1  0.4784550000000  0.5127890000000  0.3942120000000 1.0
C      1  0.4621110000000  0.5195460000000  0.4484960000000 1.0
C      1  0.4027150000000  0.5398100000000  0.4965900000000 1.0
C      1  0.5388510000000  0.5602860000000  0.5931460000000 1.0
C      1  0.4293900000000  0.5704700000000  0.5647990000000 1.0
C      1  0.3950490000000  0.4511510000000  0.5057980000000 1.0
C      1  0.5496170000000  0.5536190000000  0.4281110000000 1.0
C      1  0.5064310000000  0.4279730000000  0.4842580000000 1.0
C      1  0.4984660000000  0.4270300000000  0.4199230000000 1.0
C      1  0.6025380000000  0.4604670000000  0.5388310000000 1.0
C      1  0.5570790000000  0.5960100000000  0.5149110000000 1.0
C      1  0.4854800000000  0.4825530000000  0.5582980000000 1.0
C      1  0.5031730000000  0.5773290000000  0.4190860000000 1.0
C      1  0.5336810000000  0.5772530000000  0.4210430000000 1.0
C      1  0.4519700000000  0.5436910000000  0.5081040000000 1.0
C      1  0.4971040000000  0.5095350000000  0.4191630000000 1.0
C      1  0.4743820000000  0.3967500000000  0.5444470000000 1.0
C      1  0.4537070000000  0.4863620000000  0.4905620000000 1.0
C      1  0.4578940000000  0.5678570000000  0.5704190000000 1.0
C      1  0.6084630000000  0.5278020000000  0.5066920000000 1.0
C      1  0.5320830000000  0.5025620000000  0.4687520000000 1.0
C      1  0.4241960000000  0.5072080000000  0.5310210000000 1.0
C      1  0.4972190000000  0.5804130000000  0.5735550000000 1.0
C      1  0.5144620000000  0.4472700000000  0.4048850000000 1.0
C      1  0.5307240000000  0.4574070000000  0.5328580000000 1.0
C      1  0.4178740000000  0.4552870000000  0.5683980000000 1.0
C      1  0.3650620000000  0.5193440000000  0.5253950000000 1.0
C      1  0.5017790000000  0.4809060000000  0.4975420000000 1.0
C      1  0.4565420000000  0.5930010000000  0.5056430000000 1.0
C      1  0.5771850000000  0.4161390000000  0.4585850000000 1.0
C      1  0.5922480000000  0.5646990000000  0.5399850000000 1.0
C      1  0.4674300000000  0.4401560000000  0.5078400000000 1.0
C      1  0.5351960000000  0.4373200000000  0.4840060000000 1.0
C      1  0.5871060000000  0.5627680000000  0.5127630000000 1.0
C      1  0.5335590000000  0.3960650000000  0.4915020000000 1.0
C      1  0.4395290000000  0.4958450000000  0.5836860000000 1.0
C      1  0.4815920000000  0.3873660000000  0.5038610000000 1.0
C      1  0.5436660000000  0.4066590000000  0.5486010000000 1.0
C      1  0.5988640000000  0.4350210000000  0.4683150000000 1.0
C      1  0.4949930000000  0.3873280000000  0.5270700000000 1.0
END
