TITL C-883741-3679-229 -6.77435322804009 125000 -3481.66979870997 0 0 25 (C1) n - 1
REM
REM in /home/nfs/bkarasulu/CARBON/AIRSS/Generating-Clusters/ReaxFF-fromJPCA2015/Units_Real/with-SteepDescent/Only-C1/SD-CG/Try1-3A/FIRE-CG
REM
REM
REM
REM
REM
REM ./C.cell (11c1c37f851c82e70ff6c80c92926a4b)
REM
REM compiler GCC version 9.2.1 20190827 (Red Hat 9.2.1-1)
REM options -cpp -mtune=generic -march=x86-64 -g -O0 -fpre-include=/usr/include/finclude/math-vector-fortran.h
REM seed 1707887328 686902878 -1461236052 -2048854563 649619061 1006335511 -366499938 794997744 1183581731 1903186766 -1107586500 1191768853 -2099007625 1105427540 1161672038 326994683 1689575669 -1440324687 1222474380 -1355207896 -896095135 688931975 -973568900 2022299648 -1669878572 -53700760 -1812132957 -2142120395 1615558905 1297010183 -2131362699 1921276803 -1893625034
REM
CELL 1.54180   50.00000   50.00000   50.00000   90.00000   90.00000   90.00000
LATT -1
SFAC C  
C      1  0.5119680000000  0.5143240000000  0.4834420000000 1.0
C      1  0.5242880000000  0.5037480000000  0.5408850000000 1.0
C      1  0.5314600000000  0.4915560000000  0.4567010000000 1.0
C      1  0.4867240000000  0.5275710000000  0.4537830000000 1.0
C      1  0.4862880000000  0.5083350000000  0.4960120000000 1.0
C      1  0.4749260000000  0.4818700000000  0.5050160000000 1.0
C      1  0.4507540000000  0.4935970000000  0.4809340000000 1.0
C      1  0.5461750000000  0.4921190000000  0.5069940000000 1.0
C      1  0.5349580000000  0.5176730000000  0.5169740000000 1.0
C      1  0.5034220000000  0.4406960000000  0.5216880000000 1.0
C      1  0.5151070000000  0.5137940000000  0.4537010000000 1.0
C      1  0.4895010000000  0.5470810000000  0.4748010000000 1.0
C      1  0.4964750000000  0.5521690000000  0.5017250000000 1.0
C      1  0.4738750000000  0.4904210000000  0.5342090000000 1.0
C      1  0.5222350000000  0.5374100000000  0.4991420000000 1.0
C      1  0.5270960000000  0.4518170000000  0.5356770000000 1.0
C      1  0.4256310000000  0.4944750000000  0.4872030000000 1.0
C      1  0.4959020000000  0.5022660000000  0.5491570000000 1.0
C      1  0.5388200000000  0.4791580000000  0.5325340000000 1.0
C      1  0.4741940000000  0.5190770000000  0.5382090000000 1.0
C      1  0.5409330000000  0.4789850000000  0.4804440000000 1.0
C      1  0.4771090000000  0.5315170000000  0.5116260000000 1.0
C      1  0.4638650000000  0.5109020000000  0.4601780000000 1.0
C      1  0.4928960000000  0.4573760000000  0.4986960000000 1.0
C      1  0.5153970000000  0.4620630000000  0.4802680000000 1.0
END
