TITL C-884128-4793-323 0.358079663379556 125000 -3112.53825604544 0 0 23 (C1) n - 1
REM
REM in /home/nfs/bkarasulu/CARBON/AIRSS/Generating-Clusters/ReaxFF-fromJPCA2015/Units_Real/with-SteepDescent/Only-C1/SD-CG/Try1-3A/FIRE-CG
REM
REM
REM
REM
REM
REM ./C.cell (11c1c37f851c82e70ff6c80c92926a4b)
REM
REM compiler GCC version 9.2.1 20190827 (Red Hat 9.2.1-1)
REM options -cpp -mtune=generic -march=x86-64 -g -O0 -fpre-include=/usr/include/finclude/math-vector-fortran.h
REM seed 859386494 841003890 -784907100 -947225237 -617298255 1659524058 -1637832235 -318823694 1970480483 41726870 1143815555 829688091 2059607905 -745518614 -459439873 291729081 -948445244 1132691052 -346151894 319743267 -1349798462 -1229100698 1347124401 1025410893 -1591776060 -897839733 -1985055077 330926444 -693510611 850847827 -996801686 1332462016 -2106530395
REM
CELL 1.54180   50.00000   50.00000   50.00000   90.00000   90.00000   90.00000
LATT -1
SFAC C  
C      1  0.4983460000000  0.4408320000000  0.4934880000000 1.0
C      1  0.5034400000000  0.4729180000000  0.4956160000000 1.0
C      1  0.5154770000000  0.5235420000000  0.5556930000000 1.0
C      1  0.5332480000000  0.4813070000000  0.5043250000000 1.0
C      1  0.5476490000000  0.5031530000000  0.4913560000000 1.0
C      1  0.5012240000000  0.5542420000000  0.4850250000000 1.0
C      1  0.4767280000000  0.5134820000000  0.4990070000000 1.0
C      1  0.5399240000000  0.4859720000000  0.5334700000000 1.0
C      1  0.4743250000000  0.4892250000000  0.5394530000000 1.0
C      1  0.5025450000000  0.4927490000000  0.4449510000000 1.0
C      1  0.4436020000000  0.4812440000000  0.5505130000000 1.0
C      1  0.4743020000000  0.5372010000000  0.4868530000000 1.0
C      1  0.4800780000000  0.4901040000000  0.5101550000000 1.0
C      1  0.4958640000000  0.4417320000000  0.4642080000000 1.0
C      1  0.5409980000000  0.5277930000000  0.5095720000000 1.0
C      1  0.4900920000000  0.5072910000000  0.5554630000000 1.0
C      1  0.4833440000000  0.5038240000000  0.4242480000000 1.0
C      1  0.4975800000000  0.5229740000000  0.4428290000000 1.0
C      1  0.5370970000000  0.5156870000000  0.5368380000000 1.0
C      1  0.4995290000000  0.4726330000000  0.4658870000000 1.0
C      1  0.5215740000000  0.5424550000000  0.4976410000000 1.0
C      1  0.4555610000000  0.4565550000000  0.5520710000000 1.0
C      1  0.4874750000000  0.5430860000000  0.4613390000000 1.0
END
