TITL C-884130-5973-120 0.4474226323131 125000 -3789.12930665183 0 0 27 (C1) n - 1
REM
REM in /home/nfs/bkarasulu/CARBON/AIRSS/Generating-Clusters/ReaxFF-fromJPCA2015/Units_Real/with-SteepDescent/Only-C1/SD-CG/Try1-3A/FIRE-CG
REM
REM
REM
REM
REM
REM ./C.cell (11c1c37f851c82e70ff6c80c92926a4b)
REM
REM compiler GCC version 9.2.1 20190827 (Red Hat 9.2.1-1)
REM options -cpp -mtune=generic -march=x86-64 -g -O0 -fpre-include=/usr/include/finclude/math-vector-fortran.h
REM seed 1857015394 1536999996 1127612259 -615415831 -1818670666 -2146663735 -522364278 -1103458185 -1402719144 1575240066 -115536305 -1635221459 1703699804 -794193615 1803487555 753573597 1448009132 -1316019477 774868403 -1752138558 1528287570 91629931 -36582443 -584322661 237157080 1347655421 935370399 473936170 -1434018394 1358103026 1454647778 -1114259051 -549141891
REM
CELL 1.54180   50.00000   50.00000   50.00000   90.00000   90.00000   90.00000
LATT -1
SFAC C  
C      1  0.5329010000000  0.5424840000000  0.4985780000000 1.0
C      1  0.5425080000000  0.4575830000000  0.4936970000000 1.0
C      1  0.4544210000000  0.5131670000000  0.4795130000000 1.0
C      1  0.4942310000000  0.5252650000000  0.5549390000000 1.0
C      1  0.4849440000000  0.5060560000000  0.5190970000000 1.0
C      1  0.4670570000000  0.5561690000000  0.5000270000000 1.0
C      1  0.5476460000000  0.5182440000000  0.4929790000000 1.0
C      1  0.4597610000000  0.4668560000000  0.4996440000000 1.0
C      1  0.5032420000000  0.4899060000000  0.4718170000000 1.0
C      1  0.4573610000000  0.5392690000000  0.4872430000000 1.0
C      1  0.4752400000000  0.4955190000000  0.4933180000000 1.0
C      1  0.4672140000000  0.4968100000000  0.4357030000000 1.0
C      1  0.5254890000000  0.5072900000000  0.4793790000000 1.0
C      1  0.5199830000000  0.4428040000000  0.4872550000000 1.0
C      1  0.4884360000000  0.5602520000000  0.5179410000000 1.0
C      1  0.5227500000000  0.4659920000000  0.4732350000000 1.0
C      1  0.4804140000000  0.4509470000000  0.5083590000000 1.0
C      1  0.5079760000000  0.4444330000000  0.5130470000000 1.0
C      1  0.5204990000000  0.4672210000000  0.5279190000000 1.0
C      1  0.4950970000000  0.4923730000000  0.4409920000000 1.0
C      1  0.5135000000000  0.5547460000000  0.5076040000000 1.0
C      1  0.4435400000000  0.5060500000000  0.4524210000000 1.0
C      1  0.5057220000000  0.5039250000000  0.5613050000000 1.0
C      1  0.4814020000000  0.5330780000000  0.5310460000000 1.0
C      1  0.5592910000000  0.5005700000000  0.5159840000000 1.0
C      1  0.5018170000000  0.4885810000000  0.5375760000000 1.0
C      1  0.5475580000000  0.4744100000000  0.5193810000000 1.0
END
