TITL C-884141-4321-323 -3.07120440410607 125000 -11448.7173372557 0 0 78 (C1) n - 1
REM
REM in /home/nfs/bkarasulu/CARBON/AIRSS/Generating-Clusters/ReaxFF-fromJPCA2015/Units_Real/with-SteepDescent/Only-C1/SD-CG/Try1-3A/FIRE-CG
REM
REM
REM
REM
REM
REM ./C.cell (11c1c37f851c82e70ff6c80c92926a4b)
REM
REM compiler GCC version 9.2.1 20190827 (Red Hat 9.2.1-1)
REM options -cpp -mtune=generic -march=x86-64 -g -O0 -fpre-include=/usr/include/finclude/math-vector-fortran.h
REM seed 1394212132 -1152934289 999129183 2082679108 -1143364795 689905209 1908510309 -1684470714 15497651 423706436 1008071519 -991644625 1932299164 1765316196 383742714 -564991708 1939683427 1133517939 -1281322371 -114657905 824330219 669887301 1404073125 1729954997 -1353278845 318926973 1058647715 375685746 1056242456 -1681634579 1964710441 -1421760159 -918009143
REM
CELL 1.54180   50.00000   50.00000   50.00000   90.00000   90.00000   90.00000
LATT -1
SFAC C  
C      1  0.5324780000000  0.4724570000000  0.5736460000000 1.0
C      1  0.4781830000000  0.4858890000000  0.5087610000000 1.0
C      1  0.5043600000000  0.5661210000000  0.4514190000000 1.0
C      1  0.5096780000000  0.4858030000000  0.5830900000000 1.0
C      1  0.4192160000000  0.4803700000000  0.5065700000000 1.0
C      1  0.5382870000000  0.4986520000000  0.4435060000000 1.0
C      1  0.5682140000000  0.5295840000000  0.4710000000000 1.0
C      1  0.5244340000000  0.5425960000000  0.5551130000000 1.0
C      1  0.5054900000000  0.5237660000000  0.5674020000000 1.0
C      1  0.4313880000000  0.4639860000000  0.5290880000000 1.0
C      1  0.4903480000000  0.5883060000000  0.4997000000000 1.0
C      1  0.4383280000000  0.5103080000000  0.5890260000000 1.0
C      1  0.5432210000000  0.4429000000000  0.5702540000000 1.0
C      1  0.5272830000000  0.4337130000000  0.4716400000000 1.0
C      1  0.5271130000000  0.4803220000000  0.5461750000000 1.0
C      1  0.5628210000000  0.4412850000000  0.5088620000000 1.0
C      1  0.5089950000000  0.4974920000000  0.4410550000000 1.0
C      1  0.4432540000000  0.4724350000000  0.5545560000000 1.0
C      1  0.5000390000000  0.4672370000000  0.5105290000000 1.0
C      1  0.4350390000000  0.4728990000000  0.4435150000000 1.0
C      1  0.5290950000000  0.5596050000000  0.4901290000000 1.0
C      1  0.4383370000000  0.5461310000000  0.4810110000000 1.0
C      1  0.4951070000000  0.4129590000000  0.5241570000000 1.0
C      1  0.5048070000000  0.4760590000000  0.4193790000000 1.0
C      1  0.4373420000000  0.5268300000000  0.4585210000000 1.0
C      1  0.5469220000000  0.4306170000000  0.5451730000000 1.0
C      1  0.4498070000000  0.4989680000000  0.4537300000000 1.0
C      1  0.4797980000000  0.4862150000000  0.4157480000000 1.0
C      1  0.5328660000000  0.5866780000000  0.5000120000000 1.0
C      1  0.5190130000000  0.4550480000000  0.4357640000000 1.0
C      1  0.4555530000000  0.5005880000000  0.5701000000000 1.0
C      1  0.4712430000000  0.4868070000000  0.4794980000000 1.0
C      1  0.4575970000000  0.5686710000000  0.4813710000000 1.0
C      1  0.5776270000000  0.5058360000000  0.4813390000000 1.0
C      1  0.5732480000000  0.5015240000000  0.5232420000000 1.0
C      1  0.5699250000000  0.5304770000000  0.5238780000000 1.0
C      1  0.5253700000000  0.5460360000000  0.4437150000000 1.0
C      1  0.4863530000000  0.5731670000000  0.4739870000000 1.0
C      1  0.4632420000000  0.5062800000000  0.4265200000000 1.0
C      1  0.4895110000000  0.5049300000000  0.5782310000000 1.0
C      1  0.5155490000000  0.5678810000000  0.5423710000000 1.0
C      1  0.4835960000000  0.4226520000000  0.5444790000000 1.0
C      1  0.5239840000000  0.4190030000000  0.4969750000000 1.0
C      1  0.4434560000000  0.5415000000000  0.5319650000000 1.0
C      1  0.5705950000000  0.5443950000000  0.4972980000000 1.0
C      1  0.5121420000000  0.5872980000000  0.5212790000000 1.0
C      1  0.4280790000000  0.5340320000000  0.5066980000000 1.0
C      1  0.5473510000000  0.4210220000000  0.5181600000000 1.0
C      1  0.5713120000000  0.4583610000000  0.4899590000000 1.0
C      1  0.5444780000000  0.5255010000000  0.4524290000000 1.0
C      1  0.4741520000000  0.4408820000000  0.4612710000000 1.0
C      1  0.5142970000000  0.5362120000000  0.5014050000000 1.0
C      1  0.4537100000000  0.4512970000000  0.4453430000000 1.0
C      1  0.4231660000000  0.5070960000000  0.5062610000000 1.0
C      1  0.5416630000000  0.5010100000000  0.5304090000000 1.0
C      1  0.4731860000000  0.5356090000000  0.4252700000000 1.0
C      1  0.5822670000000  0.4864350000000  0.4996940000000 1.0
C      1  0.4390400000000  0.4570090000000  0.5013760000000 1.0
C      1  0.5158230000000  0.4868490000000  0.4909870000000 1.0
C      1  0.4880960000000  0.5366010000000  0.5144090000000 1.0
C      1  0.4987420000000  0.4914150000000  0.4682410000000 1.0
C      1  0.4614830000000  0.4527920000000  0.5571260000000 1.0
C      1  0.4999800000000  0.5485310000000  0.4288500000000 1.0
C      1  0.4889150000000  0.4489940000000  0.5541260000000 1.0
C      1  0.4531410000000  0.5429150000000  0.4429140000000 1.0
C      1  0.4624920000000  0.4566280000000  0.4840680000000 1.0
C      1  0.4678860000000  0.5560070000000  0.5246320000000 1.0
C      1  0.4780330000000  0.5108620000000  0.5242130000000 1.0
C      1  0.5563950000000  0.5694780000000  0.4938500000000 1.0
C      1  0.5011110000000  0.4329480000000  0.5077320000000 1.0
C      1  0.5025300000000  0.4705540000000  0.5375470000000 1.0
C      1  0.5476250000000  0.5283170000000  0.5429320000000 1.0
C      1  0.5040410000000  0.4392480000000  0.4548420000000 1.0
C      1  0.4633680000000  0.5803210000000  0.5081330000000 1.0
C      1  0.5505590000000  0.4529920000000  0.4690340000000 1.0
C      1  0.5430400000000  0.4692010000000  0.4463710000000 1.0
C      1  0.5263940000000  0.5095180000000  0.5039240000000 1.0
C      1  0.4573890000000  0.5190850000000  0.5430180000000 1.0
END
