TITL C-884138-6203-64 49.8504031266949 125000 -15609.7242439578 0 0 107 (C1) n - 1
REM
REM in /home/nfs/bkarasulu/CARBON/AIRSS/Generating-Clusters/ReaxFF-fromJPCA2015/Units_Real/with-SteepDescent/Only-C1/SD-CG/Try1-3A/FIRE-CG
REM
REM
REM
REM
REM
REM ./C.cell (11c1c37f851c82e70ff6c80c92926a4b)
REM
REM compiler GCC version 9.2.1 20190827 (Red Hat 9.2.1-1)
REM options -cpp -mtune=generic -march=x86-64 -g -O0 -fpre-include=/usr/include/finclude/math-vector-fortran.h
REM seed 931899751 -1984332537 979212096 -278302133 -693011507 -565377291 -133005707 -2135958118 -1112034882 -1428293947 1455804276 -301776455 -305798632 -2136145838 563155875 -1113528693 1477747089 2022470994 -829596278 -597912547 -852788278 -1835607057 196736800 -1310595546 1364429388 -2129137374 -1555248252 1628067214 -2032358938 -1926775943 -288937406 1088460146 319712435
REM
CELL 1.54180   50.00000   50.00000   50.00000   90.00000   90.00000   90.00000
LATT -1
SFAC C  
C      1  0.5168350000000  0.4785720000000  0.5833180000000 1.0
C      1  0.4411680000000  0.4855360000000  0.4254180000000 1.0
C      1  0.5283290000000  0.4094660000000  0.5077440000000 1.0
C      1  0.4401330000000  0.5223810000000  0.5467500000000 1.0
C      1  0.4542090000000  0.5338960000000  0.5697390000000 1.0
C      1  0.4981240000000  0.5241810000000  0.4994270000000 1.0
C      1  0.4801090000000  0.4135100000000  0.4708930000000 1.0
C      1  0.5038000000000  0.5232240000000  0.4211760000000 1.0
C      1  0.5032560000000  0.5553190000000  0.5689420000000 1.0
C      1  0.4614620000000  0.4323600000000  0.5056680000000 1.0
C      1  0.4377030000000  0.5252520000000  0.4366670000000 1.0
C      1  0.5766970000000  0.4915110000000  0.4919710000000 1.0
C      1  0.4930560000000  0.5682430000000  0.4284020000000 1.0
C      1  0.5388290000000  0.5655660000000  0.4656860000000 1.0
C      1  0.5113320000000  0.4298830000000  0.4471220000000 1.0
C      1  0.5166200000000  0.5458350000000  0.4637360000000 1.0
C      1  0.4870040000000  0.5079400000000  0.4162630000000 1.0
C      1  0.5495340000000  0.4905920000000  0.4349280000000 1.0
C      1  0.5558590000000  0.4685390000000  0.4671880000000 1.0
C      1  0.5246920000000  0.5356670000000  0.5729050000000 1.0
C      1  0.4959060000000  0.4538010000000  0.4518500000000 1.0
C      1  0.4645300000000  0.5688820000000  0.5398020000000 1.0
C      1  0.5474770000000  0.5804840000000  0.5132770000000 1.0
C      1  0.4483510000000  0.5794960000000  0.4965160000000 1.0
C      1  0.5100350000000  0.5608810000000  0.5268970000000 1.0
C      1  0.4388880000000  0.5700960000000  0.4702190000000 1.0
C      1  0.4214760000000  0.4997960000000  0.4413340000000 1.0
C      1  0.4580830000000  0.4455400000000  0.5584030000000 1.0
C      1  0.5039530000000  0.4296830000000  0.5716890000000 1.0
C      1  0.5715550000000  0.4546380000000  0.5353830000000 1.0
C      1  0.4904190000000  0.5140470000000  0.5672260000000 1.0
C      1  0.4805460000000  0.4414240000000  0.5797570000000 1.0
C      1  0.5203050000000  0.5601360000000  0.4212500000000 1.0
C      1  0.5493160000000  0.5450430000000  0.5584190000000 1.0
C      1  0.4346190000000  0.5572420000000  0.4520580000000 1.0
C      1  0.4565580000000  0.5091460000000  0.4199320000000 1.0
C      1  0.5164430000000  0.4639420000000  0.5401160000000 1.0
C      1  0.5640750000000  0.4688420000000  0.5593190000000 1.0
C      1  0.5769740000000  0.5313350000000  0.4928630000000 1.0
C      1  0.5226850000000  0.5366550000000  0.5137690000000 1.0
C      1  0.5571330000000  0.4184250000000  0.5014610000000 1.0
C      1  0.5163600000000  0.5074330000000  0.5795340000000 1.0
C      1  0.5752930000000  0.4625380000000  0.4857830000000 1.0
C      1  0.5485260000000  0.5386570000000  0.4952930000000 1.0
C      1  0.4226130000000  0.4605930000000  0.4726170000000 1.0
C      1  0.4855880000000  0.4715970000000  0.4954560000000 1.0
C      1  0.4365220000000  0.4569260000000  0.5016250000000 1.0
C      1  0.4820490000000  0.5247870000000  0.4578680000000 1.0
C      1  0.4129960000000  0.5029830000000  0.4926830000000 1.0
C      1  0.4997630000000  0.4825750000000  0.4184600000000 1.0
C      1  0.5469840000000  0.5701690000000  0.5421160000000 1.0
C      1  0.5704710000000  0.5248880000000  0.5579720000000 1.0
C      1  0.4900310000000  0.4680390000000  0.5889180000000 1.0
C      1  0.5185320000000  0.4178550000000  0.5345920000000 1.0
C      1  0.4547060000000  0.4287430000000  0.5348940000000 1.0
C      1  0.5450240000000  0.5611150000000  0.4370350000000 1.0
C      1  0.4582970000000  0.4792070000000  0.4990850000000 1.0
C      1  0.5331510000000  0.4800500000000  0.4801300000000 1.0
C      1  0.5341580000000  0.4601260000000  0.5655320000000 1.0
C      1  0.5332420000000  0.4455920000000  0.4352850000000 1.0
C      1  0.4735190000000  0.5396690000000  0.5019930000000 1.0
C      1  0.5733270000000  0.4964330000000  0.5627240000000 1.0
C      1  0.5440350000000  0.4977060000000  0.4982440000000 1.0
C      1  0.5717250000000  0.4434600000000  0.5081360000000 1.0
C      1  0.4649120000000  0.4840980000000  0.5854520000000 1.0
C      1  0.5545460000000  0.5647750000000  0.4896890000000 1.0
C      1  0.4421700000000  0.5657940000000  0.5213210000000 1.0
C      1  0.4098900000000  0.4587300000000  0.5116490000000 1.0
C      1  0.5324960000000  0.5068320000000  0.5235230000000 1.0
C      1  0.5558380000000  0.4440290000000  0.4546970000000 1.0
C      1  0.4425810000000  0.5023270000000  0.4997520000000 1.0
C      1  0.5671460000000  0.5110940000000  0.4443860000000 1.0
C      1  0.5477580000000  0.4256710000000  0.4755340000000 1.0
C      1  0.4955620000000  0.5066400000000  0.4762340000000 1.0
C      1  0.4270600000000  0.5405690000000  0.5264100000000 1.0
C      1  0.4515820000000  0.4745650000000  0.5612890000000 1.0
C      1  0.4526650000000  0.4600290000000  0.4342320000000 1.0
C      1  0.5208640000000  0.4279020000000  0.4882370000000 1.0
C      1  0.4112530000000  0.5281560000000  0.5056040000000 1.0
C      1  0.5041250000000  0.4420920000000  0.5271690000000 1.0
C      1  0.5665750000000  0.5063360000000  0.5345110000000 1.0
C      1  0.4672490000000  0.5131490000000  0.5857420000000 1.0
C      1  0.4836310000000  0.5029250000000  0.5408490000000 1.0
C      1  0.5505010000000  0.5327930000000  0.4319220000000 1.0
C      1  0.4812840000000  0.4615600000000  0.4281060000000 1.0
C      1  0.4741320000000  0.5545040000000  0.5629950000000 1.0
C      1  0.5081770000000  0.4100790000000  0.4718060000000 1.0
C      1  0.4889950000000  0.4449430000000  0.5039120000000 1.0
C      1  0.5085410000000  0.4906040000000  0.5315440000000 1.0
C      1  0.5039900000000  0.4788980000000  0.4734040000000 1.0
C      1  0.4551450000000  0.4243190000000  0.4747170000000 1.0
C      1  0.5193460000000  0.5729840000000  0.5513080000000 1.0
C      1  0.4860810000000  0.5762560000000  0.5236320000000 1.0
C      1  0.5253310000000  0.5937850000000  0.5024110000000 1.0
C      1  0.4545390000000  0.4969750000000  0.5421760000000 1.0
C      1  0.4133370000000  0.4875480000000  0.4666260000000 1.0
C      1  0.5231120000000  0.5256920000000  0.4424310000000 1.0
C      1  0.4419220000000  0.4455230000000  0.4573580000000 1.0
C      1  0.4902370000000  0.5530570000000  0.4552590000000 1.0
C      1  0.5288140000000  0.4285080000000  0.5602370000000 1.0
C      1  0.4762540000000  0.5892640000000  0.5004460000000 1.0
C      1  0.4479450000000  0.5300280000000  0.4886410000000 1.0
C      1  0.5013050000000  0.5993450000000  0.4945170000000 1.0
C      1  0.5849830000000  0.5105350000000  0.5116740000000 1.0
C      1  0.5286240000000  0.4739940000000  0.4258100000000 1.0
C      1  0.5807600000000  0.5126120000000  0.4705840000000 1.0
C      1  0.4537520000000  0.5223380000000  0.4607470000000 1.0
END
