TITL C-883740-3686-151 55.1125113532015 125000 -21833.0864777686 0 0 149 (C1) n - 1
REM
REM in /home/nfs/bkarasulu/CARBON/AIRSS/Generating-Clusters/ReaxFF-fromJPCA2015/Units_Real/with-SteepDescent/Only-C1/SD-CG/Try1-3A/FIRE-CG
REM
REM
REM
REM
REM
REM ./C.cell (11c1c37f851c82e70ff6c80c92926a4b)
REM
REM compiler GCC version 9.2.1 20190827 (Red Hat 9.2.1-1)
REM options -cpp -mtune=generic -march=x86-64 -g -O0 -fpre-include=/usr/include/finclude/math-vector-fortran.h
REM seed -1224332300 438483253 -1780720694 1377885859 649696329 364237313 -383252605 -100040001 698533051 852991523 -1945700769 -2114145561 -1751837516 816413730 977422248 -1861779047 1961396359 1589525702 757544798 -1534521936 -647147875 980509209 1458021894 -1292534294 -1000475050 -2115963804 -502601512 927210572 -562425088 -1376384867 -490357931 -77610896 -949713690
REM
CELL 1.54180   50.00000   50.00000   50.00000   90.00000   90.00000   90.00000
LATT -1
SFAC C  
C      1  0.4764050000000  0.5898070000000  0.5516180000000 1.0
C      1  0.4656610000000  0.4924980000000  0.5790420000000 1.0
C      1  0.4423810000000  0.5040940000000  0.5908250000000 1.0
C      1  0.5033100000000  0.5509190000000  0.5363330000000 1.0
C      1  0.4495470000000  0.5199160000000  0.5381540000000 1.0
C      1  0.5160050000000  0.4069250000000  0.5498970000000 1.0
C      1  0.5366380000000  0.4353910000000  0.4900240000000 1.0
C      1  0.5587280000000  0.5172130000000  0.5885210000000 1.0
C      1  0.5373000000000  0.5908490000000  0.4978190000000 1.0
C      1  0.4672220000000  0.5065210000000  0.4574810000000 1.0
C      1  0.5014490000000  0.5964030000000  0.5625110000000 1.0
C      1  0.5087910000000  0.5549200000000  0.4775160000000 1.0
C      1  0.5548820000000  0.5266290000000  0.4344220000000 1.0
C      1  0.5086900000000  0.6014050000000  0.4590480000000 1.0
C      1  0.4874330000000  0.5127160000000  0.5003860000000 1.0
C      1  0.4914420000000  0.4846120000000  0.4998880000000 1.0
C      1  0.5147630000000  0.4316710000000  0.4347710000000 1.0
C      1  0.4623280000000  0.4214830000000  0.5493830000000 1.0
C      1  0.4215040000000  0.5044890000000  0.5480730000000 1.0
C      1  0.5438790000000  0.4735240000000  0.5449020000000 1.0
C      1  0.3968460000000  0.4988360000000  0.4812300000000 1.0
C      1  0.5648880000000  0.4835520000000  0.5263630000000 1.0
C      1  0.4397480000000  0.4612880000000  0.5648910000000 1.0
C      1  0.5636210000000  0.4332760000000  0.5075680000000 1.0
C      1  0.4458430000000  0.4905260000000  0.4664520000000 1.0
C      1  0.4663280000000  0.5260510000000  0.5135130000000 1.0
C      1  0.5690530000000  0.4592520000000  0.4249710000000 1.0
C      1  0.4765550000000  0.4090120000000  0.4671330000000 1.0
C      1  0.5812130000000  0.4799040000000  0.5645130000000 1.0
C      1  0.5984880000000  0.5152440000000  0.4460090000000 1.0
C      1  0.5149880000000  0.5915060000000  0.5146430000000 1.0
C      1  0.4719150000000  0.3983860000000  0.4943060000000 1.0
C      1  0.5931770000000  0.5224110000000  0.4977360000000 1.0
C      1  0.4561390000000  0.5496030000000  0.5687330000000 1.0
C      1  0.5811540000000  0.5438600000000  0.5459270000000 1.0
C      1  0.5490530000000  0.5692110000000  0.4492080000000 1.0
C      1  0.4940290000000  0.5625880000000  0.4281530000000 1.0
C      1  0.4454520000000  0.4650550000000  0.4466050000000 1.0
C      1  0.5651360000000  0.5411710000000  0.5716840000000 1.0
C      1  0.4857900000000  0.4853330000000  0.3976660000000 1.0
C      1  0.4908320000000  0.4269440000000  0.4216170000000 1.0
C      1  0.3875750000000  0.5131200000000  0.5063870000000 1.0
C      1  0.5407020000000  0.5512970000000  0.4273850000000 1.0
C      1  0.5767640000000  0.4526790000000  0.5526790000000 1.0
C      1  0.4223400000000  0.5012040000000  0.4356560000000 1.0
C      1  0.4547620000000  0.4580500000000  0.3994340000000 1.0
C      1  0.4275100000000  0.4340560000000  0.4783810000000 1.0
C      1  0.5610580000000  0.4883890000000  0.5849530000000 1.0
C      1  0.5886620000000  0.4963630000000  0.5417250000000 1.0
C      1  0.5102430000000  0.4968620000000  0.4014590000000 1.0
C      1  0.5260240000000  0.5117240000000  0.4755380000000 1.0
C      1  0.4609190000000  0.4415880000000  0.5706070000000 1.0
C      1  0.4653360000000  0.4508070000000  0.4287810000000 1.0
C      1  0.5250240000000  0.5807810000000  0.5630670000000 1.0
C      1  0.5915880000000  0.5215350000000  0.5278050000000 1.0
C      1  0.5145600000000  0.4759040000000  0.5128150000000 1.0
C      1  0.4442320000000  0.4215530000000  0.5255930000000 1.0
C      1  0.4106070000000  0.4589490000000  0.5096630000000 1.0
C      1  0.4628600000000  0.4216710000000  0.5056000000000 1.0
C      1  0.5179450000000  0.3933950000000  0.5038790000000 1.0
C      1  0.4866930000000  0.5934070000000  0.5031590000000 1.0
C      1  0.4912620000000  0.3932270000000  0.5157400000000 1.0
C      1  0.4850000000000  0.5582820000000  0.5616550000000 1.0
C      1  0.4589720000000  0.5573490000000  0.4730040000000 1.0
C      1  0.4853560000000  0.5652720000000  0.4917500000000 1.0
C      1  0.4179530000000  0.5110310000000  0.4637820000000 1.0
C      1  0.5240050000000  0.4102030000000  0.4803000000000 1.0
C      1  0.5367980000000  0.4574720000000  0.4278670000000 1.0
C      1  0.5527810000000  0.5501140000000  0.5044820000000 1.0
C      1  0.4998010000000  0.5502070000000  0.5867670000000 1.0
C      1  0.4509950000000  0.4783340000000  0.4905430000000 1.0
C      1  0.5298750000000  0.5808610000000  0.4701160000000 1.0
C      1  0.4183510000000  0.4716090000000  0.4400710000000 1.0
C      1  0.4259940000000  0.4874830000000  0.5722490000000 1.0
C      1  0.5126710000000  0.5094190000000  0.4500200000000 1.0
C      1  0.6002520000000  0.5055760000000  0.4747760000000 1.0
C      1  0.4843190000000  0.6053910000000  0.4740850000000 1.0
C      1  0.4024450000000  0.5365610000000  0.5008170000000 1.0
C      1  0.4446820000000  0.5083470000000  0.4175010000000 1.0
C      1  0.4095930000000  0.4544950000000  0.4633630000000 1.0
C      1  0.4934700000000  0.5924680000000  0.4359220000000 1.0
C      1  0.4515260000000  0.4225560000000  0.4679460000000 1.0
C      1  0.4735480000000  0.5323600000000  0.4632710000000 1.0
C      1  0.5277660000000  0.5567800000000  0.5812340000000 1.0
C      1  0.5129180000000  0.5303030000000  0.4948550000000 1.0
C      1  0.4890980000000  0.4937520000000  0.4449420000000 1.0
C      1  0.5479230000000  0.5054660000000  0.5118110000000 1.0
C      1  0.4831450000000  0.5498790000000  0.5159940000000 1.0
C      1  0.4238160000000  0.4330930000000  0.5082090000000 1.0
C      1  0.5065470000000  0.4750690000000  0.5991440000000 1.0
C      1  0.5916060000000  0.5426380000000  0.4459130000000 1.0
C      1  0.5398340000000  0.5328170000000  0.5736210000000 1.0
C      1  0.5295180000000  0.4267970000000  0.5676310000000 1.0
C      1  0.5101460000000  0.4852420000000  0.5618810000000 1.0
C      1  0.4185000000000  0.5409940000000  0.4793430000000 1.0
C      1  0.4575560000000  0.4876650000000  0.3983240000000 1.0
C      1  0.5758180000000  0.4537130000000  0.5232020000000 1.0
C      1  0.4420930000000  0.5492200000000  0.5436540000000 1.0
C      1  0.5609840000000  0.5787620000000  0.5109970000000 1.0
C      1  0.5771860000000  0.5107000000000  0.4242310000000 1.0
C      1  0.4646460000000  0.5549550000000  0.4238500000000 1.0
C      1  0.4545140000000  0.5707720000000  0.4460020000000 1.0
C      1  0.5063080000000  0.4309230000000  0.5810670000000 1.0
C      1  0.4856300000000  0.5281230000000  0.5992060000000 1.0
C      1  0.4883450000000  0.4652560000000  0.4417860000000 1.0
C      1  0.5719380000000  0.5393410000000  0.4837600000000 1.0
C      1  0.5059030000000  0.4150750000000  0.4581370000000 1.0
C      1  0.4728350000000  0.5064780000000  0.5550880000000 1.0
C      1  0.5342670000000  0.5309340000000  0.5170940000000 1.0
C      1  0.5329120000000  0.4889510000000  0.4935940000000 1.0
C      1  0.5747310000000  0.5606160000000  0.4595500000000 1.0
C      1  0.4645430000000  0.5885380000000  0.5254180000000 1.0
C      1  0.5642310000000  0.4861060000000  0.4124790000000 1.0
C      1  0.5360560000000  0.4801500000000  0.4084120000000 1.0
C      1  0.5145020000000  0.5466220000000  0.4135330000000 1.0
C      1  0.5002410000000  0.5383000000000  0.4540030000000 1.0
C      1  0.5600610000000  0.4905720000000  0.4619640000000 1.0
C      1  0.5341410000000  0.3968020000000  0.5278610000000 1.0
C      1  0.5736010000000  0.5680240000000  0.5335670000000 1.0
C      1  0.5861060000000  0.4801500000000  0.4685420000000 1.0
C      1  0.3977140000000  0.4699270000000  0.4848780000000 1.0
C      1  0.5883510000000  0.4585550000000  0.4467730000000 1.0
C      1  0.5154930000000  0.4434050000000  0.5128260000000 1.0
C      1  0.4023650000000  0.5078600000000  0.5301790000000 1.0
C      1  0.4899820000000  0.4504020000000  0.5835420000000 1.0
C      1  0.4961430000000  0.5010150000000  0.6039520000000 1.0
C      1  0.4497280000000  0.4677550000000  0.5376790000000 1.0
C      1  0.4938690000000  0.4612990000000  0.5587520000000 1.0
C      1  0.4979720000000  0.5234880000000  0.4081550000000 1.0
C      1  0.4666790000000  0.5274700000000  0.4150910000000 1.0
C      1  0.5364950000000  0.4775330000000  0.4515760000000 1.0
C      1  0.5477880000000  0.4492590000000  0.5581130000000 1.0
C      1  0.5616560000000  0.4074360000000  0.5220680000000 1.0
C      1  0.4356900000000  0.5594400000000  0.4933270000000 1.0
C      1  0.4439630000000  0.5682670000000  0.5212200000000 1.0
C      1  0.4564200000000  0.5309720000000  0.5912800000000 1.0
C      1  0.5320640000000  0.4844750000000  0.5885510000000 1.0
C      1  0.5537760000000  0.5190070000000  0.4645420000000 1.0
C      1  0.4765990000000  0.4585090000000  0.5352980000000 1.0
C      1  0.4679100000000  0.5965500000000  0.4505000000000 1.0
C      1  0.4827210000000  0.4421930000000  0.5116710000000 1.0
C      1  0.5203660000000  0.5728400000000  0.5354950000000 1.0
C      1  0.4875350000000  0.4059530000000  0.5416800000000 1.0
C      1  0.4760100000000  0.4642360000000  0.4893810000000 1.0
C      1  0.4965700000000  0.4607000000000  0.4685110000000 1.0
C      1  0.5218610000000  0.4896250000000  0.5379060000000 1.0
C      1  0.4346310000000  0.4756280000000  0.5137920000000 1.0
C      1  0.5255030000000  0.4620220000000  0.4737750000000 1.0
C      1  0.5005220000000  0.5076550000000  0.5494620000000 1.0
END
