TITL C-884136-4169-164 36.1003422312975 125000 -29480.4927854564 0 0 195 (C1) n - 1
REM
REM in /home/nfs/bkarasulu/CARBON/AIRSS/Generating-Clusters/ReaxFF-fromJPCA2015/Units_Real/with-SteepDescent/Only-C1/SD-CG/Try1-3A/FIRE-CG
REM
REM
REM
REM
REM
REM ./C.cell (11c1c37f851c82e70ff6c80c92926a4b)
REM
REM compiler GCC version 9.2.1 20190827 (Red Hat 9.2.1-1)
REM options -cpp -mtune=generic -march=x86-64 -g -O0 -fpre-include=/usr/include/finclude/math-vector-fortran.h
REM seed -2141948658 527144805 -38260491 -1604691869 1560062899 1344704756 1309823386 -23018754 -1306210302 1775264179 -483675629 -1095688770 -464334554 -2114380703 -2079908587 -943725663 928593962 -2106537977 -1487834071 -493808518 378165038 -658740937 1161497562 1729470509 1647014605 411601817 -44532274 182831236 1454939395 594528065 1869344964 1785316879 -1070737347
REM
CELL 1.54180   50.00000   50.00000   50.00000   90.00000   90.00000   90.00000
LATT -1
SFAC C  
C      1  0.4638580000000  0.5151230000000  0.5977430000000 1.0
C      1  0.3705610000000  0.5034470000000  0.4861970000000 1.0
C      1  0.5232650000000  0.5725030000000  0.4033230000000 1.0
C      1  0.5488970000000  0.4461040000000  0.4272990000000 1.0
C      1  0.5390330000000  0.4709700000000  0.5329040000000 1.0
C      1  0.3837070000000  0.5294580000000  0.4912050000000 1.0
C      1  0.5449810000000  0.4200100000000  0.5467000000000 1.0
C      1  0.4702620000000  0.3906680000000  0.4898320000000 1.0
C      1  0.4087150000000  0.5408430000000  0.5400290000000 1.0
C      1  0.4590860000000  0.4004180000000  0.4248620000000 1.0
C      1  0.4434970000000  0.5780860000000  0.5613480000000 1.0
C      1  0.6156920000000  0.5072060000000  0.4499660000000 1.0
C      1  0.4226090000000  0.4414840000000  0.5377540000000 1.0
C      1  0.5400710000000  0.4978320000000  0.4332100000000 1.0
C      1  0.5189250000000  0.5540050000000  0.4459800000000 1.0
C      1  0.5970930000000  0.5020840000000  0.4270850000000 1.0
C      1  0.3937680000000  0.5256960000000  0.5194940000000 1.0
C      1  0.5710110000000  0.5120770000000  0.5539960000000 1.0
C      1  0.5792060000000  0.5211790000000  0.4132530000000 1.0
C      1  0.5173870000000  0.4793080000000  0.3913740000000 1.0
C      1  0.5024340000000  0.5028350000000  0.5258350000000 1.0
C      1  0.5715660000000  0.5641120000000  0.4408950000000 1.0
C      1  0.6071380000000  0.4849690000000  0.4675390000000 1.0
C      1  0.4430790000000  0.5293310000000  0.4060460000000 1.0
C      1  0.4720290000000  0.5817920000000  0.5610890000000 1.0
C      1  0.4870940000000  0.3894620000000  0.4210660000000 1.0
C      1  0.5168010000000  0.4541750000000  0.6018920000000 1.0
C      1  0.6106810000000  0.5005530000000  0.5166110000000 1.0
C      1  0.5076260000000  0.6046550000000  0.4436100000000 1.0
C      1  0.5459280000000  0.4411100000000  0.4725900000000 1.0
C      1  0.5083310000000  0.5857100000000  0.4876250000000 1.0
C      1  0.5008020000000  0.5311630000000  0.6204180000000 1.0
C      1  0.5119650000000  0.4255420000000  0.5897800000000 1.0
C      1  0.4907800000000  0.4108870000000  0.5744910000000 1.0
C      1  0.5146680000000  0.4035230000000  0.4584800000000 1.0
C      1  0.4989000000000  0.4752130000000  0.6119100000000 1.0
C      1  0.5481750000000  0.5215500000000  0.5207530000000 1.0
C      1  0.4786520000000  0.5379820000000  0.5028490000000 1.0
C      1  0.5507400000000  0.4569510000000  0.4968030000000 1.0
C      1  0.4840930000000  0.5539660000000  0.5486540000000 1.0
C      1  0.5583280000000  0.5035860000000  0.4554100000000 1.0
C      1  0.4797600000000  0.4489380000000  0.4199560000000 1.0
C      1  0.4198800000000  0.4892170000000  0.4208980000000 1.0
C      1  0.5104540000000  0.5072650000000  0.5746930000000 1.0
C      1  0.5063650000000  0.5146910000000  0.4748520000000 1.0
C      1  0.4846190000000  0.5513230000000  0.6048610000000 1.0
C      1  0.5445760000000  0.4607430000000  0.5965230000000 1.0
C      1  0.5959270000000  0.4354030000000  0.5240700000000 1.0
C      1  0.4593160000000  0.5164490000000  0.5021490000000 1.0
C      1  0.4388550000000  0.5804680000000  0.5277070000000 1.0
C      1  0.4787980000000  0.6065180000000  0.4427000000000 1.0
C      1  0.5554810000000  0.4873000000000  0.5940420000000 1.0
C      1  0.4005550000000  0.4980610000000  0.5181380000000 1.0
C      1  0.5091090000000  0.5031430000000  0.6167440000000 1.0
C      1  0.5785540000000  0.4155600000000  0.5132150000000 1.0
C      1  0.4652120000000  0.5364970000000  0.4563120000000 1.0
C      1  0.4439130000000  0.5308890000000  0.4784070000000 1.0
C      1  0.4533330000000  0.3990260000000  0.5359740000000 1.0
C      1  0.4248860000000  0.4427410000000  0.5670600000000 1.0
C      1  0.4576030000000  0.4624750000000  0.5086520000000 1.0
C      1  0.5836980000000  0.5352670000000  0.5412020000000 1.0
C      1  0.3857060000000  0.4812540000000  0.5006510000000 1.0
C      1  0.5928440000000  0.5525640000000  0.4890320000000 1.0
C      1  0.5282860000000  0.4639190000000  0.4624850000000 1.0
C      1  0.5102100000000  0.4069170000000  0.4270450000000 1.0
C      1  0.4504140000000  0.4912030000000  0.6083500000000 1.0
C      1  0.4316360000000  0.4225700000000  0.4923390000000 1.0
C      1  0.5403650000000  0.5560480000000  0.5598610000000 1.0
C      1  0.5652380000000  0.5586000000000  0.5423460000000 1.0
C      1  0.4703990000000  0.4700480000000  0.6083820000000 1.0
C      1  0.5031240000000  0.4398040000000  0.5138210000000 1.0
C      1  0.4517170000000  0.5118550000000  0.5335520000000 1.0
C      1  0.4144550000000  0.4519330000000  0.4519980000000 1.0
C      1  0.5318010000000  0.4365420000000  0.4047430000000 1.0
C      1  0.4221470000000  0.5552510000000  0.4820520000000 1.0
C      1  0.5875970000000  0.4744920000000  0.4218110000000 1.0
C      1  0.5256010000000  0.5425020000000  0.5182430000000 1.0
C      1  0.5662870000000  0.4350310000000  0.4474340000000 1.0
C      1  0.4047510000000  0.4776950000000  0.4426570000000 1.0
C      1  0.6233780000000  0.4976490000000  0.4900020000000 1.0
C      1  0.5105960000000  0.5907120000000  0.5755370000000 1.0
C      1  0.4222920000000  0.5754150000000  0.5024450000000 1.0
C      1  0.4809990000000  0.5607050000000  0.5198100000000 1.0
C      1  0.4565890000000  0.4296800000000  0.4274910000000 1.0
C      1  0.4282190000000  0.5063550000000  0.4724130000000 1.0
C      1  0.4343020000000  0.4470600000000  0.4314040000000 1.0
C      1  0.5599280000000  0.5797290000000  0.5234950000000 1.0
C      1  0.4370220000000  0.5548850000000  0.5777860000000 1.0
C      1  0.4481600000000  0.4293030000000  0.5773620000000 1.0
C      1  0.5152480000000  0.3906880000000  0.5179730000000 1.0
C      1  0.4650730000000  0.6014300000000  0.4685340000000 1.0
C      1  0.5257940000000  0.5464710000000  0.6252560000000 1.0
C      1  0.5048610000000  0.4313160000000  0.4129400000000 1.0
C      1  0.5151490000000  0.6092660000000  0.4711960000000 1.0
C      1  0.4358830000000  0.4641830000000  0.5256250000000 1.0
C      1  0.4822280000000  0.4683340000000  0.4463140000000 1.0
C      1  0.4602000000000  0.4201400000000  0.4875340000000 1.0
C      1  0.5904880000000  0.4800500000000  0.5193400000000 1.0
C      1  0.6262660000000  0.5216390000000  0.4739690000000 1.0
C      1  0.4654220000000  0.4915740000000  0.4445490000000 1.0
C      1  0.3982460000000  0.4101330000000  0.5276490000000 1.0
C      1  0.4212030000000  0.5179640000000  0.4214070000000 1.0
C      1  0.4682640000000  0.3817920000000  0.5188380000000 1.0
C      1  0.4975450000000  0.4549810000000  0.5393230000000 1.0
C      1  0.5417500000000  0.6197440000000  0.4803010000000 1.0
C      1  0.4127340000000  0.5088100000000  0.5780420000000 1.0
C      1  0.5920740000000  0.4597190000000  0.5377970000000 1.0
C      1  0.5196230000000  0.5380420000000  0.4240890000000 1.0
C      1  0.4789400000000  0.4928790000000  0.3918620000000 1.0
C      1  0.4162020000000  0.5360780000000  0.5679180000000 1.0
C      1  0.3933980000000  0.4379960000000  0.5234300000000 1.0
C      1  0.4126440000000  0.4412060000000  0.4796360000000 1.0
C      1  0.4421990000000  0.4717220000000  0.4178120000000 1.0
C      1  0.4505000000000  0.5553320000000  0.4117570000000 1.0
C      1  0.5588080000000  0.5971120000000  0.4721890000000 1.0
C      1  0.5693210000000  0.4803990000000  0.4979320000000 1.0
C      1  0.4699230000000  0.4961260000000  0.5506720000000 1.0
C      1  0.4858530000000  0.4814780000000  0.5322480000000 1.0
C      1  0.5247520000000  0.4632910000000  0.5086320000000 1.0
C      1  0.5337790000000  0.5078420000000  0.5991350000000 1.0
C      1  0.3921600000000  0.4521360000000  0.4975810000000 1.0
C      1  0.5672870000000  0.4748150000000  0.4010350000000 1.0
C      1  0.5415370000000  0.6140000000000  0.5077920000000 1.0
C      1  0.4660020000000  0.5191730000000  0.3914250000000 1.0
C      1  0.5120050000000  0.5121200000000  0.4285640000000 1.0
C      1  0.5143640000000  0.4819600000000  0.4805470000000 1.0
C      1  0.5135220000000  0.6003950000000  0.5496480000000 1.0
C      1  0.5987850000000  0.4453690000000  0.4702090000000 1.0
C      1  0.4691760000000  0.4486450000000  0.5870690000000 1.0
C      1  0.4239680000000  0.4895480000000  0.5338540000000 1.0
C      1  0.4701990000000  0.5870360000000  0.5181460000000 1.0
C      1  0.5345640000000  0.4696940000000  0.4371360000000 1.0
C      1  0.4854850000000  0.5998410000000  0.5428290000000 1.0
C      1  0.4031760000000  0.5026750000000  0.4585880000000 1.0
C      1  0.5896970000000  0.4509000000000  0.4438580000000 1.0
C      1  0.4876860000000  0.4713570000000  0.4740810000000 1.0
C      1  0.5519480000000  0.4077970000000  0.5211130000000 1.0
C      1  0.5255440000000  0.5812990000000  0.4342850000000 1.0
C      1  0.4982680000000  0.5656450000000  0.3901600000000 1.0
C      1  0.6162660000000  0.5409120000000  0.4959180000000 1.0
C      1  0.5241770000000  0.5391050000000  0.4703210000000 1.0
C      1  0.5572090000000  0.5102890000000  0.4976290000000 1.0
C      1  0.5167170000000  0.5505600000000  0.5451010000000 1.0
C      1  0.5456740000000  0.4995120000000  0.5405990000000 1.0
C      1  0.5519170000000  0.5243380000000  0.4727920000000 1.0
C      1  0.4924350000000  0.3964100000000  0.4739010000000 1.0
C      1  0.5394960000000  0.4624830000000  0.3904280000000 1.0
C      1  0.5271740000000  0.5721840000000  0.6097340000000 1.0
C      1  0.4358590000000  0.5503890000000  0.5324040000000 1.0
C      1  0.4036720000000  0.5275120000000  0.4431780000000 1.0
C      1  0.5669840000000  0.5478200000000  0.4172300000000 1.0
C      1  0.4855370000000  0.5157430000000  0.4515890000000 1.0
C      1  0.4819340000000  0.5061690000000  0.5751730000000 1.0
C      1  0.4833320000000  0.4510880000000  0.5627870000000 1.0
C      1  0.5713610000000  0.5523790000000  0.4706970000000 1.0
C      1  0.5046540000000  0.4998580000000  0.4017390000000 1.0
C      1  0.4575890000000  0.5583400000000  0.4389170000000 1.0
C      1  0.5003930000000  0.5768080000000  0.5983330000000 1.0
C      1  0.4635890000000  0.4084550000000  0.5624930000000 1.0
C      1  0.5449580000000  0.5583010000000  0.5897510000000 1.0
C      1  0.4665320000000  0.4702360000000  0.4034490000000 1.0
C      1  0.5461230000000  0.5352690000000  0.6073090000000 1.0
C      1  0.5408230000000  0.6007800000000  0.5315890000000 1.0
C      1  0.5269880000000  0.5628550000000  0.4926130000000 1.0
C      1  0.4796580000000  0.5891080000000  0.4906750000000 1.0
C      1  0.5773190000000  0.4869760000000  0.4694220000000 1.0
C      1  0.5322620000000  0.4168430000000  0.5718000000000 1.0
C      1  0.3995040000000  0.5424500000000  0.4682350000000 1.0
C      1  0.5020280000000  0.5219320000000  0.5038400000000 1.0
C      1  0.5553320000000  0.5868050000000  0.4452520000000 1.0
C      1  0.4171000000000  0.4680630000000  0.5770380000000 1.0
C      1  0.5445040000000  0.4490490000000  0.5494410000000 1.0
C      1  0.4566380000000  0.5870230000000  0.4450300000000 1.0
C      1  0.4235230000000  0.4886510000000  0.5970150000000 1.0
C      1  0.5182830000000  0.5065140000000  0.5488100000000 1.0
C      1  0.5398850000000  0.5492930000000  0.4057510000000 1.0
C      1  0.4690770000000  0.5655980000000  0.3929250000000 1.0
C      1  0.4653610000000  0.4842410000000  0.4903750000000 1.0
C      1  0.5818070000000  0.4639320000000  0.5641020000000 1.0
C      1  0.4577380000000  0.5439380000000  0.5968010000000 1.0
C      1  0.5597300000000  0.4476220000000  0.5743930000000 1.0
C      1  0.5276940000000  0.4137830000000  0.5058020000000 1.0
C      1  0.4101610000000  0.4876340000000  0.5587960000000 1.0
C      1  0.4753870000000  0.4397180000000  0.5031710000000 1.0
C      1  0.5571040000000  0.5739220000000  0.4922870000000 1.0
C      1  0.4814080000000  0.5418900000000  0.3823340000000 1.0
C      1  0.5762060000000  0.4910730000000  0.5739340000000 1.0
C      1  0.6050570000000  0.5288710000000  0.5215590000000 1.0
C      1  0.4954600000000  0.3799810000000  0.5205910000000 1.0
C      1  0.4579450000000  0.5377380000000  0.5449100000000 1.0
C      1  0.5589010000000  0.5015640000000  0.4066520000000 1.0
C      1  0.5314610000000  0.4166180000000  0.4772780000000 1.0
C      1  0.4303550000000  0.4127190000000  0.5215320000000 1.0
C      1  0.4479940000000  0.4869860000000  0.4675610000000 1.0
C      1  0.5975900000000  0.4302610000000  0.4945920000000 1.0
END
