TITL C-884140-4336-393 -5.28271885697492 125000 -9469.05626259535 0 0 65 (C1) n - 1
REM
REM in /home/nfs/bkarasulu/CARBON/AIRSS/Generating-Clusters/ReaxFF-fromJPCA2015/Units_Real/with-SteepDescent/Only-C1/SD-CG/Try1-3A/FIRE-CG
REM
REM
REM
REM
REM
REM ./C.cell (11c1c37f851c82e70ff6c80c92926a4b)
REM
REM compiler GCC version 9.2.1 20190827 (Red Hat 9.2.1-1)
REM options -cpp -mtune=generic -march=x86-64 -g -O0 -fpre-include=/usr/include/finclude/math-vector-fortran.h
REM seed 587010665 141178478 1841595214 -164358096 1258377090 -895871034 1889346183 1692959918 -1855936940 1700100710 -251672103 -1243970602 1438929432 -393178790 130540381 1450292297 977750301 2079954444 -650441512 -28857257 -1344361641 -1496289592 -257369263 1475906418 -9023569 836923171 1811058754 1266940026 1338953648 -863926451 -40443219 -804353636 633062353
REM
CELL 1.54180   50.00000   50.00000   50.00000   90.00000   90.00000   90.00000
LATT -1
SFAC C  
C      1  0.4953230000000  0.4897300000000  0.4464400000000 1.0
C      1  0.4967760000000  0.4938180000000  0.4799960000000 1.0
C      1  0.5390900000000  0.5584720000000  0.4972950000000 1.0
C      1  0.4741250000000  0.4841280000000  0.4993600000000 1.0
C      1  0.5042860000000  0.5534750000000  0.5421300000000 1.0
C      1  0.5284250000000  0.4395740000000  0.5198770000000 1.0
C      1  0.5401440000000  0.5621310000000  0.4675110000000 1.0
C      1  0.4592080000000  0.4528520000000  0.5484680000000 1.0
C      1  0.4734330000000  0.4627340000000  0.5691760000000 1.0
C      1  0.5409080000000  0.5008720000000  0.4834350000000 1.0
C      1  0.4793210000000  0.5286110000000  0.5145510000000 1.0
C      1  0.5291870000000  0.5214050000000  0.4672670000000 1.0
C      1  0.4515390000000  0.5529260000000  0.4813590000000 1.0
C      1  0.5231540000000  0.4534640000000  0.4933130000000 1.0
C      1  0.4875350000000  0.4753270000000  0.5859570000000 1.0
C      1  0.5108570000000  0.5651830000000  0.5031370000000 1.0
C      1  0.5132870000000  0.5365950000000  0.4286890000000 1.0
C      1  0.4745470000000  0.4353270000000  0.5290880000000 1.0
C      1  0.5101110000000  0.4490610000000  0.4476050000000 1.0
C      1  0.5751250000000  0.4878030000000  0.5021500000000 1.0
C      1  0.5454400000000  0.5287820000000  0.5409250000000 1.0
C      1  0.4644700000000  0.4351910000000  0.5002760000000 1.0
C      1  0.4752010000000  0.5528090000000  0.5501910000000 1.0
C      1  0.4382690000000  0.5014820000000  0.5304930000000 1.0
C      1  0.5217880000000  0.5355110000000  0.5562690000000 1.0
C      1  0.4619320000000  0.5501130000000  0.5239420000000 1.0
C      1  0.5036180000000  0.5235070000000  0.4802200000000 1.0
C      1  0.5669630000000  0.4783540000000  0.5302400000000 1.0
C      1  0.5010570000000  0.5153220000000  0.5666250000000 1.0
C      1  0.4724690000000  0.5281100000000  0.5651870000000 1.0
C      1  0.4316940000000  0.5087660000000  0.5009800000000 1.0
C      1  0.4761570000000  0.4346070000000  0.4757330000000 1.0
C      1  0.5177110000000  0.5569540000000  0.4490420000000 1.0
C      1  0.5412910000000  0.4895990000000  0.4345350000000 1.0
C      1  0.5280260000000  0.4858690000000  0.5419080000000 1.0
C      1  0.4815700000000  0.5005090000000  0.5218890000000 1.0
C      1  0.5043170000000  0.5412130000000  0.5158800000000 1.0
C      1  0.5586750000000  0.4518900000000  0.4626650000000 1.0
C      1  0.5515350000000  0.4533940000000  0.5349920000000 1.0
C      1  0.4890660000000  0.5458660000000  0.4652710000000 1.0
C      1  0.5343470000000  0.5182480000000  0.4384340000000 1.0
C      1  0.4263820000000  0.4631860000000  0.5127130000000 1.0
C      1  0.5638500000000  0.4771250000000  0.4488880000000 1.0
C      1  0.4355860000000  0.5028710000000  0.4731340000000 1.0
C      1  0.4823010000000  0.4467050000000  0.4545340000000 1.0
C      1  0.4743000000000  0.5071140000000  0.4363990000000 1.0
C      1  0.4636340000000  0.5694900000000  0.5004930000000 1.0
C      1  0.5628340000000  0.5139400000000  0.4985750000000 1.0
C      1  0.4534430000000  0.4907780000000  0.4516680000000 1.0
C      1  0.4540810000000  0.4628490000000  0.4972140000000 1.0
C      1  0.5309390000000  0.4428440000000  0.4670630000000 1.0
C      1  0.4850990000000  0.5341340000000  0.4363760000000 1.0
C      1  0.4634020000000  0.4646070000000  0.4523040000000 1.0
C      1  0.4518640000000  0.5181290000000  0.5488270000000 1.0
C      1  0.5524960000000  0.5371030000000  0.5135610000000 1.0
C      1  0.4328220000000  0.5318350000000  0.4811790000000 1.0
C      1  0.5742760000000  0.4726790000000  0.4766790000000 1.0
C      1  0.5013600000000  0.4943950000000  0.5439290000000 1.0
C      1  0.5018880000000  0.4371210000000  0.5267400000000 1.0
C      1  0.4882160000000  0.5699060000000  0.4846190000000 1.0
C      1  0.4373480000000  0.4717330000000  0.5383090000000 1.0
C      1  0.5163470000000  0.4740830000000  0.4335890000000 1.0
C      1  0.5035280000000  0.4958350000000  0.5942880000000 1.0
C      1  0.5205750000000  0.4823280000000  0.4910430000000 1.0
C      1  0.5514570000000  0.4996260000000  0.5453780000000 1.0
END
