TITL C-884139-6216-169 -14.0476867005306 125000 -17567.867222648 0 0 118 (C1) n - 1
REM
REM in /home/nfs/bkarasulu/CARBON/AIRSS/Generating-Clusters/ReaxFF-fromJPCA2015/Units_Real/with-SteepDescent/Only-C1/SD-CG/Try1-3A/FIRE-CG
REM
REM
REM
REM
REM
REM ./C.cell (11c1c37f851c82e70ff6c80c92926a4b)
REM
REM compiler GCC version 9.2.1 20190827 (Red Hat 9.2.1-1)
REM options -cpp -mtune=generic -march=x86-64 -g -O0 -fpre-include=/usr/include/finclude/math-vector-fortran.h
REM seed -48765155 -1959462129 -692216249 285665085 -138956898 1249009129 1773475745 1907865306 -963983352 167486007 413900237 -656192429 -1607107017 497480326 775606395 1395431585 1453896779 -1446409222 1998909447 26750215 1152972183 -671229225 -1862408082 -784159300 -2028352399 -1831089757 1083517366 -974856663 1584094033 561272793 -731367688 -1091986066 1869441431
REM
CELL 1.54180   50.00000   50.00000   50.00000   90.00000   90.00000   90.00000
LATT -1
SFAC C  
C      1  0.5410410000000  0.4270640000000  0.4642450000000 1.0
C      1  0.5002170000000  0.4674760000000  0.4138330000000 1.0
C      1  0.4542300000000  0.4931240000000  0.4052190000000 1.0
C      1  0.4633010000000  0.5256920000000  0.4929220000000 1.0
C      1  0.5231200000000  0.4243980000000  0.5167710000000 1.0
C      1  0.4730980000000  0.4551390000000  0.4917740000000 1.0
C      1  0.4595980000000  0.5183370000000  0.4654170000000 1.0
C      1  0.4670940000000  0.5302090000000  0.4391320000000 1.0
C      1  0.4418660000000  0.5553410000000  0.5323640000000 1.0
C      1  0.5709060000000  0.5368900000000  0.5188550000000 1.0
C      1  0.5269430000000  0.5353190000000  0.4089760000000 1.0
C      1  0.4798280000000  0.5573900000000  0.5656700000000 1.0
C      1  0.4738790000000  0.5281330000000  0.5710580000000 1.0
C      1  0.4821450000000  0.5543800000000  0.4308350000000 1.0
C      1  0.5016980000000  0.4404590000000  0.5791750000000 1.0
C      1  0.4299350000000  0.4467260000000  0.5172240000000 1.0
C      1  0.4597360000000  0.4373770000000  0.4434270000000 1.0
C      1  0.4554750000000  0.4317300000000  0.4853050000000 1.0
C      1  0.4530350000000  0.5620050000000  0.5576480000000 1.0
C      1  0.4398250000000  0.4824110000000  0.5849130000000 1.0
C      1  0.4681310000000  0.4828960000000  0.5233510000000 1.0
C      1  0.4796460000000  0.5798710000000  0.4459010000000 1.0
C      1  0.4190240000000  0.4900380000000  0.4447250000000 1.0
C      1  0.5016720000000  0.5505300000000  0.4089490000000 1.0
C      1  0.5839100000000  0.5621900000000  0.5071030000000 1.0
C      1  0.5016020000000  0.5797970000000  0.4659490000000 1.0
C      1  0.4584360000000  0.5161750000000  0.5491960000000 1.0
C      1  0.4884830000000  0.4307930000000  0.4472630000000 1.0
C      1  0.4850570000000  0.5044960000000  0.5868150000000 1.0
C      1  0.5819770000000  0.4815740000000  0.4494430000000 1.0
C      1  0.5597090000000  0.4367990000000  0.4825680000000 1.0
C      1  0.5159670000000  0.4890970000000  0.5288730000000 1.0
C      1  0.4933590000000  0.4705970000000  0.5299930000000 1.0
C      1  0.4976840000000  0.4967520000000  0.4843220000000 1.0
C      1  0.5596870000000  0.5584450000000  0.5679820000000 1.0
C      1  0.4708770000000  0.5530790000000  0.5221520000000 1.0
C      1  0.5087550000000  0.4464970000000  0.4326020000000 1.0
C      1  0.5134050000000  0.5029940000000  0.5894020000000 1.0
C      1  0.5137410000000  0.5138030000000  0.3960380000000 1.0
C      1  0.5704940000000  0.5117870000000  0.5940780000000 1.0
C      1  0.5640890000000  0.4754100000000  0.5596570000000 1.0
C      1  0.5426530000000  0.5245350000000  0.4323400000000 1.0
C      1  0.4579250000000  0.4451080000000  0.5571570000000 1.0
C      1  0.5251190000000  0.5323560000000  0.4562270000000 1.0
C      1  0.4985510000000  0.4220410000000  0.5339070000000 1.0
C      1  0.4735230000000  0.4820030000000  0.4823220000000 1.0
C      1  0.5205700000000  0.5340320000000  0.5485780000000 1.0
C      1  0.5492770000000  0.5365790000000  0.4982280000000 1.0
C      1  0.5152510000000  0.4731060000000  0.5481090000000 1.0
C      1  0.5906140000000  0.5047270000000  0.4702430000000 1.0
C      1  0.5535530000000  0.5350430000000  0.5853560000000 1.0
C      1  0.4172460000000  0.4810780000000  0.5480780000000 1.0
C      1  0.5063350000000  0.5162810000000  0.5279650000000 1.0
C      1  0.4511060000000  0.4543910000000  0.4206150000000 1.0
C      1  0.4496440000000  0.4247130000000  0.5134880000000 1.0
C      1  0.4340590000000  0.4792020000000  0.4211590000000 1.0
C      1  0.5001580000000  0.4505900000000  0.4867420000000 1.0
C      1  0.5201340000000  0.4550930000000  0.5862790000000 1.0
C      1  0.5303030000000  0.4788560000000  0.5943650000000 1.0
C      1  0.4759070000000  0.4536850000000  0.5780400000000 1.0
C      1  0.4720340000000  0.5117080000000  0.5234140000000 1.0
C      1  0.4306310000000  0.4714680000000  0.4639620000000 1.0
C      1  0.5415530000000  0.4840480000000  0.4755400000000 1.0
C      1  0.5463370000000  0.4400650000000  0.5277160000000 1.0
C      1  0.4634430000000  0.5780230000000  0.4902130000000 1.0
C      1  0.4524530000000  0.5740660000000  0.4519380000000 1.0
C      1  0.4890810000000  0.5692140000000  0.5388090000000 1.0
C      1  0.4428800000000  0.4740450000000  0.5111200000000 1.0
C      1  0.5412420000000  0.4626760000000  0.5458680000000 1.0
C      1  0.5826260000000  0.5141530000000  0.5332030000000 1.0
C      1  0.5990040000000  0.4855980000000  0.4908310000000 1.0
C      1  0.4274540000000  0.5116630000000  0.5520700000000 1.0
C      1  0.4988610000000  0.4239990000000  0.4739090000000 1.0
C      1  0.4261110000000  0.5085310000000  0.5834610000000 1.0
C      1  0.4848330000000  0.5435570000000  0.4978560000000 1.0
C      1  0.4685020000000  0.4287430000000  0.5350820000000 1.0
C      1  0.5376270000000  0.5576750000000  0.5469340000000 1.0
C      1  0.5898230000000  0.4631340000000  0.4744780000000 1.0
C      1  0.5227290000000  0.5614240000000  0.4557590000000 1.0
C      1  0.4918550000000  0.5846990000000  0.4932490000000 1.0
C      1  0.5184490000000  0.4897560000000  0.4101010000000 1.0
C      1  0.5519720000000  0.5645790000000  0.4585820000000 1.0
C      1  0.5888570000000  0.5501750000000  0.4830660000000 1.0
C      1  0.4240810000000  0.5365890000000  0.4776360000000 1.0
C      1  0.5602200000000  0.5802970000000  0.5086360000000 1.0
C      1  0.5351100000000  0.4477580000000  0.4440840000000 1.0
C      1  0.5262570000000  0.5254730000000  0.5753000000000 1.0
C      1  0.4202680000000  0.4922590000000  0.5057820000000 1.0
C      1  0.5618870000000  0.4647870000000  0.4852480000000 1.0
C      1  0.5358730000000  0.5782610000000  0.5252440000000 1.0
C      1  0.3999370000000  0.4477990000000  0.5170160000000 1.0
C      1  0.5237470000000  0.4170120000000  0.4876460000000 1.0
C      1  0.4230210000000  0.5333670000000  0.5297780000000 1.0
C      1  0.4344580000000  0.4629380000000  0.5623050000000 1.0
C      1  0.4524010000000  0.4902740000000  0.4680350000000 1.0
C      1  0.5484670000000  0.4751930000000  0.4462710000000 1.0
C      1  0.5148050000000  0.4749200000000  0.4825180000000 1.0
C      1  0.5675820000000  0.5416650000000  0.4494530000000 1.0
C      1  0.4414410000000  0.5646850000000  0.4759400000000 1.0
C      1  0.5476870000000  0.5639510000000  0.4883300000000 1.0
C      1  0.5098750000000  0.4303920000000  0.5567790000000 1.0
C      1  0.5900040000000  0.4716120000000  0.5166310000000 1.0
C      1  0.5854420000000  0.4865310000000  0.5420840000000 1.0
C      1  0.5075510000000  0.5809230000000  0.5193140000000 1.0
C      1  0.5393970000000  0.4953410000000  0.4279860000000 1.0
C      1  0.5869350000000  0.5321680000000  0.4652510000000 1.0
C      1  0.5061330000000  0.5215750000000  0.4982350000000 1.0
C      1  0.4188520000000  0.5178000000000  0.4569220000000 1.0
C      1  0.4394220000000  0.4431380000000  0.4637920000000 1.0
C      1  0.4721510000000  0.4687710000000  0.4060590000000 1.0
C      1  0.5347310000000  0.5182070000000  0.4807210000000 1.0
C      1  0.4664000000000  0.5186590000000  0.4127880000000 1.0
C      1  0.4197730000000  0.5221740000000  0.5034580000000 1.0
C      1  0.4887120000000  0.5277860000000  0.3955380000000 1.0
C      1  0.4012330000000  0.4775870000000  0.5235790000000 1.0
C      1  0.5750870000000  0.4451300000000  0.5190630000000 1.0
C      1  0.4692520000000  0.4800020000000  0.5888570000000 1.0
C      1  0.5588480000000  0.4853400000000  0.5862370000000 1.0
END
