TITL C-884141-4321-124 113.520279921892 125000 -24426.4670802106 0 0 166 (C1) n - 1
REM
REM in /home/nfs/bkarasulu/CARBON/AIRSS/Generating-Clusters/ReaxFF-fromJPCA2015/Units_Real/with-SteepDescent/Only-C1/SD-CG/Try1-3A/FIRE-CG
REM
REM
REM
REM
REM
REM ./C.cell (11c1c37f851c82e70ff6c80c92926a4b)
REM
REM compiler GCC version 9.2.1 20190827 (Red Hat 9.2.1-1)
REM options -cpp -mtune=generic -march=x86-64 -g -O0 -fpre-include=/usr/include/finclude/math-vector-fortran.h
REM seed -431525828 1960548257 -440162652 -1338614992 266769543 1559473093 1809257119 -1989753168 780049631 -1861094481 1813834028 -149810625 587734629 1591795280 1966681247 888136569 2137095292 -1704940301 -1885477075 1721324732 -325939468 -1692142233 768763205 768343812 1188107886 929509498 -1072295949 -1658849268 -1122797228 9194878 -948223538 -1973490797 -1097440957
REM
CELL 1.54180   50.00000   50.00000   50.00000   90.00000   90.00000   90.00000
LATT -1
SFAC C  
C      1  0.5321250000000  0.5385940000000  0.5537060000000 1.0
C      1  0.5484700000000  0.4433680000000  0.5335980000000 1.0
C      1  0.4530280000000  0.5537040000000  0.5892200000000 1.0
C      1  0.5199560000000  0.4908870000000  0.4890280000000 1.0
C      1  0.4547040000000  0.4940400000000  0.5261560000000 1.0
C      1  0.5013050000000  0.5251320000000  0.4963850000000 1.0
C      1  0.5160950000000  0.4572630000000  0.3982750000000 1.0
C      1  0.5604850000000  0.6018490000000  0.5222880000000 1.0
C      1  0.5147560000000  0.5397980000000  0.5766190000000 1.0
C      1  0.5475160000000  0.4751380000000  0.5837780000000 1.0
C      1  0.5279050000000  0.5565490000000  0.5322920000000 1.0
C      1  0.5356330000000  0.5341140000000  0.4548490000000 1.0
C      1  0.4874470000000  0.5318520000000  0.4734010000000 1.0
C      1  0.4157750000000  0.4363260000000  0.4703180000000 1.0
C      1  0.6147950000000  0.4211550000000  0.5093760000000 1.0
C      1  0.4400080000000  0.5867340000000  0.5306890000000 1.0
C      1  0.5496390000000  0.5273190000000  0.5022230000000 1.0
C      1  0.5104780000000  0.5777200000000  0.5270390000000 1.0
C      1  0.4052560000000  0.4641890000000  0.4982260000000 1.0
C      1  0.4959580000000  0.5810750000000  0.4278900000000 1.0
C      1  0.4813400000000  0.5081460000000  0.5988620000000 1.0
C      1  0.5471170000000  0.5538880000000  0.5130660000000 1.0
C      1  0.5811680000000  0.4534210000000  0.4537440000000 1.0
C      1  0.4381710000000  0.4245120000000  0.5545560000000 1.0
C      1  0.5086300000000  0.5019530000000  0.5354610000000 1.0
C      1  0.5835400000000  0.4520720000000  0.4841280000000 1.0
C      1  0.6078080000000  0.4998170000000  0.5036740000000 1.0
C      1  0.4753770000000  0.4791610000000  0.5953380000000 1.0
C      1  0.5672720000000  0.4701000000000  0.4980910000000 1.0
C      1  0.5637090000000  0.5122700000000  0.5221460000000 1.0
C      1  0.4353150000000  0.5174770000000  0.5964460000000 1.0
C      1  0.4847260000000  0.5151130000000  0.4505710000000 1.0
C      1  0.4596130000000  0.5267360000000  0.5516890000000 1.0
C      1  0.4320090000000  0.4479100000000  0.5374980000000 1.0
C      1  0.4633310000000  0.4439890000000  0.4228150000000 1.0
C      1  0.4453870000000  0.5101100000000  0.5702600000000 1.0
C      1  0.4648470000000  0.5168280000000  0.4040060000000 1.0
C      1  0.5279350000000  0.4551710000000  0.4599210000000 1.0
C      1  0.4485480000000  0.4056790000000  0.4571930000000 1.0
C      1  0.3891050000000  0.5020770000000  0.5235140000000 1.0
C      1  0.4413250000000  0.5681210000000  0.4617800000000 1.0
C      1  0.5292960000000  0.4084220000000  0.5639930000000 1.0
C      1  0.5233440000000  0.5166820000000  0.4364480000000 1.0
C      1  0.4141290000000  0.5286800000000  0.4657440000000 1.0
C      1  0.5729580000000  0.5644340000000  0.4366530000000 1.0
C      1  0.5827030000000  0.5370900000000  0.5532390000000 1.0
C      1  0.4913570000000  0.4437770000000  0.4325000000000 1.0
C      1  0.5539610000000  0.5178080000000  0.5486220000000 1.0
C      1  0.4130480000000  0.4693510000000  0.5258170000000 1.0
C      1  0.5939390000000  0.5472190000000  0.5730260000000 1.0
C      1  0.4587800000000  0.5435610000000  0.5087970000000 1.0
C      1  0.4444160000000  0.4263790000000  0.4362490000000 1.0
C      1  0.5569850000000  0.5245370000000  0.4708970000000 1.0
C      1  0.5669200000000  0.5714340000000  0.5250350000000 1.0
C      1  0.4978660000000  0.5950430000000  0.4536340000000 1.0
C      1  0.4866360000000  0.5223430000000  0.5415230000000 1.0
C      1  0.4518330000000  0.4700660000000  0.4164570000000 1.0
C      1  0.6021970000000  0.4669210000000  0.5704220000000 1.0
C      1  0.5180500000000  0.5871350000000  0.4998320000000 1.0
C      1  0.4453340000000  0.5463510000000  0.5342680000000 1.0
C      1  0.5223490000000  0.5115320000000  0.5055970000000 1.0
C      1  0.5430240000000  0.3966000000000  0.5257270000000 1.0
C      1  0.5991880000000  0.5524730000000  0.5041850000000 1.0
C      1  0.5344570000000  0.4310870000000  0.5831700000000 1.0
C      1  0.4709590000000  0.4737100000000  0.4821930000000 1.0
C      1  0.5640030000000  0.5459560000000  0.4157320000000 1.0
C      1  0.4730300000000  0.5723950000000  0.5839910000000 1.0
C      1  0.4000990000000  0.4679420000000  0.5677210000000 1.0
C      1  0.5143610000000  0.4350350000000  0.4171340000000 1.0
C      1  0.5365590000000  0.4337950000000  0.5060980000000 1.0
C      1  0.4306680000000  0.5590220000000  0.5704540000000 1.0
C      1  0.5738250000000  0.4815180000000  0.4441410000000 1.0
C      1  0.5522150000000  0.4134510000000  0.5461240000000 1.0
C      1  0.5916690000000  0.5572430000000  0.5328720000000 1.0
C      1  0.4951050000000  0.5817950000000  0.5510780000000 1.0
C      1  0.5806640000000  0.4907570000000  0.5135710000000 1.0
C      1  0.5815010000000  0.5463770000000  0.4600020000000 1.0
C      1  0.5122510000000  0.4430530000000  0.4926620000000 1.0
C      1  0.6190710000000  0.4891160000000  0.4772940000000 1.0
C      1  0.5368840000000  0.4046160000000  0.4998160000000 1.0
C      1  0.5691930000000  0.4938870000000  0.4174980000000 1.0
C      1  0.4628190000000  0.5812590000000  0.4786170000000 1.0
C      1  0.4227390000000  0.4443090000000  0.4424730000000 1.0
C      1  0.4279420000000  0.4101680000000  0.4780360000000 1.0
C      1  0.4609590000000  0.5290330000000  0.6033330000000 1.0
C      1  0.5682180000000  0.4313280000000  0.4399440000000 1.0
C      1  0.5659570000000  0.5887390000000  0.4801860000000 1.0
C      1  0.5031070000000  0.4072030000000  0.5507020000000 1.0
C      1  0.4152370000000  0.5213110000000  0.4367540000000 1.0
C      1  0.5444210000000  0.6030110000000  0.4980140000000 1.0
C      1  0.5029080000000  0.4706430000000  0.5959130000000 1.0
C      1  0.6114440000000  0.5274940000000  0.4941940000000 1.0
C      1  0.4264020000000  0.4713370000000  0.4322330000000 1.0
C      1  0.4539010000000  0.4606680000000  0.5841760000000 1.0
C      1  0.4900280000000  0.4332560000000  0.5598420000000 1.0
C      1  0.5460790000000  0.4891830000000  0.4013720000000 1.0
C      1  0.4269870000000  0.5606070000000  0.4859880000000 1.0
C      1  0.5853770000000  0.5669780000000  0.4828260000000 1.0
C      1  0.4831160000000  0.6043880000000  0.4767770000000 1.0
C      1  0.5361990000000  0.5507960000000  0.4076780000000 1.0
C      1  0.5578440000000  0.4479320000000  0.5866750000000 1.0
C      1  0.4925690000000  0.4292340000000  0.5100680000000 1.0
C      1  0.5131880000000  0.4499690000000  0.5757160000000 1.0
C      1  0.5950580000000  0.4380580000000  0.5098950000000 1.0
C      1  0.4910570000000  0.3916600000000  0.4818740000000 1.0
C      1  0.5330830000000  0.4968590000000  0.5513190000000 1.0
C      1  0.4846020000000  0.5369990000000  0.4065880000000 1.0
C      1  0.6155670000000  0.5172420000000  0.4658050000000 1.0
C      1  0.5226000000000  0.5703430000000  0.4235230000000 1.0
C      1  0.3963000000000  0.5290080000000  0.5332650000000 1.0
C      1  0.5309850000000  0.5631990000000  0.4527350000000 1.0
C      1  0.4695030000000  0.4757260000000  0.5367590000000 1.0
C      1  0.5830430000000  0.4496760000000  0.5659790000000 1.0
C      1  0.5361930000000  0.4681180000000  0.5567180000000 1.0
C      1  0.5053580000000  0.4954170000000  0.4441110000000 1.0
C      1  0.4592440000000  0.5059380000000  0.4428800000000 1.0
C      1  0.3893980000000  0.4786670000000  0.5419510000000 1.0
C      1  0.4102670000000  0.5453350000000  0.5544740000000 1.0
C      1  0.4275120000000  0.4545160000000  0.4859900000000 1.0
C      1  0.4164860000000  0.5488320000000  0.5244320000000 1.0
C      1  0.4321700000000  0.4975910000000  0.5201540000000 1.0
C      1  0.5208060000000  0.5008780000000  0.3951110000000 1.0
C      1  0.5112860000000  0.3878010000000  0.5011460000000 1.0
C      1  0.4996090000000  0.4818110000000  0.3957070000000 1.0
C      1  0.3981930000000  0.5033660000000  0.4700920000000 1.0
C      1  0.4543800000000  0.4929080000000  0.4673950000000 1.0
C      1  0.4330640000000  0.5810540000000  0.5047830000000 1.0
C      1  0.4986980000000  0.4729700000000  0.4946880000000 1.0
C      1  0.5798710000000  0.5211720000000  0.4218670000000 1.0
C      1  0.4962240000000  0.4458350000000  0.5329380000000 1.0
C      1  0.4250690000000  0.4703800000000  0.5840800000000 1.0
C      1  0.5394900000000  0.4428620000000  0.4342970000000 1.0
C      1  0.5428530000000  0.4631220000000  0.4070810000000 1.0
C      1  0.4381460000000  0.5214910000000  0.5029320000000 1.0
C      1  0.4713060000000  0.4883720000000  0.4032410000000 1.0
C      1  0.5096100000000  0.5157060000000  0.5928440000000 1.0
C      1  0.5027850000000  0.6048110000000  0.4973760000000 1.0
C      1  0.4831060000000  0.5596510000000  0.4795110000000 1.0
C      1  0.4962050000000  0.4024240000000  0.5225820000000 1.0
C      1  0.4570520000000  0.4531680000000  0.5239430000000 1.0
C      1  0.5243240000000  0.4905260000000  0.5962920000000 1.0
C      1  0.5598500000000  0.4967770000000  0.4635020000000 1.0
C      1  0.4094570000000  0.4937190000000  0.4431370000000 1.0
C      1  0.4435410000000  0.5277220000000  0.4276490000000 1.0
C      1  0.4727630000000  0.3969450000000  0.4684470000000 1.0
C      1  0.5983560000000  0.5271800000000  0.4438020000000 1.0
C      1  0.4599940000000  0.4368420000000  0.5700800000000 1.0
C      1  0.5773940000000  0.4441140000000  0.5362940000000 1.0
C      1  0.4326060000000  0.4062250000000  0.5055040000000 1.0
C      1  0.4373520000000  0.5140070000000  0.4764280000000 1.0
C      1  0.5089350000000  0.5734110000000  0.4715840000000 1.0
C      1  0.3937240000000  0.4912590000000  0.4960260000000 1.0
C      1  0.4508000000000  0.5558630000000  0.4367600000000 1.0
C      1  0.4856560000000  0.5358160000000  0.5167170000000 1.0
C      1  0.4752430000000  0.5601020000000  0.4219450000000 1.0
C      1  0.5572780000000  0.5815990000000  0.4536760000000 1.0
C      1  0.4362810000000  0.4081960000000  0.5309660000000 1.0
C      1  0.5035380000000  0.4655440000000  0.4486550000000 1.0
C      1  0.5154130000000  0.5278170000000  0.4076390000000 1.0
C      1  0.4226540000000  0.4991910000000  0.5800000000000 1.0
C      1  0.4961860000000  0.4743070000000  0.5263820000000 1.0
C      1  0.4546240000000  0.4544240000000  0.4953030000000 1.0
C      1  0.4982700000000  0.5642580000000  0.5742850000000 1.0
C      1  0.5426620000000  0.4780310000000  0.4780060000000 1.0
C      1  0.4389830000000  0.5845780000000  0.5578660000000 1.0
C      1  0.4680610000000  0.5897830000000  0.5611450000000 1.0
END
