TITL C-884133-6611-36 227.361601473414 125000 -4530.27466622706 0 0 32 (C1) n - 1
REM
REM in /home/nfs/bkarasulu/CARBON/AIRSS/Generating-Clusters/ReaxFF-fromJPCA2015/Units_Real/with-SteepDescent/Only-C1/SD-CG/Try1-3A/FIRE-CG
REM
REM
REM
REM
REM
REM ./C.cell (11c1c37f851c82e70ff6c80c92926a4b)
REM
REM compiler GCC version 9.2.1 20190827 (Red Hat 9.2.1-1)
REM options -cpp -mtune=generic -march=x86-64 -g -O0 -fpre-include=/usr/include/finclude/math-vector-fortran.h
REM seed 1206307432 -632278919 508097912 1274483900 -60456260 -499333655 -1887674882 870082337 -1264929543 -2133266906 -1176961151 -1198026828 1559866395 -1432933489 2050473438 -750171111 719434324 -716607983 -1069933048 960297303 1325450041 -1779696336 775895470 331282362 -80172872 1418520192 1649829043 -1531888630 -1514255741 -1621100367 926785150 1601758091 545522725
REM
CELL 1.54180   50.00000   50.00000   50.00000   90.00000   90.00000   90.00000
LATT -1
SFAC C  
C      1  0.4321380000000  0.5170350000000  0.4955050000000 1.0
C      1  0.5503920000000  0.5211760000000  0.4711630000000 1.0
C      1  0.5155330000000  0.4436910000000  0.5051440000000 1.0
C      1  0.4696250000000  0.4865930000000  0.5503440000000 1.0
C      1  0.5330640000000  0.5393410000000  0.4556700000000 1.0
C      1  0.5229290000000  0.5380060000000  0.5346090000000 1.0
C      1  0.5502480000000  0.5085830000000  0.4980190000000 1.0
C      1  0.5239010000000  0.4872570000000  0.5431180000000 1.0
C      1  0.5152260000000  0.5555090000000  0.4749410000000 1.0
C      1  0.4501300000000  0.4772850000000  0.5315810000000 1.0
C      1  0.4906560000000  0.4574520000000  0.5162380000000 1.0
C      1  0.4936230000000  0.5089520000000  0.5124640000000 1.0
C      1  0.4481990000000  0.5361270000000  0.5109160000000 1.0
C      1  0.5419260000000  0.4693620000000  0.5287520000000 1.0
C      1  0.5002940000000  0.5031850000000  0.4291750000000 1.0
C      1  0.4955800000000  0.5338310000000  0.5245690000000 1.0
C      1  0.5350280000000  0.5138470000000  0.5462840000000 1.0
C      1  0.5295330000000  0.4612810000000  0.4849160000000 1.0
C      1  0.5461300000000  0.5260980000000  0.5219420000000 1.0
C      1  0.4934110000000  0.5352170000000  0.4688590000000 1.0
C      1  0.5065810000000  0.5288660000000  0.4428520000000 1.0
C      1  0.5345800000000  0.4393690000000  0.5273570000000 1.0
C      1  0.5454410000000  0.4796460000000  0.5011180000000 1.0
C      1  0.4719880000000  0.4904150000000  0.4699890000000 1.0
C      1  0.4911870000000  0.4808290000000  0.4470870000000 1.0
C      1  0.4472650000000  0.5011020000000  0.4762900000000 1.0
C      1  0.4959790000000  0.4863670000000  0.5303660000000 1.0
C      1  0.4861300000000  0.5114030000000  0.4859240000000 1.0
C      1  0.4362330000000  0.4972930000000  0.5160110000000 1.0
C      1  0.4637960000000  0.4511630000000  0.5160110000000 1.0
C      1  0.5131410000000  0.4686160000000  0.4615250000000 1.0
C      1  0.4701130000000  0.5451050000000  0.5212610000000 1.0
END
