TITL C-883740-3686-350 5.91773366656528 125000 -11563.6795024526 0 0 79 (C1) n - 1
REM
REM in /home/nfs/bkarasulu/CARBON/AIRSS/Generating-Clusters/ReaxFF-fromJPCA2015/Units_Real/with-SteepDescent/Only-C1/SD-CG/Try1-3A/FIRE-CG
REM
REM
REM
REM
REM
REM ./C.cell (11c1c37f851c82e70ff6c80c92926a4b)
REM
REM compiler GCC version 9.2.1 20190827 (Red Hat 9.2.1-1)
REM options -cpp -mtune=generic -march=x86-64 -g -O0 -fpre-include=/usr/include/finclude/math-vector-fortran.h
REM seed 240162381 -1623365894 -1601707148 -1586795202 448042859 -1398304923 573996980 -1129347186 1530143723 1870137718 -881552284 424837721 -286455907 1070956151 -1247147077 683536466 478626819 -2066609298 618737509 -300138930 1195257564 -1685780321 1888525677 1789512081 -858085927 -195326173 -1523167515 -2035315584 1787149985 -1849889368 -637330286 864778967 -67873225
REM
CELL 1.54180   50.00000   50.00000   50.00000   90.00000   90.00000   90.00000
LATT -1
SFAC C  
C      1  0.4683760000000  0.4282180000000  0.4971950000000 1.0
C      1  0.5695910000000  0.4481100000000  0.5136040000000 1.0
C      1  0.4420860000000  0.5415590000000  0.5406460000000 1.0
C      1  0.4690240000000  0.4520180000000  0.5424190000000 1.0
C      1  0.4847990000000  0.4869410000000  0.5057090000000 1.0
C      1  0.5326720000000  0.4319480000000  0.5487810000000 1.0
C      1  0.5402020000000  0.5085820000000  0.5430260000000 1.0
C      1  0.5386700000000  0.4736600000000  0.5179420000000 1.0
C      1  0.5268330000000  0.4621080000000  0.4714830000000 1.0
C      1  0.4379770000000  0.5091850000000  0.4729040000000 1.0
C      1  0.4320350000000  0.5257870000000  0.4962360000000 1.0
C      1  0.4932520000000  0.5850710000000  0.5210850000000 1.0
C      1  0.4873040000000  0.4505580000000  0.4238280000000 1.0
C      1  0.5089530000000  0.4995580000000  0.4975490000000 1.0
C      1  0.5246920000000  0.4825950000000  0.5574110000000 1.0
C      1  0.5443960000000  0.5119890000000  0.4433470000000 1.0
C      1  0.5011930000000  0.4483290000000  0.4689670000000 1.0
C      1  0.5441190000000  0.5375130000000  0.5490820000000 1.0
C      1  0.5211860000000  0.5032450000000  0.4280230000000 1.0
C      1  0.4693490000000  0.5441510000000  0.5525540000000 1.0
C      1  0.4725260000000  0.4626810000000  0.4448560000000 1.0
C      1  0.5726230000000  0.5188060000000  0.5110830000000 1.0
C      1  0.5445430000000  0.4401860000000  0.4791520000000 1.0
C      1  0.5324420000000  0.4761730000000  0.4277360000000 1.0
C      1  0.5684820000000  0.4561730000000  0.4853100000000 1.0
C      1  0.4294750000000  0.4628500000000  0.4939310000000 1.0
C      1  0.4581500000000  0.4280620000000  0.5243430000000 1.0
C      1  0.4761960000000  0.5354180000000  0.4960800000000 1.0
C      1  0.5582920000000  0.5706380000000  0.4805800000000 1.0
C      1  0.5036680000000  0.5817200000000  0.4939610000000 1.0
C      1  0.5062470000000  0.4722300000000  0.5763580000000 1.0
C      1  0.4909350000000  0.4624010000000  0.5197330000000 1.0
C      1  0.4577450000000  0.5727110000000  0.4828240000000 1.0
C      1  0.4326040000000  0.4805920000000  0.4705520000000 1.0
C      1  0.5525170000000  0.5652350000000  0.5082270000000 1.0
C      1  0.4590930000000  0.5186890000000  0.4543190000000 1.0
C      1  0.4810530000000  0.5324510000000  0.4682410000000 1.0
C      1  0.4696640000000  0.5653830000000  0.5094130000000 1.0
C      1  0.5164680000000  0.4676050000000  0.5341820000000 1.0
C      1  0.4733190000000  0.5121500000000  0.5128910000000 1.0
C      1  0.5234200000000  0.5135530000000  0.5176060000000 1.0
C      1  0.4797410000000  0.4869700000000  0.5738550000000 1.0
C      1  0.5663200000000  0.4721190000000  0.5298470000000 1.0
C      1  0.4849430000000  0.5757140000000  0.4729800000000 1.0
C      1  0.4497950000000  0.4457880000000  0.4851830000000 1.0
C      1  0.5007990000000  0.5393660000000  0.4324680000000 1.0
C      1  0.5548260000000  0.4856850000000  0.4454270000000 1.0
C      1  0.4344700000000  0.5180620000000  0.5253560000000 1.0
C      1  0.4265800000000  0.4681630000000  0.5235950000000 1.0
C      1  0.5039570000000  0.4357460000000  0.4424160000000 1.0
C      1  0.5675220000000  0.4826450000000  0.4716370000000 1.0
C      1  0.5335840000000  0.5506290000000  0.4722490000000 1.0
C      1  0.4941850000000  0.5149370000000  0.4202320000000 1.0
C      1  0.5454540000000  0.4307220000000  0.5224170000000 1.0
C      1  0.5170340000000  0.4520240000000  0.4224560000000 1.0
C      1  0.5277440000000  0.4282350000000  0.5000190000000 1.0
C      1  0.5228240000000  0.5587840000000  0.5000190000000 1.0
C      1  0.4345120000000  0.5549650000000  0.4923270000000 1.0
C      1  0.5693390000000  0.5007810000000  0.5330770000000 1.0
C      1  0.4915140000000  0.5403920000000  0.5720640000000 1.0
C      1  0.4573260000000  0.4785060000000  0.4273390000000 1.0
C      1  0.5101790000000  0.5377410000000  0.5252570000000 1.0
C      1  0.4386590000000  0.4451060000000  0.5365050000000 1.0
C      1  0.5178070000000  0.5513740000000  0.5544380000000 1.0
C      1  0.5308140000000  0.4831430000000  0.4916150000000 1.0
C      1  0.5023220000000  0.5550140000000  0.4565880000000 1.0
C      1  0.4868760000000  0.5136180000000  0.5750570000000 1.0
C      1  0.5480780000000  0.5252070000000  0.4674680000000 1.0
C      1  0.4847750000000  0.5267360000000  0.5346400000000 1.0
C      1  0.5658330000000  0.5094910000000  0.4836560000000 1.0
C      1  0.4985920000000  0.4377990000000  0.4974870000000 1.0
C      1  0.4411510000000  0.5623170000000  0.5198950000000 1.0
C      1  0.4596470000000  0.4781610000000  0.5535740000000 1.0
C      1  0.5150660000000  0.4436240000000  0.5692140000000 1.0
C      1  0.4670900000000  0.5061060000000  0.4296060000000 1.0
C      1  0.4384830000000  0.4910460000000  0.5371200000000 1.0
C      1  0.4449380000000  0.4648220000000  0.4497580000000 1.0
C      1  0.5615260000000  0.5421480000000  0.5262140000000 1.0
C      1  0.5095240000000  0.5794800000000  0.5437720000000 1.0
END
