TITL C-884132-5695-104 1.46767543736307 125000 -10229.9887560388 0 0 68 (C1) n - 1
REM
REM in /home/nfs/bkarasulu/CARBON/AIRSS/Generating-Clusters/ReaxFF-fromJPCA2015/Units_Real/with-SteepDescent/Only-C1/SD-CG/Try1-3A/FIRE-CG
REM
REM
REM
REM
REM
REM ./C.cell (11c1c37f851c82e70ff6c80c92926a4b)
REM
REM compiler GCC version 9.2.1 20190827 (Red Hat 9.2.1-1)
REM options -cpp -mtune=generic -march=x86-64 -g -O0 -fpre-include=/usr/include/finclude/math-vector-fortran.h
REM seed -143505055 -1728433434 868269896 923828425 -782767409 487180068 240080701 2043705251 -504429847 -73036718 -1528733590 -1532405740 -1996516808 -385218741 -89021267 -815316488 245064367 1129869504 -1129621893 1793442923 -1786767612 -337828061 1234870916 -1462728813 -551224470 -196692632 -1694757259 -1738161409 600705716 189607778 -1689409147 -2015751256 431143315
REM
CELL 1.54180   50.00000   50.00000   50.00000   90.00000   90.00000   90.00000
LATT -1
SFAC C  
C      1  0.4482060000000  0.5603550000000  0.5021620000000 1.0
C      1  0.4848900000000  0.5669790000000  0.5306520000000 1.0
C      1  0.4845400000000  0.5241560000000  0.5587870000000 1.0
C      1  0.4810320000000  0.5027760000000  0.4282470000000 1.0
C      1  0.5690030000000  0.4909940000000  0.5252640000000 1.0
C      1  0.4535080000000  0.5372390000000  0.5217420000000 1.0
C      1  0.5565080000000  0.5373210000000  0.5296290000000 1.0
C      1  0.4970250000000  0.4785580000000  0.5320130000000 1.0
C      1  0.4516560000000  0.4389550000000  0.4813100000000 1.0
C      1  0.4513570000000  0.5005770000000  0.4395870000000 1.0
C      1  0.5626930000000  0.4709160000000  0.5055040000000 1.0
C      1  0.4316570000000  0.5117090000000  0.5278920000000 1.0
C      1  0.4506710000000  0.4871900000000  0.5355840000000 1.0
C      1  0.5386370000000  0.4532550000000  0.5115990000000 1.0
C      1  0.5689960000000  0.5172940000000  0.5119760000000 1.0
C      1  0.4327920000000  0.4574820000000  0.4701730000000 1.0
C      1  0.5141630000000  0.4974400000000  0.4740140000000 1.0
C      1  0.4272110000000  0.4680000000000  0.4982620000000 1.0
C      1  0.4913330000000  0.5047740000000  0.5825430000000 1.0
C      1  0.5379310000000  0.4806260000000  0.5675690000000 1.0
C      1  0.5235760000000  0.5057500000000  0.4990630000000 1.0
C      1  0.4307560000000  0.4965510000000  0.4998050000000 1.0
C      1  0.4762750000000  0.5753540000000  0.4740830000000 1.0
C      1  0.4685080000000  0.4426370000000  0.5201120000000 1.0
C      1  0.5310660000000  0.5276400000000  0.5724420000000 1.0
C      1  0.5670860000000  0.5124370000000  0.4831700000000 1.0
C      1  0.5216300000000  0.5513990000000  0.4971450000000 1.0
C      1  0.4957990000000  0.5245330000000  0.4333810000000 1.0
C      1  0.5602860000000  0.5346110000000  0.4650350000000 1.0
C      1  0.4935440000000  0.4566510000000  0.4369650000000 1.0
C      1  0.4695830000000  0.4634460000000  0.4530950000000 1.0
C      1  0.5581990000000  0.4947960000000  0.5527040000000 1.0
C      1  0.5368350000000  0.4441860000000  0.4611180000000 1.0
C      1  0.5025900000000  0.4281060000000  0.4795950000000 1.0
C      1  0.4785230000000  0.4994560000000  0.5340080000000 1.0
C      1  0.4461720000000  0.4622020000000  0.5213760000000 1.0
C      1  0.5090010000000  0.5428130000000  0.5614660000000 1.0
C      1  0.4723340000000  0.5752050000000  0.5047670000000 1.0
C      1  0.5402190000000  0.5478170000000  0.4486020000000 1.0
C      1  0.5258320000000  0.4898270000000  0.4494390000000 1.0
C      1  0.4695880000000  0.5468180000000  0.5449260000000 1.0
C      1  0.4750540000000  0.4299400000000  0.4940430000000 1.0
C      1  0.5117640000000  0.4379860000000  0.5493830000000 1.0
C      1  0.5149780000000  0.4793680000000  0.5108400000000 1.0
C      1  0.5124570000000  0.5627510000000  0.5404280000000 1.0
C      1  0.5420140000000  0.5555850000000  0.4761040000000 1.0
C      1  0.4512660000000  0.5132830000000  0.4618630000000 1.0
C      1  0.4740860000000  0.4760270000000  0.4786090000000 1.0
C      1  0.5349770000000  0.5563460000000  0.5226090000000 1.0
C      1  0.4487910000000  0.5604500000000  0.4724690000000 1.0
C      1  0.5015330000000  0.4745890000000  0.4846560000000 1.0
C      1  0.4482090000000  0.5366610000000  0.4584330000000 1.0
C      1  0.5104470000000  0.5483090000000  0.4397250000000 1.0
C      1  0.4431440000000  0.4732340000000  0.4466160000000 1.0
C      1  0.4894740000000  0.4519420000000  0.5386400000000 1.0
C      1  0.5202470000000  0.5010290000000  0.5814940000000 1.0
C      1  0.5543850000000  0.5238520000000  0.5554110000000 1.0
C      1  0.5362550000000  0.4400840000000  0.5378850000000 1.0
C      1  0.5041570000000  0.5274060000000  0.4985450000000 1.0
C      1  0.5634580000000  0.4832310000000  0.4791830000000 1.0
C      1  0.5038440000000  0.4831800000000  0.4309030000000 1.0
C      1  0.4932170000000  0.5622100000000  0.4571740000000 1.0
C      1  0.5296120000000  0.4346870000000  0.4880450000000 1.0
C      1  0.4596800000000  0.4997460000000  0.4889890000000 1.0
C      1  0.5469480000000  0.4717870000000  0.4576350000000 1.0
C      1  0.4768040000000  0.5184240000000  0.5087650000000 1.0
C      1  0.5327060000000  0.4523310000000  0.5630360000000 1.0
C      1  0.5092820000000  0.4367300000000  0.4517120000000 1.0
END
