TITL C-884142-5251-281 0.536981475864092 125000 -2485.16893352734 0 0 18 (C1) n - 1
REM
REM in /home/nfs/bkarasulu/CARBON/AIRSS/Generating-Clusters/ReaxFF-fromJPCA2015/Units_Real/with-SteepDescent/Only-C1/SD-CG/Try1-3A/FIRE-CG
REM
REM
REM
REM
REM
REM ./C.cell (11c1c37f851c82e70ff6c80c92926a4b)
REM
REM compiler GCC version 9.2.1 20190827 (Red Hat 9.2.1-1)
REM options -cpp -mtune=generic -march=x86-64 -g -O0 -fpre-include=/usr/include/finclude/math-vector-fortran.h
REM seed -1518616515 1925914275 -1803856235 -274583858 -210895394 1670405210 385166616 601357492 -670153140 6564706 -1934814117 -877372687 -1609303541 -1527772554 2039300254 -1927408216 -506312792 1500015436 178180087 1418156090 1474322959 -1429485036 1884403616 -921323858 -108068616 75171745 -1377594664 -1411022609 -1830207892 518002625 1736422402 869438952 1397492850
REM
CELL 1.54180   50.00000   50.00000   50.00000   90.00000   90.00000   90.00000
LATT -1
SFAC C  
C      1  0.4511900000000  0.4896090000000  0.4874360000000 1.0
C      1  0.5448110000000  0.5006870000000  0.5204280000000 1.0
C      1  0.4905170000000  0.5443580000000  0.5200430000000 1.0
C      1  0.5109440000000  0.4759340000000  0.5292850000000 1.0
C      1  0.4451170000000  0.5130970000000  0.4859520000000 1.0
C      1  0.5451270000000  0.4644150000000  0.5000670000000 1.0
C      1  0.4441850000000  0.5388090000000  0.4872050000000 1.0
C      1  0.5210080000000  0.5043540000000  0.5353680000000 1.0
C      1  0.5195670000000  0.4674830000000  0.4833250000000 1.0
C      1  0.5179540000000  0.4751190000000  0.4572080000000 1.0
C      1  0.4973480000000  0.4720160000000  0.5022310000000 1.0
C      1  0.5326950000000  0.4561160000000  0.5271920000000 1.0
C      1  0.4723240000000  0.4815530000000  0.4942100000000 1.0
C      1  0.5165080000000  0.4819300000000  0.4339140000000 1.0
C      1  0.4524620000000  0.5613620000000  0.4941180000000 1.0
C      1  0.4726790000000  0.5587090000000  0.5084340000000 1.0
C      1  0.5055850000000  0.5261870000000  0.5285000000000 1.0
C      1  0.5599780000000  0.4882630000000  0.5050860000000 1.0
END
