TITL C-883730-8503-326 11.6670395584201 125000 -13871.9508384607 0 0 95 (C1) n - 1
REM
REM in /home/nfs/bkarasulu/CARBON/AIRSS/Generating-Clusters/ReaxFF-fromJPCA2015/Units_Real/with-SteepDescent/Only-C1/SD-CG/Try1-3A/FIRE-CG
REM
REM
REM
REM
REM
REM ./C.cell (11c1c37f851c82e70ff6c80c92926a4b)
REM
REM compiler GCC version 9.2.1 20190827 (Red Hat 9.2.1-1)
REM options -cpp -mtune=generic -march=x86-64 -g -O0 -fpre-include=/usr/include/finclude/math-vector-fortran.h
REM seed -1745544907 -411624594 551431660 2031178952 -242705798 2086339758 1752357958 -70543351 -904440104 -139593975 -785526699 -1185140856 1336916079 1512038190 447629725 1618431112 -99330687 -1576093462 1213752243 -1413607692 -1928973886 -1744843679 618829398 738194143 311349261 791342793 -919407232 1675907039 354310612 -1756501735 1876884918 -1766119864 1628237298
REM
CELL 1.54180   50.00000   50.00000   50.00000   90.00000   90.00000   90.00000
LATT -1
SFAC C  
C      1  0.5735530000000  0.5509770000000  0.5032560000000 1.0
C      1  0.5127290000000  0.4791940000000  0.5269330000000 1.0
C      1  0.5281880000000  0.4681550000000  0.5732320000000 1.0
C      1  0.5237470000000  0.5204620000000  0.5757260000000 1.0
C      1  0.4767770000000  0.5324890000000  0.4317770000000 1.0
C      1  0.5469260000000  0.5052560000000  0.4369670000000 1.0
C      1  0.4364100000000  0.4487880000000  0.4908810000000 1.0
C      1  0.5483510000000  0.4687110000000  0.5518050000000 1.0
C      1  0.4978880000000  0.4134080000000  0.4816620000000 1.0
C      1  0.4971460000000  0.5768670000000  0.4453770000000 1.0
C      1  0.4697980000000  0.4182710000000  0.4729040000000 1.0
C      1  0.4428430000000  0.4921140000000  0.4761090000000 1.0
C      1  0.4351480000000  0.5205020000000  0.5465340000000 1.0
C      1  0.4959110000000  0.5868320000000  0.4856610000000 1.0
C      1  0.4599110000000  0.4326370000000  0.4959550000000 1.0
C      1  0.5485460000000  0.5046190000000  0.4668450000000 1.0
C      1  0.4271570000000  0.5435720000000  0.5002940000000 1.0
C      1  0.4544160000000  0.4975840000000  0.4344680000000 1.0
C      1  0.4636540000000  0.5197190000000  0.5019150000000 1.0
C      1  0.5076630000000  0.5892390000000  0.5115790000000 1.0
C      1  0.5650800000000  0.4325320000000  0.4699000000000 1.0
C      1  0.4974420000000  0.5178740000000  0.4689010000000 1.0
C      1  0.5088990000000  0.5988850000000  0.5646810000000 1.0
C      1  0.4954600000000  0.5847860000000  0.5424560000000 1.0
C      1  0.4580770000000  0.4286210000000  0.5408330000000 1.0
C      1  0.5119180000000  0.4369950000000  0.4727230000000 1.0
C      1  0.5573040000000  0.5308570000000  0.4716950000000 1.0
C      1  0.5033190000000  0.4340260000000  0.5518580000000 1.0
C      1  0.5450970000000  0.4224180000000  0.4542620000000 1.0
C      1  0.4743000000000  0.4811900000000  0.4220880000000 1.0
C      1  0.4225350000000  0.5394770000000  0.4722490000000 1.0
C      1  0.4786090000000  0.4673730000000  0.5781940000000 1.0
C      1  0.4739430000000  0.5388340000000  0.5208410000000 1.0
C      1  0.5157310000000  0.5882070000000  0.4633870000000 1.0
C      1  0.4494650000000  0.5207260000000  0.4758270000000 1.0
C      1  0.4901780000000  0.4760380000000  0.4894050000000 1.0
C      1  0.5077290000000  0.5605600000000  0.5539330000000 1.0
C      1  0.5594800000000  0.4941250000000  0.5454850000000 1.0
C      1  0.5416840000000  0.5466690000000  0.4529890000000 1.0
C      1  0.4861570000000  0.5130290000000  0.5597410000000 1.0
C      1  0.4443230000000  0.4551030000000  0.5408700000000 1.0
C      1  0.5722680000000  0.4960760000000  0.5191780000000 1.0
C      1  0.5030850000000  0.5348590000000  0.5156030000000 1.0
C      1  0.4626540000000  0.5864650000000  0.5432600000000 1.0
C      1  0.5479750000000  0.4768010000000  0.4296990000000 1.0
C      1  0.5528290000000  0.5439590000000  0.5460750000000 1.0
C      1  0.5290720000000  0.4738610000000  0.5043020000000 1.0
C      1  0.4344400000000  0.4809650000000  0.4490400000000 1.0
C      1  0.5188040000000  0.4936190000000  0.5855550000000 1.0
C      1  0.5053000000000  0.4493820000000  0.4335180000000 1.0
C      1  0.5690760000000  0.4685080000000  0.5082310000000 1.0
C      1  0.4449000000000  0.5005220000000  0.5647760000000 1.0
C      1  0.4609420000000  0.5249520000000  0.5617250000000 1.0
C      1  0.5336630000000  0.4959800000000  0.4889770000000 1.0
C      1  0.4780790000000  0.4595690000000  0.4434790000000 1.0
C      1  0.5588440000000  0.5282860000000  0.5006420000000 1.0
C      1  0.4973850000000  0.5044660000000  0.5280620000000 1.0
C      1  0.5332540000000  0.5772910000000  0.5143210000000 1.0
C      1  0.4281230000000  0.4919600000000  0.5061820000000 1.0
C      1  0.4692320000000  0.4790610000000  0.4708980000000 1.0
C      1  0.5108610000000  0.4932160000000  0.4746340000000 1.0
C      1  0.4264040000000  0.5173000000000  0.5189450000000 1.0
C      1  0.4366390000000  0.4540460000000  0.4611610000000 1.0
C      1  0.5334890000000  0.4472820000000  0.4910270000000 1.0
C      1  0.4983900000000  0.5399330000000  0.4860260000000 1.0
C      1  0.5722030000000  0.4593040000000  0.4784500000000 1.0
C      1  0.4542090000000  0.4725970000000  0.5618960000000 1.0
C      1  0.5528380000000  0.5703920000000  0.4938670000000 1.0
C      1  0.5532090000000  0.4515170000000  0.5268750000000 1.0
C      1  0.4498270000000  0.5625670000000  0.4967020000000 1.0
C      1  0.5403770000000  0.5717410000000  0.4673840000000 1.0
C      1  0.4959510000000  0.4559160000000  0.5333640000000 1.0
C      1  0.5028850000000  0.5214410000000  0.4228920000000 1.0
C      1  0.4862390000000  0.4448070000000  0.5080820000000 1.0
C      1  0.5047700000000  0.4206720000000  0.5108700000000 1.0
C      1  0.5000850000000  0.4929420000000  0.4160350000000 1.0
C      1  0.4678850000000  0.5167220000000  0.4534960000000 1.0
C      1  0.5176810000000  0.4251380000000  0.4460770000000 1.0
C      1  0.4774310000000  0.5581110000000  0.4463580000000 1.0
C      1  0.5630590000000  0.4694310000000  0.4529170000000 1.0
C      1  0.5255230000000  0.5540940000000  0.5332280000000 1.0
C      1  0.4774590000000  0.5618610000000  0.4788360000000 1.0
C      1  0.5001870000000  0.5368250000000  0.5687040000000 1.0
C      1  0.4315910000000  0.4652510000000  0.5149330000000 1.0
C      1  0.5295920000000  0.5288230000000  0.4320950000000 1.0
C      1  0.4774190000000  0.4957980000000  0.5079800000000 1.0
C      1  0.5823410000000  0.5227480000000  0.5100640000000 1.0
C      1  0.5492830000000  0.5195170000000  0.5603740000000 1.0
C      1  0.5342020000000  0.4316240000000  0.5153380000000 1.0
C      1  0.4902860000000  0.4925450000000  0.5831250000000 1.0
C      1  0.5040210000000  0.4519600000000  0.5744870000000 1.0
C      1  0.4574980000000  0.5647620000000  0.5253690000000 1.0
C      1  0.4845440000000  0.4165200000000  0.5379550000000 1.0
C      1  0.4589440000000  0.4374620000000  0.4531250000000 1.0
C      1  0.5192630000000  0.4708360000000  0.4216100000000 1.0
END
