TITL C-883732-77-17 -104600.097981069 125000 -4603.76700934513 0 0 32 (C1) n - 1
REM
REM in /home/nfs/bkarasulu/CARBON/AIRSS/Generating-Clusters/ReaxFF-fromJPCA2015/Units_Real/with-SteepDescent/Only-C1/SD-CG/Try1-3A/FIRE-CG
REM
REM
REM
REM
REM
REM ./C.cell (11c1c37f851c82e70ff6c80c92926a4b)
REM
REM compiler GCC version 9.2.1 20190827 (Red Hat 9.2.1-1)
REM options -cpp -mtune=generic -march=x86-64 -g -O0 -fpre-include=/usr/include/finclude/math-vector-fortran.h
REM seed 809320489 755362352 428973868 888263027 93789837 591760545 1986194771 2089424393 -1305204657 -1287710812 -2097424711 1312622505 723392743 1889946762 -740233160 239382330 -1312188531 1659849140 -1758425838 -765493839 15763629 799008073 43149664 652252584 -1402336089 -1397901541 649592627 1987134852 614751598 557172534 -1615645284 363611128 -387474520
REM
CELL 1.54180   50.00000   50.00000   50.00000   90.00000   90.00000   90.00000
LATT -1
SFAC C  
C      1  0.4726050000000  0.4778910000000  0.4775600000000 1.0
C      1  0.4701950000000  0.4868890000000  0.5340440000000 1.0
C      1  0.5301610000000  0.4692220000000  0.5562950000000 1.0
C      1  0.5117270000000  0.5378290000000  0.4918380000000 1.0
C      1  0.4331310000000  0.5344280000000  0.5019980000000 1.0
C      1  0.4718460000000  0.5073290000000  0.4792120000000 1.0
C      1  0.4556930000000  0.4651950000000  0.4979220000000 1.0
C      1  0.5399410000000  0.5291520000000  0.4979300000000 1.0
C      1  0.4929910000000  0.4347540000000  0.5050850000000 1.0
C      1  0.5163040000000  0.4797560000000  0.4506830000000 1.0
C      1  0.5443870000000  0.4810220000000  0.5116810000000 1.0
C      1  0.4876560000000  0.5104850000000  0.5275580000000 1.0
C      1  0.5460670000000  0.4891900000000  0.5403700000000 1.0
C      1  0.4900090000000  0.5193080000000  0.4987820000000 1.0
C      1  0.5127690000000  0.5143100000000  0.5391570000000 1.0
C      1  0.5402660000000  0.4930700000000  0.4627820000000 1.0
C      1  0.5086870000000  0.5678400000000  0.4134460000000 1.0
C      1  0.5466220000000  0.5007950000000  0.4904290000000 1.0
C      1  0.5508850000000  0.5378560000000  0.5240680000000 1.0
C      1  0.5114800000000  0.4468260000000  0.4873480000000 1.0
C      1  0.5392970000000  0.5188490000000  0.5450360000000 1.0
C      1  0.4682000000000  0.4441910000000  0.5150440000000 1.0
C      1  0.5065870000000  0.5684410000000  0.4634830000000 1.0
C      1  0.5121670000000  0.4554220000000  0.5366040000000 1.0
C      1  0.5271880000000  0.4575750000000  0.5104810000000 1.0
C      1  0.5076520000000  0.5681960000000  0.4378140000000 1.0
C      1  0.4461500000000  0.4844690000000  0.5176190000000 1.0
C      1  0.4972970000000  0.4652040000000  0.4684090000000 1.0
C      1  0.4299020000000  0.5071300000000  0.5067260000000 1.0
C      1  0.4445330000000  0.5184770000000  0.4819800000000 1.0
C      1  0.5053950000000  0.5685920000000  0.4925470000000 1.0
C      1  0.4822090000000  0.4603050000000  0.5360690000000 1.0
END
