TITL C-883735-9890-114 0.564196586892697 125000 -12016.3161860834 0 0 79 (C1) n - 1
REM
REM in /home/nfs/bkarasulu/CARBON/AIRSS/Generating-Clusters/ReaxFF-fromJPCA2015/Units_Real/with-SteepDescent/Only-C1/SD-CG/Try1-3A/FIRE-CG
REM
REM
REM
REM
REM
REM ./C.cell (11c1c37f851c82e70ff6c80c92926a4b)
REM
REM compiler GCC version 9.2.1 20190827 (Red Hat 9.2.1-1)
REM options -cpp -mtune=generic -march=x86-64 -g -O0 -fpre-include=/usr/include/finclude/math-vector-fortran.h
REM seed -1434358925 1006449322 68904244 826763254 1395325066 -11968845 -225213933 1990730053 1944395328 -1785972328 -1062604843 43075861 -1662966841 -427032296 -1109781894 1654047684 1831415138 1246949082 1811998281 -33272269 2130411399 -1371973216 1288291902 739409542 28626299 -477770007 -1793319755 -1863397642 -1330184926 1397950718 -1627835673 1332841715 230846054
REM
CELL 1.54180   50.00000   50.00000   50.00000   90.00000   90.00000   90.00000
LATT -1
SFAC C  
C      1  0.4656040000000  0.5231960000000  0.4203430000000 1.0
C      1  0.5536210000000  0.5695810000000  0.5406170000000 1.0
C      1  0.5722490000000  0.4766190000000  0.5416040000000 1.0
C      1  0.4656100000000  0.4867670000000  0.4852020000000 1.0
C      1  0.4147990000000  0.5170010000000  0.4965740000000 1.0
C      1  0.5161240000000  0.4763860000000  0.4255060000000 1.0
C      1  0.5769910000000  0.4710500000000  0.5133020000000 1.0
C      1  0.4773380000000  0.5440180000000  0.4377110000000 1.0
C      1  0.4765710000000  0.5624500000000  0.5655930000000 1.0
C      1  0.4901650000000  0.5009330000000  0.4773380000000 1.0
C      1  0.5491320000000  0.5798600000000  0.5000870000000 1.0
C      1  0.4497890000000  0.4723500000000  0.4326300000000 1.0
C      1  0.5687670000000  0.5645310000000  0.5156980000000 1.0
C      1  0.5419600000000  0.4772990000000  0.4675760000000 1.0
C      1  0.4506420000000  0.5426820000000  0.5089540000000 1.0
C      1  0.4304130000000  0.5102250000000  0.4527090000000 1.0
C      1  0.4818780000000  0.5074000000000  0.5239810000000 1.0
C      1  0.4707610000000  0.4539340000000  0.4421440000000 1.0
C      1  0.4341110000000  0.4821860000000  0.5411860000000 1.0
C      1  0.4169890000000  0.4880070000000  0.4961970000000 1.0
C      1  0.5407960000000  0.4428390000000  0.5265450000000 1.0
C      1  0.4282760000000  0.4689960000000  0.5148010000000 1.0
C      1  0.5516290000000  0.5478440000000  0.4599170000000 1.0
C      1  0.5124880000000  0.4352500000000  0.5219870000000 1.0
C      1  0.5049480000000  0.5824200000000  0.5273810000000 1.0
C      1  0.5079350000000  0.4957930000000  0.5293900000000 1.0
C      1  0.5432430000000  0.4788180000000  0.4361750000000 1.0
C      1  0.4257420000000  0.5106540000000  0.5439900000000 1.0
C      1  0.4692460000000  0.4832910000000  0.5133570000000 1.0
C      1  0.5721930000000  0.5055400000000  0.5470820000000 1.0
C      1  0.4947390000000  0.4485860000000  0.5407580000000 1.0
C      1  0.4299680000000  0.4635290000000  0.4516170000000 1.0
C      1  0.5104390000000  0.4186380000000  0.4740280000000 1.0
C      1  0.4945600000000  0.5562090000000  0.5374340000000 1.0
C      1  0.5583510000000  0.5032410000000  0.4786200000000 1.0
C      1  0.5682560000000  0.5366030000000  0.5071680000000 1.0
C      1  0.4411810000000  0.4464310000000  0.4993910000000 1.0
C      1  0.4688020000000  0.4361630000000  0.4923380000000 1.0
C      1  0.5442750000000  0.5073750000000  0.4310100000000 1.0
C      1  0.4992720000000  0.4540670000000  0.4358780000000 1.0
C      1  0.4331300000000  0.4415300000000  0.4708130000000 1.0
C      1  0.5151380000000  0.5065440000000  0.4235820000000 1.0
C      1  0.5194160000000  0.5381810000000  0.5441260000000 1.0
C      1  0.4477470000000  0.5024490000000  0.4311280000000 1.0
C      1  0.4790300000000  0.5358270000000  0.5146730000000 1.0
C      1  0.4946060000000  0.5270640000000  0.4202070000000 1.0
C      1  0.4743110000000  0.5470450000000  0.4664320000000 1.0
C      1  0.5319970000000  0.5006130000000  0.5758140000000 1.0
C      1  0.4790550000000  0.4905590000000  0.5710670000000 1.0
C      1  0.5509480000000  0.4494050000000  0.4770930000000 1.0
C      1  0.4689180000000  0.4604300000000  0.5339700000000 1.0
C      1  0.5031120000000  0.5001360000000  0.5784920000000 1.0
C      1  0.5342870000000  0.5870580000000  0.5249510000000 1.0
C      1  0.4386330000000  0.5289060000000  0.5602090000000 1.0
C      1  0.4610500000000  0.4353660000000  0.4639350000000 1.0
C      1  0.4582910000000  0.4753990000000  0.5567570000000 1.0
C      1  0.4355780000000  0.4864500000000  0.4718100000000 1.0
C      1  0.5439590000000  0.5469630000000  0.5569370000000 1.0
C      1  0.4969970000000  0.4287670000000  0.4980440000000 1.0
C      1  0.5123590000000  0.4858350000000  0.4742200000000 1.0
C      1  0.5215060000000  0.5414410000000  0.4858380000000 1.0
C      1  0.5369100000000  0.5650690000000  0.4767300000000 1.0
C      1  0.5523620000000  0.5191210000000  0.5637760000000 1.0
C      1  0.4936240000000  0.5336100000000  0.4847320000000 1.0
C      1  0.4254910000000  0.5306230000000  0.4723270000000 1.0
C      1  0.4556560000000  0.5457230000000  0.5668360000000 1.0
C      1  0.5793970000000  0.4963710000000  0.4989260000000 1.0
C      1  0.5098520000000  0.4725080000000  0.5485740000000 1.0
C      1  0.5823550000000  0.5157140000000  0.5211050000000 1.0
C      1  0.5274000000000  0.5168100000000  0.5259000000000 1.0
C      1  0.5368950000000  0.4276290000000  0.4644770000000 1.0
C      1  0.5128280000000  0.4306110000000  0.4472890000000 1.0
C      1  0.5322360000000  0.4722120000000  0.5678110000000 1.0
C      1  0.5407870000000  0.5242220000000  0.4992650000000 1.0
C      1  0.4269740000000  0.5290770000000  0.5203320000000 1.0
C      1  0.5595190000000  0.4488310000000  0.5047320000000 1.0
C      1  0.4485230000000  0.5472990000000  0.4804170000000 1.0
C      1  0.5585690000000  0.5213180000000  0.4536160000000 1.0
C      1  0.5507010000000  0.4585210000000  0.5492390000000 1.0
END
