TITL C-884133-6611-19 -122973.083799577 125000 -11095.7987503593 0 0 76 (C1) n - 1
REM
REM in /home/nfs/bkarasulu/CARBON/AIRSS/Generating-Clusters/ReaxFF-fromJPCA2015/Units_Real/with-SteepDescent/Only-C1/SD-CG/Try1-3A/FIRE-CG
REM
REM
REM
REM
REM
REM ./C.cell (11c1c37f851c82e70ff6c80c92926a4b)
REM
REM compiler GCC version 9.2.1 20190827 (Red Hat 9.2.1-1)
REM options -cpp -mtune=generic -march=x86-64 -g -O0 -fpre-include=/usr/include/finclude/math-vector-fortran.h
REM seed 427072890 720095272 -1576643704 -2142549441 295572758 1091588020 1392607218 1241089835 918861455 -885091522 -670703716 -464330014 2132961824 -1232558691 1525774376 1157963616 -1869380309 -2104455283 -1574969668 197801168 1946891547 -141999831 274014809 1796906970 -1890145114 -562659051 1237378108 -1068012238 -1446795248 630168596 -202789628 -1998361513 -1413963996
REM
CELL 1.54180   50.00000   50.00000   50.00000   90.00000   90.00000   90.00000
LATT -1
SFAC C  
C      1  0.4408550000000  0.5601030000000  0.4999730000000 1.0
C      1  0.5431710000000  0.4496290000000  0.5649980000000 1.0
C      1  0.4483710000000  0.4977420000000  0.4227560000000 1.0
C      1  0.4867720000000  0.4449770000000  0.5776710000000 1.0
C      1  0.5898290000000  0.5167320000000  0.5088760000000 1.0
C      1  0.4565240000000  0.5251610000000  0.5659440000000 1.0
C      1  0.5413910000000  0.5276470000000  0.4393800000000 1.0
C      1  0.4943720000000  0.4794110000000  0.4268230000000 1.0
C      1  0.4526310000000  0.4796070000000  0.4652220000000 1.0
C      1  0.4292680000000  0.5325340000000  0.4946770000000 1.0
C      1  0.5620870000000  0.4498980000000  0.5139350000000 1.0
C      1  0.4895480000000  0.4605990000000  0.5377770000000 1.0
C      1  0.4827510000000  0.4392330000000  0.4715980000000 1.0
C      1  0.4395120000000  0.5562980000000  0.5272180000000 1.0
C      1  0.4257800000000  0.5179490000000  0.5208310000000 1.0
C      1  0.5416330000000  0.4768000000000  0.4450730000000 1.0
C      1  0.4346850000000  0.4861750000000  0.5254250000000 1.0
C      1  0.4253250000000  0.4634580000000  0.5070230000000 1.0
C      1  0.5218820000000  0.5779050000000  0.5333990000000 1.0
C      1  0.5567830000000  0.4606180000000  0.5413800000000 1.0
C      1  0.4842490000000  0.5285720000000  0.5658060000000 1.0
C      1  0.4504310000000  0.4574710000000  0.4457730000000 1.0
C      1  0.5713020000000  0.5350150000000  0.5242060000000 1.0
C      1  0.5075570000000  0.5815800000000  0.4810220000000 1.0
C      1  0.5378100000000  0.4997640000000  0.5760970000000 1.0
C      1  0.4360680000000  0.5135970000000  0.4434250000000 1.0
C      1  0.4928980000000  0.5415010000000  0.4547350000000 1.0
C      1  0.4337850000000  0.4434260000000  0.4870400000000 1.0
C      1  0.5016650000000  0.4869850000000  0.5335040000000 1.0
C      1  0.5502060000000  0.5002020000000  0.4296070000000 1.0
C      1  0.4534400000000  0.4360610000000  0.4658160000000 1.0
C      1  0.5219160000000  0.5127540000000  0.4997350000000 1.0
C      1  0.5368230000000  0.5841640000000  0.4746660000000 1.0
C      1  0.4866400000000  0.5091980000000  0.5217080000000 1.0
C      1  0.5379720000000  0.4417360000000  0.4988290000000 1.0
C      1  0.5275170000000  0.4907390000000  0.5191720000000 1.0
C      1  0.5082180000000  0.5518870000000  0.5339630000000 1.0
C      1  0.4919240000000  0.5525230000000  0.4841140000000 1.0
C      1  0.4708410000000  0.5344580000000  0.4405800000000 1.0
C      1  0.4911530000000  0.4096470000000  0.5178840000000 1.0
C      1  0.4967960000000  0.5078380000000  0.4206620000000 1.0
C      1  0.5510310000000  0.4834490000000  0.4746670000000 1.0
C      1  0.5520070000000  0.5353720000000  0.4659090000000 1.0
C      1  0.4278930000000  0.4712500000000  0.4796560000000 1.0
C      1  0.4670160000000  0.5702590000000  0.4882960000000 1.0
C      1  0.4675590000000  0.4577230000000  0.5572220000000 1.0
C      1  0.4782070000000  0.4240620000000  0.4979900000000 1.0
C      1  0.5807090000000  0.4886450000000  0.5131840000000 1.0
C      1  0.5445320000000  0.5124920000000  0.4817500000000 1.0
C      1  0.5279640000000  0.4353760000000  0.4743540000000 1.0
C      1  0.5391820000000  0.4740210000000  0.5776690000000 1.0
C      1  0.5376690000000  0.5249500000000  0.5653270000000 1.0
C      1  0.5097610000000  0.5379950000000  0.5600310000000 1.0
C      1  0.5154310000000  0.4406650000000  0.5727020000000 1.0
C      1  0.4650560000000  0.4731260000000  0.4258510000000 1.0
C      1  0.5624940000000  0.5596670000000  0.5098890000000 1.0
C      1  0.5579130000000  0.4900200000000  0.5349250000000 1.0
C      1  0.4827970000000  0.5926520000000  0.4857480000000 1.0
C      1  0.5123140000000  0.5275000000000  0.4365950000000 1.0
C      1  0.4685900000000  0.5185110000000  0.4170430000000 1.0
C      1  0.5541900000000  0.5609120000000  0.4814370000000 1.0
C      1  0.4455570000000  0.4767270000000  0.5544000000000 1.0
C      1  0.5710310000000  0.4692720000000  0.4938140000000 1.0
C      1  0.5013340000000  0.4827260000000  0.4857580000000 1.0
C      1  0.4584360000000  0.4974390000000  0.5665310000000 1.0
C      1  0.5582080000000  0.5190820000000  0.5454010000000 1.0
C      1  0.5095820000000  0.4391170000000  0.4543520000000 1.0
C      1  0.4614340000000  0.4978120000000  0.5142660000000 1.0
C      1  0.5026290000000  0.5346300000000  0.5094040000000 1.0
C      1  0.5157040000000  0.4634440000000  0.4388890000000 1.0
C      1  0.5268140000000  0.4723060000000  0.4945860000000 1.0
C      1  0.5510990000000  0.5814920000000  0.5265090000000 1.0
C      1  0.4327480000000  0.5226660000000  0.4679690000000 1.0
C      1  0.4354130000000  0.5341240000000  0.5428170000000 1.0
C      1  0.4956870000000  0.4366780000000  0.5204720000000 1.0
C      1  0.4796260000000  0.4722410000000  0.4762660000000 1.0
END
