TITL C-883738-3659-351 -1.78284531975472 125000 -23047.3387945472 0 0 152 (C1) n - 1
REM
REM in /home/nfs/bkarasulu/CARBON/AIRSS/Generating-Clusters/ReaxFF-fromJPCA2015/Units_Real/with-SteepDescent/Only-C1/SD-CG/Try1-3A/FIRE-CG
REM
REM
REM
REM
REM
REM ./C.cell (11c1c37f851c82e70ff6c80c92926a4b)
REM
REM compiler GCC version 9.2.1 20190827 (Red Hat 9.2.1-1)
REM options -cpp -mtune=generic -march=x86-64 -g -O0 -fpre-include=/usr/include/finclude/math-vector-fortran.h
REM seed 249669183 -103484606 1757434653 -384433980 -1013834564 1353858920 96306647 -1101569131 401090284 1998816402 -1973868981 -958184670 129577398 1672890832 1590088406 1379389144 -930981397 -1908898809 1791273001 -925103669 1157393558 29496986 -1595693615 -2038091423 -1281653647 -344003064 -130202120 -984388465 -1572409655 920931628 -1610506586 93386121 -340703224
REM
CELL 1.54180   50.00000   50.00000   50.00000   90.00000   90.00000   90.00000
LATT -1
SFAC C  
C      1  0.4616200000000  0.4953050000000  0.5211950000000 1.0
C      1  0.4795540000000  0.5386230000000  0.5077060000000 1.0
C      1  0.4378690000000  0.5312190000000  0.5810100000000 1.0
C      1  0.4719470000000  0.6016170000000  0.5496300000000 1.0
C      1  0.5777320000000  0.5262510000000  0.4403050000000 1.0
C      1  0.4913720000000  0.4043930000000  0.4582900000000 1.0
C      1  0.5242540000000  0.5310570000000  0.4464090000000 1.0
C      1  0.4523160000000  0.4227140000000  0.4925540000000 1.0
C      1  0.4070400000000  0.5199990000000  0.4698590000000 1.0
C      1  0.4654450000000  0.4014570000000  0.5466170000000 1.0
C      1  0.4971840000000  0.5430130000000  0.5311040000000 1.0
C      1  0.5427800000000  0.4812740000000  0.4717530000000 1.0
C      1  0.4074980000000  0.5015140000000  0.5243320000000 1.0
C      1  0.5033220000000  0.6061130000000  0.5100230000000 1.0
C      1  0.5070620000000  0.5776430000000  0.4138410000000 1.0
C      1  0.5435410000000  0.4989630000000  0.4093490000000 1.0
C      1  0.4589430000000  0.5431680000000  0.5655920000000 1.0
C      1  0.4887630000000  0.4918360000000  0.5108760000000 1.0
C      1  0.4747590000000  0.4051190000000  0.5000580000000 1.0
C      1  0.5516690000000  0.4878000000000  0.5635840000000 1.0
C      1  0.5090460000000  0.4271480000000  0.4654120000000 1.0
C      1  0.4490300000000  0.4817050000000  0.5903490000000 1.0
C      1  0.4624960000000  0.4495440000000  0.5087420000000 1.0
C      1  0.4951200000000  0.5926190000000  0.5653010000000 1.0
C      1  0.5420580000000  0.4470670000000  0.5643360000000 1.0
C      1  0.5229340000000  0.4275170000000  0.4393800000000 1.0
C      1  0.4755920000000  0.6026000000000  0.5198820000000 1.0
C      1  0.4469970000000  0.5889430000000  0.5476440000000 1.0
C      1  0.4300100000000  0.4193010000000  0.5123630000000 1.0
C      1  0.5092560000000  0.5920440000000  0.4853150000000 1.0
C      1  0.4158040000000  0.4828850000000  0.5460890000000 1.0
C      1  0.4313760000000  0.5797040000000  0.5271450000000 1.0
C      1  0.5764940000000  0.4835140000000  0.5486670000000 1.0
C      1  0.4752270000000  0.5230720000000  0.3968520000000 1.0
C      1  0.5353760000000  0.4054490000000  0.5439710000000 1.0
C      1  0.4784160000000  0.5694030000000  0.4191780000000 1.0
C      1  0.5149020000000  0.3941660000000  0.5265860000000 1.0
C      1  0.4136640000000  0.5558250000000  0.5178930000000 1.0
C      1  0.5618020000000  0.5735430000000  0.5509680000000 1.0
C      1  0.5496310000000  0.5467110000000  0.4050760000000 1.0
C      1  0.5344950000000  0.5226920000000  0.3951410000000 1.0
C      1  0.5182350000000  0.4722470000000  0.3692290000000 1.0
C      1  0.4721870000000  0.4196580000000  0.4430250000000 1.0
C      1  0.4938610000000  0.4580520000000  0.5053260000000 1.0
C      1  0.4744040000000  0.5180340000000  0.6096140000000 1.0
C      1  0.4471840000000  0.4743360000000  0.4986740000000 1.0
C      1  0.5941520000000  0.4841040000000  0.4527690000000 1.0
C      1  0.5340840000000  0.5016650000000  0.5196530000000 1.0
C      1  0.5394560000000  0.5541290000000  0.4774290000000 1.0
C      1  0.5682860000000  0.4558540000000  0.5470150000000 1.0
C      1  0.4938030000000  0.4321130000000  0.4276210000000 1.0
C      1  0.5271150000000  0.5624130000000  0.4021820000000 1.0
C      1  0.5651870000000  0.5074360000000  0.5810100000000 1.0
C      1  0.5680360000000  0.4763150000000  0.5023080000000 1.0
C      1  0.4394980000000  0.5803040000000  0.4835490000000 1.0
C      1  0.4976830000000  0.5682530000000  0.5799320000000 1.0
C      1  0.5441790000000  0.4847610000000  0.4999410000000 1.0
C      1  0.5259730000000  0.4762750000000  0.4162730000000 1.0
C      1  0.5043960000000  0.5187870000000  0.3948430000000 1.0
C      1  0.4452270000000  0.5398340000000  0.5423350000000 1.0
C      1  0.5004520000000  0.5899450000000  0.4572300000000 1.0
C      1  0.4913600000000  0.4490370000000  0.4041080000000 1.0
C      1  0.4510120000000  0.5924890000000  0.5070290000000 1.0
C      1  0.5012710000000  0.4393910000000  0.5272430000000 1.0
C      1  0.4654960000000  0.4797660000000  0.5469110000000 1.0
C      1  0.4123610000000  0.4424760000000  0.5146280000000 1.0
C      1  0.5213760000000  0.3936250000000  0.4988350000000 1.0
C      1  0.4949460000000  0.3937540000000  0.4847400000000 1.0
C      1  0.4816780000000  0.4932540000000  0.4371410000000 1.0
C      1  0.4847800000000  0.5006770000000  0.4860450000000 1.0
C      1  0.4383250000000  0.5036830000000  0.4253330000000 1.0
C      1  0.5465750000000  0.4094110000000  0.4968010000000 1.0
C      1  0.6062280000000  0.4602940000000  0.4904550000000 1.0
C      1  0.4488950000000  0.5735920000000  0.4569950000000 1.0
C      1  0.5053810000000  0.4528640000000  0.4784090000000 1.0
C      1  0.5977470000000  0.5131270000000  0.4576370000000 1.0
C      1  0.4127900000000  0.4542120000000  0.5418610000000 1.0
C      1  0.4866570000000  0.5441890000000  0.5657610000000 1.0
C      1  0.4571590000000  0.5258270000000  0.5193600000000 1.0
C      1  0.4079300000000  0.4947220000000  0.4674050000000 1.0
C      1  0.4386420000000  0.4118590000000  0.5391930000000 1.0
C      1  0.4319100000000  0.5523380000000  0.4461920000000 1.0
C      1  0.4205660000000  0.5336530000000  0.5572960000000 1.0
C      1  0.4950870000000  0.5283490000000  0.5914640000000 1.0
C      1  0.5547760000000  0.5900500000000  0.5266300000000 1.0
C      1  0.4404790000000  0.4857830000000  0.5632000000000 1.0
C      1  0.5162290000000  0.5639350000000  0.5252310000000 1.0
C      1  0.5251500000000  0.5612720000000  0.5880580000000 1.0
C      1  0.4634480000000  0.5453540000000  0.4111040000000 1.0
C      1  0.5724030000000  0.4380840000000  0.5257370000000 1.0
C      1  0.5455550000000  0.5661440000000  0.4503310000000 1.0
C      1  0.4584960000000  0.4521370000000  0.5380120000000 1.0
C      1  0.5649730000000  0.4817750000000  0.4513780000000 1.0
C      1  0.5218530000000  0.5313820000000  0.4740700000000 1.0
C      1  0.5025110000000  0.4198700000000  0.5818080000000 1.0
C      1  0.4629780000000  0.4967310000000  0.4082150000000 1.0
C      1  0.4472790000000  0.5094870000000  0.5991730000000 1.0
C      1  0.5908170000000  0.5244470000000  0.5074460000000 1.0
C      1  0.4410150000000  0.5332520000000  0.4265470000000 1.0
C      1  0.5554380000000  0.4144140000000  0.5241250000000 1.0
C      1  0.5172620000000  0.4730030000000  0.4639610000000 1.0
C      1  0.4969460000000  0.4898390000000  0.3804270000000 1.0
C      1  0.4842060000000  0.5215090000000  0.4488570000000 1.0
C      1  0.4073210000000  0.5302000000000  0.5312900000000 1.0
C      1  0.5769520000000  0.4489470000000  0.4968560000000 1.0
C      1  0.5588860000000  0.4285500000000  0.4785640000000 1.0
C      1  0.5406290000000  0.5103630000000  0.5986480000000 1.0
C      1  0.5773600000000  0.5472980000000  0.5472230000000 1.0
C      1  0.5071860000000  0.4781870000000  0.4389340000000 1.0
C      1  0.5239550000000  0.5335420000000  0.5981200000000 1.0
C      1  0.4267920000000  0.4845610000000  0.4435710000000 1.0
C      1  0.6087330000000  0.4871500000000  0.5019950000000 1.0
C      1  0.5405630000000  0.5765030000000  0.5690870000000 1.0
C      1  0.4428560000000  0.4603570000000  0.4463590000000 1.0
C      1  0.5082770000000  0.5105110000000  0.5238370000000 1.0
C      1  0.5194120000000  0.5880580000000  0.5493540000000 1.0
C      1  0.5223590000000  0.4981690000000  0.5467100000000 1.0
C      1  0.4993690000000  0.4792830000000  0.5574450000000 1.0
C      1  0.4997910000000  0.4810980000000  0.5875210000000 1.0
C      1  0.4162820000000  0.5631820000000  0.4905550000000 1.0
C      1  0.5268660000000  0.4843960000000  0.5989340000000 1.0
C      1  0.4855620000000  0.4412650000000  0.5920510000000 1.0
C      1  0.5739000000000  0.5237900000000  0.5606400000000 1.0
C      1  0.5125640000000  0.4531640000000  0.5490600000000 1.0
C      1  0.5840230000000  0.5500650000000  0.5174720000000 1.0
C      1  0.6132960000000  0.4613140000000  0.4621960000000 1.0
C      1  0.4627590000000  0.4863440000000  0.4764930000000 1.0
C      1  0.5443270000000  0.4680060000000  0.5830090000000 1.0
C      1  0.5218980000000  0.5819600000000  0.4396840000000 1.0
C      1  0.5189740000000  0.4565080000000  0.3955760000000 1.0
C      1  0.5849740000000  0.4928260000000  0.5197690000000 1.0
C      1  0.5468880000000  0.4309730000000  0.4533870000000 1.0
C      1  0.5277610000000  0.6037250000000  0.5265490000000 1.0
C      1  0.4909280000000  0.5272780000000  0.4787980000000 1.0
C      1  0.5720420000000  0.5761440000000  0.5070910000000 1.0
C      1  0.4025520000000  0.4893020000000  0.4975640000000 1.0
C      1  0.5034020000000  0.5265600000000  0.4284460000000 1.0
C      1  0.5626420000000  0.5501460000000  0.4325310000000 1.0
C      1  0.4176580000000  0.4647440000000  0.4964830000000 1.0
C      1  0.4801670000000  0.4090810000000  0.5684840000000 1.0
C      1  0.5299910000000  0.4207770000000  0.5679160000000 1.0
C      1  0.6057270000000  0.5124650000000  0.4861480000000 1.0
C      1  0.4101590000000  0.5467380000000  0.4658460000000 1.0
C      1  0.4774750000000  0.4735500000000  0.3951290000000 1.0
C      1  0.5629410000000  0.5024460000000  0.4307550000000 1.0
C      1  0.4480770000000  0.4319230000000  0.4592890000000 1.0
C      1  0.5246400000000  0.5700090000000  0.4978740000000 1.0
C      1  0.4756330000000  0.4670720000000  0.5975820000000 1.0
C      1  0.4745420000000  0.5809810000000  0.4450630000000 1.0
C      1  0.4688080000000  0.4726920000000  0.4523110000000 1.0
C      1  0.4361490000000  0.4386520000000  0.5507420000000 1.0
C      1  0.4881700000000  0.4090410000000  0.5255740000000 1.0
END
