TITL C-884133-6611-232 -37.9440200229312 125000 -7572.43125850245 0 0 51 (C1) n - 1
REM
REM in /home/nfs/bkarasulu/CARBON/AIRSS/Generating-Clusters/ReaxFF-fromJPCA2015/Units_Real/with-SteepDescent/Only-C1/SD-CG/Try1-3A/FIRE-CG
REM
REM
REM
REM
REM
REM ./C.cell (11c1c37f851c82e70ff6c80c92926a4b)
REM
REM compiler GCC version 9.2.1 20190827 (Red Hat 9.2.1-1)
REM options -cpp -mtune=generic -march=x86-64 -g -O0 -fpre-include=/usr/include/finclude/math-vector-fortran.h
REM seed -1407316530 39520849 -1542036837 -1608928163 1567503038 1077536232 1861195952 1522926511 -266283068 -925051410 -237545550 2051562082 -448208556 423028344 193230196 1854608394 1547538930 1739078581 2076524765 -135650707 1208297712 -1281663324 -983671683 1344298117 -1667215853 -1625614046 984734200 -763543194 417480897 -626109022 616795681 -1604483354 1583466086
REM
CELL 1.54180   50.00000   50.00000   50.00000   90.00000   90.00000   90.00000
LATT -1
SFAC C  
C      1  0.4548760000000  0.5405160000000  0.4861020000000 1.0
C      1  0.5056450000000  0.4436310000000  0.4863060000000 1.0
C      1  0.5047790000000  0.5191780000000  0.4316090000000 1.0
C      1  0.4473570000000  0.4542330000000  0.5115190000000 1.0
C      1  0.5453860000000  0.5067870000000  0.5314330000000 1.0
C      1  0.4564800000000  0.5199170000000  0.5415020000000 1.0
C      1  0.4989040000000  0.4364060000000  0.5382300000000 1.0
C      1  0.4509970000000  0.4991570000000  0.4518740000000 1.0
C      1  0.4861980000000  0.5206900000000  0.5744880000000 1.0
C      1  0.5565860000000  0.4867310000000  0.5130590000000 1.0
C      1  0.4739340000000  0.5515710000000  0.5056630000000 1.0
C      1  0.4850900000000  0.5368020000000  0.4468800000000 1.0
C      1  0.5557540000000  0.5357270000000  0.4891310000000 1.0
C      1  0.4704760000000  0.4740280000000  0.5559580000000 1.0
C      1  0.4490490000000  0.4590810000000  0.5396100000000 1.0
C      1  0.5253050000000  0.4618960000000  0.4723820000000 1.0
C      1  0.5326530000000  0.5268100000000  0.4300720000000 1.0
C      1  0.4742280000000  0.4830640000000  0.4422550000000 1.0
C      1  0.5472750000000  0.5580070000000  0.4717370000000 1.0
C      1  0.4958120000000  0.5660680000000  0.4906950000000 1.0
C      1  0.5255410000000  0.4305880000000  0.5346020000000 1.0
C      1  0.4597760000000  0.5273970000000  0.4603680000000 1.0
C      1  0.5226040000000  0.4721460000000  0.5565450000000 1.0
C      1  0.4425250000000  0.5075620000000  0.5213880000000 1.0
C      1  0.4848780000000  0.4741150000000  0.4685340000000 1.0
C      1  0.4861620000000  0.4933500000000  0.4921640000000 1.0
C      1  0.4668340000000  0.5022750000000  0.5622270000000 1.0
C      1  0.5364200000000  0.4875710000000  0.4881210000000 1.0
C      1  0.5546890000000  0.5093720000000  0.4762230000000 1.0
C      1  0.5542670000000  0.5177100000000  0.4484440000000 1.0
C      1  0.5364890000000  0.5435230000000  0.5081680000000 1.0
C      1  0.4403530000000  0.4763410000000  0.4668080000000 1.0
C      1  0.4587680000000  0.4967380000000  0.5019300000000 1.0
C      1  0.4784470000000  0.4467800000000  0.4758020000000 1.0
C      1  0.4391290000000  0.5175010000000  0.4950490000000 1.0
C      1  0.5197760000000  0.4715350000000  0.4458390000000 1.0
C      1  0.4500440000000  0.4528230000000  0.4836690000000 1.0
C      1  0.5413480000000  0.4530110000000  0.5450140000000 1.0
C      1  0.4960130000000  0.4612150000000  0.5527190000000 1.0
C      1  0.5139040000000  0.5234790000000  0.5665960000000 1.0
C      1  0.4936990000000  0.5419360000000  0.5553560000000 1.0
C      1  0.5080180000000  0.4300820000000  0.5122060000000 1.0
C      1  0.5117600000000  0.5018700000000  0.5001440000000 1.0
C      1  0.4743680000000  0.5415310000000  0.5333100000000 1.0
C      1  0.5646640000000  0.4624760000000  0.5279030000000 1.0
C      1  0.4951600000000  0.5532400000000  0.4665990000000 1.0
C      1  0.5298280000000  0.5009310000000  0.5553460000000 1.0
C      1  0.5226680000000  0.5213320000000  0.5194810000000 1.0
C      1  0.5485680000000  0.5464700000000  0.4450810000000 1.0
C      1  0.5258810000000  0.5642510000000  0.4920030000000 1.0
C      1  0.5006350000000  0.4905490000000  0.4318560000000 1.0
END
