TITL C-884136-4169-30 2702396.44783509 125000 -26346.1323926138 0 0 176 (C1) n - 1
REM
REM in /home/nfs/bkarasulu/CARBON/AIRSS/Generating-Clusters/ReaxFF-fromJPCA2015/Units_Real/with-SteepDescent/Only-C1/SD-CG/Try1-3A/FIRE-CG
REM
REM
REM
REM
REM
REM ./C.cell (11c1c37f851c82e70ff6c80c92926a4b)
REM
REM compiler GCC version 9.2.1 20190827 (Red Hat 9.2.1-1)
REM options -cpp -mtune=generic -march=x86-64 -g -O0 -fpre-include=/usr/include/finclude/math-vector-fortran.h
REM seed -1272528737 576568149 753791858 -1521940690 -180367787 -79836579 -98221194 92647380 56158096 -1107893285 -1202948607 1450211437 844311973 665625580 116169378 -583435670 -230087989 -74235486 -1382814046 -969574489 -1601656042 1352239317 -835444588 -1857223627 -587296124 -598633053 -441361727 148688999 656429723 1821931008 644127924 1274792094 1475988477
REM
CELL 1.54180   50.00000   50.00000   50.00000   90.00000   90.00000   90.00000
LATT -1
SFAC C  
C      1  0.4944570000000  0.5577010000000  0.4612900000000 1.0
C      1  0.5019490000000  0.5248590000000  0.4911510000000 1.0
C      1  0.5151780000000  0.6028690000000  0.5452930000000 1.0
C      1  0.5119660000000  0.5133450000000  0.4670030000000 1.0
C      1  0.4810870000000  0.4890040000000  0.3933100000000 1.0
C      1  0.5896040000000  0.5357240000000  0.5387090000000 1.0
C      1  0.4896810000000  0.4072000000000  0.4747730000000 1.0
C      1  0.4080240000000  0.4436980000000  0.4955230000000 1.0
C      1  0.5389310000000  0.4016460000000  0.4774400000000 1.0
C      1  0.5228100000000  0.5390950000000  0.5977090000000 1.0
C      1  0.5632180000000  0.4879890000000  0.5206890000000 1.0
C      1  0.4007380000000  0.4999450000000  0.4927170000000 1.0
C      1  0.5182210000000  0.6003750000000  0.5123600000000 1.0
C      1  0.4706420000000  0.4709870000000  0.4150940000000 1.0
C      1  0.4112540000000  0.5706040000000  0.4640020000000 1.0
C      1  0.5089020000000  0.4466200000000  0.4182940000000 1.0
C      1  0.5690160000000  0.4483230000000  0.4196430000000 1.0
C      1  0.5188100000000  0.6020450000000  0.4638320000000 1.0
C      1  0.4368530000000  0.5765970000000  0.4505860000000 1.0
C      1  0.5536050000000  0.4170140000000  0.4991400000000 1.0
C      1  0.4978640000000  0.4348220000000  0.5802980000000 1.0
C      1  0.4105520000000  0.4600160000000  0.4558970000000 1.0
C      1  0.4877970000000  0.4537200000000  0.4913060000000 1.0
C      1  0.4910510000000  0.4346730000000  0.4639670000000 1.0
C      1  0.5574620000000  0.5723140000000  0.5640260000000 1.0
C      1  0.6096580000000  0.4701220000000  0.4842020000000 1.0
C      1  0.5716680000000  0.5033580000000  0.4220040000000 1.0
C      1  0.5156060000000  0.5658370000000  0.5607660000000 1.0
C      1  0.5415520000000  0.5968660000000  0.5575550000000 1.0
C      1  0.5139770000000  0.3875890000000  0.5183800000000 1.0
C      1  0.4130820000000  0.5086470000000  0.5596580000000 1.0
C      1  0.4217060000000  0.5519800000000  0.5317210000000 1.0
C      1  0.5864110000000  0.4631040000000  0.5538640000000 1.0
C      1  0.5403630000000  0.5170620000000  0.6002870000000 1.0
C      1  0.5824090000000  0.5188620000000  0.5597990000000 1.0
C      1  0.5360390000000  0.4562520000000  0.5460840000000 1.0
C      1  0.4285130000000  0.4955500000000  0.5855880000000 1.0
C      1  0.4485380000000  0.4530610000000  0.4213200000000 1.0
C      1  0.4201440000000  0.5375990000000  0.5600010000000 1.0
C      1  0.4393250000000  0.5154690000000  0.4584980000000 1.0
C      1  0.4803630000000  0.5317050000000  0.4095230000000 1.0
C      1  0.4027650000000  0.5764640000000  0.4918520000000 1.0
C      1  0.4641010000000  0.5128580000000  0.3938870000000 1.0
C      1  0.5627470000000  0.5021670000000  0.4776630000000 1.0
C      1  0.4802690000000  0.5658920000000  0.5105500000000 1.0
C      1  0.4766160000000  0.4808380000000  0.4415190000000 1.0
C      1  0.5709500000000  0.5804450000000  0.5133620000000 1.0
C      1  0.4829470000000  0.5797210000000  0.4450990000000 1.0
C      1  0.4440350000000  0.4220450000000  0.4665930000000 1.0
C      1  0.4293870000000  0.5380240000000  0.4190060000000 1.0
C      1  0.5440830000000  0.5982320000000  0.4779830000000 1.0
C      1  0.5431200000000  0.5055510000000  0.5144880000000 1.0
C      1  0.4757730000000  0.4492890000000  0.5918870000000 1.0
C      1  0.4723490000000  0.5708510000000  0.4187480000000 1.0
C      1  0.5726810000000  0.5046270000000  0.5792250000000 1.0
C      1  0.4663080000000  0.4039370000000  0.5120510000000 1.0
C      1  0.5212100000000  0.5158610000000  0.4138130000000 1.0
C      1  0.4625820000000  0.5176470000000  0.4720460000000 1.0
C      1  0.4748200000000  0.5166190000000  0.6081710000000 1.0
C      1  0.5383900000000  0.5458860000000  0.4774160000000 1.0
C      1  0.5343690000000  0.4633670000000  0.4622380000000 1.0
C      1  0.4379000000000  0.5127700000000  0.4063800000000 1.0
C      1  0.4894030000000  0.4919500000000  0.6045870000000 1.0
C      1  0.5535850000000  0.4922960000000  0.5968090000000 1.0
C      1  0.5108330000000  0.4652810000000  0.5422560000000 1.0
C      1  0.5678920000000  0.4797870000000  0.4954590000000 1.0
C      1  0.5220910000000  0.4668520000000  0.3984520000000 1.0
C      1  0.4868450000000  0.5068640000000  0.4502080000000 1.0
C      1  0.4415470000000  0.4082660000000  0.5188580000000 1.0
C      1  0.4522020000000  0.4222890000000  0.5638640000000 1.0
C      1  0.4293720000000  0.5030930000000  0.5112760000000 1.0
C      1  0.5441110000000  0.5041820000000  0.4303050000000 1.0
C      1  0.4823180000000  0.4183660000000  0.5587220000000 1.0
C      1  0.4679110000000  0.4881060000000  0.5628700000000 1.0
C      1  0.4173440000000  0.5038080000000  0.4464840000000 1.0
C      1  0.5798450000000  0.5692920000000  0.4602960000000 1.0
C      1  0.4684850000000  0.5162330000000  0.5594490000000 1.0
C      1  0.4322350000000  0.4678060000000  0.5783200000000 1.0
C      1  0.5620580000000  0.4503760000000  0.4636450000000 1.0
C      1  0.5842630000000  0.4754550000000  0.4219180000000 1.0
C      1  0.3877350000000  0.4846600000000  0.5168450000000 1.0
C      1  0.5841740000000  0.5267790000000  0.4358050000000 1.0
C      1  0.5215470000000  0.4888750000000  0.5076060000000 1.0
C      1  0.4484450000000  0.4428710000000  0.5833770000000 1.0
C      1  0.5259730000000  0.4417860000000  0.5840030000000 1.0
C      1  0.3962650000000  0.5304690000000  0.4882290000000 1.0
C      1  0.5999480000000  0.5183330000000  0.4597020000000 1.0
C      1  0.4315850000000  0.4200470000000  0.5423070000000 1.0
C      1  0.5867730000000  0.5731520000000  0.4897570000000 1.0
C      1  0.4741090000000  0.5525100000000  0.5338650000000 1.0
C      1  0.4049660000000  0.4857590000000  0.4665180000000 1.0
C      1  0.5142930000000  0.4187810000000  0.4179780000000 1.0
C      1  0.5212740000000  0.5593630000000  0.5338970000000 1.0
C      1  0.5123690000000  0.4901650000000  0.5866600000000 1.0
C      1  0.5246040000000  0.5832430000000  0.4400240000000 1.0
C      1  0.4830660000000  0.4746880000000  0.5380920000000 1.0
C      1  0.4173260000000  0.4347650000000  0.4711520000000 1.0
C      1  0.5129870000000  0.4477340000000  0.4474660000000 1.0
C      1  0.4754050000000  0.5009820000000  0.5183330000000 1.0
C      1  0.5454050000000  0.5326910000000  0.5010950000000 1.0
C      1  0.5289960000000  0.3986430000000  0.5560550000000 1.0
C      1  0.5217440000000  0.5502000000000  0.4112240000000 1.0
C      1  0.4822650000000  0.4251420000000  0.5288680000000 1.0
C      1  0.5712200000000  0.5612290000000  0.5388930000000 1.0
C      1  0.4075900000000  0.5301020000000  0.4373780000000 1.0
C      1  0.5688510000000  0.4205150000000  0.5479130000000 1.0
C      1  0.4613900000000  0.5906610000000  0.5114280000000 1.0
C      1  0.5516480000000  0.5711050000000  0.4689760000000 1.0
C      1  0.6064350000000  0.5031320000000  0.5184760000000 1.0
C      1  0.5606940000000  0.4718650000000  0.5429260000000 1.0
C      1  0.5285190000000  0.4039730000000  0.4287310000000 1.0
C      1  0.4760020000000  0.4506200000000  0.5184950000000 1.0
C      1  0.6012400000000  0.4785160000000  0.4434510000000 1.0
C      1  0.5630520000000  0.4038540000000  0.5249790000000 1.0
C      1  0.5398030000000  0.4960240000000  0.4585040000000 1.0
C      1  0.4189110000000  0.4469040000000  0.5370320000000 1.0
C      1  0.4598210000000  0.4391990000000  0.4484280000000 1.0
C      1  0.5452180000000  0.5438580000000  0.5283440000000 1.0
C      1  0.5965900000000  0.5256170000000  0.5112900000000 1.0
C      1  0.5409630000000  0.3859960000000  0.5318050000000 1.0
C      1  0.5829960000000  0.4577690000000  0.4830110000000 1.0
C      1  0.5477190000000  0.4068330000000  0.4496860000000 1.0
C      1  0.4449040000000  0.5617230000000  0.4263700000000 1.0
C      1  0.4651080000000  0.4701730000000  0.4850080000000 1.0
C      1  0.4372900000000  0.5812610000000  0.5247590000000 1.0
C      1  0.3999230000000  0.5440180000000  0.4622010000000 1.0
C      1  0.5003620000000  0.6053840000000  0.4859660000000 1.0
C      1  0.4608980000000  0.4043980000000  0.4825590000000 1.0
C      1  0.5107820000000  0.5188410000000  0.5408330000000 1.0
C      1  0.4751540000000  0.5665060000000  0.5577130000000 1.0
C      1  0.5022410000000  0.5082040000000  0.5139320000000 1.0
C      1  0.3858140000000  0.4976730000000  0.5419260000000 1.0
C      1  0.4365020000000  0.5306280000000  0.5182480000000 1.0
C      1  0.5476910000000  0.4597020000000  0.4069490000000 1.0
C      1  0.5180730000000  0.5406010000000  0.4569720000000 1.0
C      1  0.5382720000000  0.4405830000000  0.5021040000000 1.0
C      1  0.5361620000000  0.5612130000000  0.5812270000000 1.0
C      1  0.5078360000000  0.5731630000000  0.5138170000000 1.0
C      1  0.5095770000000  0.4930010000000  0.3956370000000 1.0
C      1  0.6142890000000  0.4769730000000  0.5136360000000 1.0
C      1  0.4921890000000  0.5370260000000  0.5985460000000 1.0
C      1  0.4714820000000  0.5416450000000  0.5754370000000 1.0
C      1  0.3977870000000  0.4547210000000  0.5180980000000 1.0
C      1  0.4450030000000  0.5154230000000  0.5984170000000 1.0
C      1  0.5203180000000  0.4634360000000  0.4929970000000 1.0
C      1  0.4973880000000  0.5215560000000  0.4292100000000 1.0
C      1  0.4222870000000  0.4622860000000  0.4280230000000 1.0
C      1  0.5413610000000  0.5634120000000  0.4272160000000 1.0
C      1  0.4387330000000  0.5379790000000  0.5814120000000 1.0
C      1  0.4638160000000  0.5253850000000  0.5324500000000 1.0
C      1  0.5829170000000  0.5222370000000  0.4828060000000 1.0
C      1  0.4717060000000  0.6016040000000  0.4856360000000 1.0
C      1  0.4585400000000  0.4958800000000  0.4958020000000 1.0
C      1  0.5485700000000  0.5979810000000  0.5059180000000 1.0
C      1  0.6093940000000  0.4584420000000  0.5369730000000 1.0
C      1  0.5655000000000  0.4301590000000  0.4434390000000 1.0
C      1  0.4341160000000  0.4692710000000  0.5487450000000 1.0
C      1  0.5421710000000  0.4257930000000  0.5621350000000 1.0
C      1  0.5385820000000  0.5177140000000  0.5468060000000 1.0
C      1  0.5325420000000  0.4700050000000  0.5915730000000 1.0
C      1  0.4227930000000  0.5909640000000  0.5050420000000 1.0
C      1  0.6142590000000  0.4912590000000  0.4636730000000 1.0
C      1  0.5172380000000  0.5101350000000  0.5660590000000 1.0
C      1  0.5940990000000  0.4354450000000  0.5482670000000 1.0
C      1  0.5126920000000  0.3957640000000  0.4889710000000 1.0
C      1  0.4604450000000  0.5912120000000  0.4602540000000 1.0
C      1  0.4625250000000  0.4657160000000  0.4590760000000 1.0
C      1  0.4742720000000  0.4768950000000  0.5880640000000 1.0
C      1  0.4268770000000  0.4897950000000  0.4211180000000 1.0
C      1  0.4953820000000  0.5876460000000  0.5608570000000 1.0
C      1  0.5024940000000  0.3936490000000  0.5451270000000 1.0
C      1  0.4811700000000  0.5440980000000  0.4838990000000 1.0
C      1  0.4943180000000  0.5569000000000  0.4040960000000 1.0
C      1  0.5706400000000  0.5524500000000  0.4380950000000 1.0
C      1  0.4009570000000  0.5509300000000  0.5075860000000 1.0
C      1  0.4258780000000  0.4940910000000  0.5386620000000 1.0
END
