TITL C-884140-4336-175 -0.936353732681042 125000 -14518.254727635 0 0 98 (C1) n - 1
REM
REM in /home/nfs/bkarasulu/CARBON/AIRSS/Generating-Clusters/ReaxFF-fromJPCA2015/Units_Real/with-SteepDescent/Only-C1/SD-CG/Try1-3A/FIRE-CG
REM
REM
REM
REM
REM
REM ./C.cell (11c1c37f851c82e70ff6c80c92926a4b)
REM
REM compiler GCC version 9.2.1 20190827 (Red Hat 9.2.1-1)
REM options -cpp -mtune=generic -march=x86-64 -g -O0 -fpre-include=/usr/include/finclude/math-vector-fortran.h
REM seed -26917604 794881979 -1969650467 986489799 1850125881 -1747324726 1849909965 -1322086071 -1253401589 144594467 1617030161 1561937188 -230459640 1351241196 -649335775 -1075863267 -1398278467 -987539106 -916280405 -2127891346 1360461328 170633730 64582457 -730823957 1969657652 70431400 2008554262 -1683860059 -2059228673 -196781537 1074539327 -247716814 804814294
REM
CELL 1.54180   50.00000   50.00000   50.00000   90.00000   90.00000   90.00000
LATT -1
SFAC C  
C      1  0.5274430000000  0.4940700000000  0.5843710000000 1.0
C      1  0.4779490000000  0.4139640000000  0.4295310000000 1.0
C      1  0.5497860000000  0.5258100000000  0.4708230000000 1.0
C      1  0.5757180000000  0.5453800000000  0.5305450000000 1.0
C      1  0.5332160000000  0.4849390000000  0.4570100000000 1.0
C      1  0.4452870000000  0.5482090000000  0.5034180000000 1.0
C      1  0.4790560000000  0.4850700000000  0.4881860000000 1.0
C      1  0.5328240000000  0.5004370000000  0.4119550000000 1.0
C      1  0.5563140000000  0.4638750000000  0.4879440000000 1.0
C      1  0.5265060000000  0.5281880000000  0.5156510000000 1.0
C      1  0.5796140000000  0.5039220000000  0.5088460000000 1.0
C      1  0.4873800000000  0.5237770000000  0.5943660000000 1.0
C      1  0.5880870000000  0.4978820000000  0.4507910000000 1.0
C      1  0.5305690000000  0.5301140000000  0.4218110000000 1.0
C      1  0.4766930000000  0.5625560000000  0.4674570000000 1.0
C      1  0.4905440000000  0.4234630000000  0.5443900000000 1.0
C      1  0.5374520000000  0.4236330000000  0.5011390000000 1.0
C      1  0.5102000000000  0.5450580000000  0.4955690000000 1.0
C      1  0.4419940000000  0.5330350000000  0.5302360000000 1.0
C      1  0.4299620000000  0.4654270000000  0.5373900000000 1.0
C      1  0.5297320000000  0.5695690000000  0.4513890000000 1.0
C      1  0.4062200000000  0.5019250000000  0.5070670000000 1.0
C      1  0.5217960000000  0.4461030000000  0.5725080000000 1.0
C      1  0.4787910000000  0.5660580000000  0.5457190000000 1.0
C      1  0.4469460000000  0.4479200000000  0.5191110000000 1.0
C      1  0.5095210000000  0.4835760000000  0.4199880000000 1.0
C      1  0.4380250000000  0.5021960000000  0.4404440000000 1.0
C      1  0.5201810000000  0.5159870000000  0.5421210000000 1.0
C      1  0.4869420000000  0.5007470000000  0.4268930000000 1.0
C      1  0.4808390000000  0.5468910000000  0.4255450000000 1.0
C      1  0.4970640000000  0.4407030000000  0.4871820000000 1.0
C      1  0.4832900000000  0.4923110000000  0.4661240000000 1.0
C      1  0.5000720000000  0.4961860000000  0.5940800000000 1.0
C      1  0.4710000000000  0.4308860000000  0.4810760000000 1.0
C      1  0.5606980000000  0.4737880000000  0.5563310000000 1.0
C      1  0.4127790000000  0.4874910000000  0.5295040000000 1.0
C      1  0.4599030000000  0.4145730000000  0.4572880000000 1.0
C      1  0.4759880000000  0.4907480000000  0.5409500000000 1.0
C      1  0.4944280000000  0.5386090000000  0.4723590000000 1.0
C      1  0.4635040000000  0.5326060000000  0.5776290000000 1.0
C      1  0.5026510000000  0.5804780000000  0.4574980000000 1.0
C      1  0.4499460000000  0.5278710000000  0.4854090000000 1.0
C      1  0.4599120000000  0.5506370000000  0.4432580000000 1.0
C      1  0.4951490000000  0.4735980000000  0.5286080000000 1.0
C      1  0.5341080000000  0.4430550000000  0.4527110000000 1.0
C      1  0.5023790000000  0.4946200000000  0.5458050000000 1.0
C      1  0.4579320000000  0.5480730000000  0.5536650000000 1.0
C      1  0.4597860000000  0.4887610000000  0.4267390000000 1.0
C      1  0.5175810000000  0.4656610000000  0.4422010000000 1.0
C      1  0.5735410000000  0.4752020000000  0.5085220000000 1.0
C      1  0.4496010000000  0.4485390000000  0.4897520000000 1.0
C      1  0.5245880000000  0.5718720000000  0.4981130000000 1.0
C      1  0.4129900000000  0.5036230000000  0.4792810000000 1.0
C      1  0.4955060000000  0.4464440000000  0.5865950000000 1.0
C      1  0.5796870000000  0.5162540000000  0.5345580000000 1.0
C      1  0.5386550000000  0.5124270000000  0.5642000000000 1.0
C      1  0.5058020000000  0.5913900000000  0.5097870000000 1.0
C      1  0.5998230000000  0.5193050000000  0.4637230000000 1.0
C      1  0.4392060000000  0.4683090000000  0.5644720000000 1.0
C      1  0.5605260000000  0.4602300000000  0.5305610000000 1.0
C      1  0.5019760000000  0.5484760000000  0.5890850000000 1.0
C      1  0.5396510000000  0.4688200000000  0.5761570000000 1.0
C      1  0.4695160000000  0.4404860000000  0.4271780000000 1.0
C      1  0.4260750000000  0.5291870000000  0.4734600000000 1.0
C      1  0.5196720000000  0.4329870000000  0.5471380000000 1.0
C      1  0.5032550000000  0.5661060000000  0.5639160000000 1.0
C      1  0.5769620000000  0.5260720000000  0.4870020000000 1.0
C      1  0.4544100000000  0.4728100000000  0.5892070000000 1.0
C      1  0.5217460000000  0.4288170000000  0.4765900000000 1.0
C      1  0.5629810000000  0.4804060000000  0.4443640000000 1.0
C      1  0.4554700000000  0.4616230000000  0.4362270000000 1.0
C      1  0.5409200000000  0.4371950000000  0.5273700000000 1.0
C      1  0.5396520000000  0.5409520000000  0.4473900000000 1.0
C      1  0.5002180000000  0.4691110000000  0.4995850000000 1.0
C      1  0.5356550000000  0.5116070000000  0.4919740000000 1.0
C      1  0.5300640000000  0.5688930000000  0.5535020000000 1.0
C      1  0.4574950000000  0.5070010000000  0.5268620000000 1.0
C      1  0.4649110000000  0.5674060000000  0.4963660000000 1.0
C      1  0.4796970000000  0.5782110000000  0.5185400000000 1.0
C      1  0.4688860000000  0.4355820000000  0.5318110000000 1.0
C      1  0.5570730000000  0.4851310000000  0.4133460000000 1.0
C      1  0.4362480000000  0.4580080000000  0.4641420000000 1.0
C      1  0.4242510000000  0.4855690000000  0.4600360000000 1.0
C      1  0.5532800000000  0.5704100000000  0.5064630000000 1.0
C      1  0.4621040000000  0.5050210000000  0.4987230000000 1.0
C      1  0.5601840000000  0.4536160000000  0.4609270000000 1.0
C      1  0.4838670000000  0.4723960000000  0.5948320000000 1.0
C      1  0.5304210000000  0.4819620000000  0.4866580000000 1.0
C      1  0.4347410000000  0.4276690000000  0.4515040000000 1.0
C      1  0.5650630000000  0.5027180000000  0.5564320000000 1.0
C      1  0.5162070000000  0.5875890000000  0.4348740000000 1.0
C      1  0.4170530000000  0.5159640000000  0.5294010000000 1.0
C      1  0.4793380000000  0.4253360000000  0.5728560000000 1.0
C      1  0.4912960000000  0.5137120000000  0.4548150000000 1.0
C      1  0.4383390000000  0.5309830000000  0.4472770000000 1.0
C      1  0.5764680000000  0.5527230000000  0.5025180000000 1.0
C      1  0.5461400000000  0.5548700000000  0.5317930000000 1.0
C      1  0.5050330000000  0.5405460000000  0.4194870000000 1.0
END
