TITL C-884131-4643-118 27.2526676876715 125000 -28356.469379239 0 0 191 (C1) n - 1
REM
REM in /home/nfs/bkarasulu/CARBON/AIRSS/Generating-Clusters/ReaxFF-fromJPCA2015/Units_Real/with-SteepDescent/Only-C1/SD-CG/Try1-3A/FIRE-CG
REM
REM
REM
REM
REM
REM ./C.cell (11c1c37f851c82e70ff6c80c92926a4b)
REM
REM compiler GCC version 9.2.1 20190827 (Red Hat 9.2.1-1)
REM options -cpp -mtune=generic -march=x86-64 -g -O0 -fpre-include=/usr/include/finclude/math-vector-fortran.h
REM seed -216492650 1198563942 -272171376 1601583901 -1796109890 -1352320618 1440400483 -1684858229 1940266949 1329522077 -237539992 386803107 1550490778 -668170715 -28237127 -2015536444 -1166559907 -2103076605 -1312846642 630043964 2128222690 -1371245580 1685810060 287472317 1425406619 946755099 -580795888 175979586 -447957536 1010616229 -1998105117 -2130778306 878563987
REM
CELL 1.54180   50.00000   50.00000   50.00000   90.00000   90.00000   90.00000
LATT -1
SFAC C  
C      1  0.5538150000000  0.4567610000000  0.4263850000000 1.0
C      1  0.4744070000000  0.3891760000000  0.4809250000000 1.0
C      1  0.4803610000000  0.5435670000000  0.5295190000000 1.0
C      1  0.4549450000000  0.5771430000000  0.4535510000000 1.0
C      1  0.4266350000000  0.4725200000000  0.4836720000000 1.0
C      1  0.5517380000000  0.5427390000000  0.4184560000000 1.0
C      1  0.5266790000000  0.5124140000000  0.4266260000000 1.0
C      1  0.5468170000000  0.5670900000000  0.5924000000000 1.0
C      1  0.4539290000000  0.5837980000000  0.5336700000000 1.0
C      1  0.4867910000000  0.3930200000000  0.4295110000000 1.0
C      1  0.5972000000000  0.5750000000000  0.4569550000000 1.0
C      1  0.4225120000000  0.4712050000000  0.4169500000000 1.0
C      1  0.4989820000000  0.4077480000000  0.5413710000000 1.0
C      1  0.4286600000000  0.4484320000000  0.5709180000000 1.0
C      1  0.4803430000000  0.5401560000000  0.4763110000000 1.0
C      1  0.5178540000000  0.6135760000000  0.4884500000000 1.0
C      1  0.4799870000000  0.5484140000000  0.5828640000000 1.0
C      1  0.5979080000000  0.4853440000000  0.4374960000000 1.0
C      1  0.5045720000000  0.4998730000000  0.5001530000000 1.0
C      1  0.5589270000000  0.5165180000000  0.4847770000000 1.0
C      1  0.5662230000000  0.5415960000000  0.4685950000000 1.0
C      1  0.5229170000000  0.5356100000000  0.4707560000000 1.0
C      1  0.5491140000000  0.4759010000000  0.4505930000000 1.0
C      1  0.4813100000000  0.4303640000000  0.4876170000000 1.0
C      1  0.3929330000000  0.5068180000000  0.5501650000000 1.0
C      1  0.4051190000000  0.4470390000000  0.5379630000000 1.0
C      1  0.4932800000000  0.4634980000000  0.5856680000000 1.0
C      1  0.4932970000000  0.6136640000000  0.5030800000000 1.0
C      1  0.3989730000000  0.5445800000000  0.5365070000000 1.0
C      1  0.4612280000000  0.4912370000000  0.3841430000000 1.0
C      1  0.5714330000000  0.4773190000000  0.4673630000000 1.0
C      1  0.5472880000000  0.5819290000000  0.4825520000000 1.0
C      1  0.4122860000000  0.5321190000000  0.4442030000000 1.0
C      1  0.5456600000000  0.5545690000000  0.4855290000000 1.0
C      1  0.5016980000000  0.5464740000000  0.4557040000000 1.0
C      1  0.4360030000000  0.5946820000000  0.5117320000000 1.0
C      1  0.5556370000000  0.5154420000000  0.4287710000000 1.0
C      1  0.4585700000000  0.5262390000000  0.5251520000000 1.0
C      1  0.5512170000000  0.4146670000000  0.5356560000000 1.0
C      1  0.4597620000000  0.4530700000000  0.5322980000000 1.0
C      1  0.4315110000000  0.4173250000000  0.4728600000000 1.0
C      1  0.5036690000000  0.3884270000000  0.4754850000000 1.0
C      1  0.4086790000000  0.5485010000000  0.4687280000000 1.0
C      1  0.5755940000000  0.5445680000000  0.5569820000000 1.0
C      1  0.4587520000000  0.5054340000000  0.5427830000000 1.0
C      1  0.4773220000000  0.5631220000000  0.4145890000000 1.0
C      1  0.5114410000000  0.4010360000000  0.5645100000000 1.0
C      1  0.5095580000000  0.3972300000000  0.4477900000000 1.0
C      1  0.5314230000000  0.6143700000000  0.5731070000000 1.0
C      1  0.4367700000000  0.5270080000000  0.5066880000000 1.0
C      1  0.5890260000000  0.5554680000000  0.5087670000000 1.0
C      1  0.5069860000000  0.4972840000000  0.4383510000000 1.0
C      1  0.4339630000000  0.5439260000000  0.4835660000000 1.0
C      1  0.5870800000000  0.4533920000000  0.5502310000000 1.0
C      1  0.5067920000000  0.4380870000000  0.5898470000000 1.0
C      1  0.4200040000000  0.5062560000000  0.5151750000000 1.0
C      1  0.4891950000000  0.5882120000000  0.5542190000000 1.0
C      1  0.3984890000000  0.5625610000000  0.5176040000000 1.0
C      1  0.5012830000000  0.5920930000000  0.4472050000000 1.0
C      1  0.4714820000000  0.5099150000000  0.4722960000000 1.0
C      1  0.4599910000000  0.3918490000000  0.4377520000000 1.0
C      1  0.4764110000000  0.4573780000000  0.4579700000000 1.0
C      1  0.3958640000000  0.5739190000000  0.4783750000000 1.0
C      1  0.4653630000000  0.4898540000000  0.4918980000000 1.0
C      1  0.4695740000000  0.6039170000000  0.4889690000000 1.0
C      1  0.4251620000000  0.4271570000000  0.4999870000000 1.0
C      1  0.4534470000000  0.5122550000000  0.4225920000000 1.0
C      1  0.4594500000000  0.4997980000000  0.5931530000000 1.0
C      1  0.4980140000000  0.4777650000000  0.5595270000000 1.0
C      1  0.4972350000000  0.5487090000000  0.5059000000000 1.0
C      1  0.4473640000000  0.5594790000000  0.5487820000000 1.0
C      1  0.5574220000000  0.4818210000000  0.4048410000000 1.0
C      1  0.5455440000000  0.4023320000000  0.5091120000000 1.0
C      1  0.5308960000000  0.4358190000000  0.4207450000000 1.0
C      1  0.4810630000000  0.4605770000000  0.4858330000000 1.0
C      1  0.5551720000000  0.6063200000000  0.5557570000000 1.0
C      1  0.6041980000000  0.5065810000000  0.4512470000000 1.0
C      1  0.5078120000000  0.6040760000000  0.5649630000000 1.0
C      1  0.5375230000000  0.4133990000000  0.5616950000000 1.0
C      1  0.6059690000000  0.5073910000000  0.4978240000000 1.0
C      1  0.5862710000000  0.4908000000000  0.5764860000000 1.0
C      1  0.5626340000000  0.5052670000000  0.5676720000000 1.0
C      1  0.4894930000000  0.4590370000000  0.5328660000000 1.0
C      1  0.5647050000000  0.5542260000000  0.4414420000000 1.0
C      1  0.5341020000000  0.4932040000000  0.3921140000000 1.0
C      1  0.4953550000000  0.5936050000000  0.5254620000000 1.0
C      1  0.5581610000000  0.4610470000000  0.5141690000000 1.0
C      1  0.6078520000000  0.4758040000000  0.5072760000000 1.0
C      1  0.5517620000000  0.5941210000000  0.5818670000000 1.0
C      1  0.5627430000000  0.4147680000000  0.4891560000000 1.0
C      1  0.5524350000000  0.4265540000000  0.4606270000000 1.0
C      1  0.5043050000000  0.5611240000000  0.5702290000000 1.0
C      1  0.4084570000000  0.5833620000000  0.5043050000000 1.0
C      1  0.4374450000000  0.4072190000000  0.5442730000000 1.0
C      1  0.4093030000000  0.4584890000000  0.4628650000000 1.0
C      1  0.6032420000000  0.4739540000000  0.5362000000000 1.0
C      1  0.5321470000000  0.4585110000000  0.4985190000000 1.0
C      1  0.4119500000000  0.5197490000000  0.5667850000000 1.0
C      1  0.5219850000000  0.5221620000000  0.3991010000000 1.0
C      1  0.5028840000000  0.5269350000000  0.5416410000000 1.0
C      1  0.5190380000000  0.3901400000000  0.5006620000000 1.0
C      1  0.5195670000000  0.5557130000000  0.5957970000000 1.0
C      1  0.4514510000000  0.4671960000000  0.4480690000000 1.0
C      1  0.5224450000000  0.6069230000000  0.4599840000000 1.0
C      1  0.6028780000000  0.4976950000000  0.5537510000000 1.0
C      1  0.5531370000000  0.4879360000000  0.5230520000000 1.0
C      1  0.5140200000000  0.4726260000000  0.3880500000000 1.0
C      1  0.4488750000000  0.5591540000000  0.4124980000000 1.0
C      1  0.5650080000000  0.5463080000000  0.5836220000000 1.0
C      1  0.5245030000000  0.5487850000000  0.4098580000000 1.0
C      1  0.5584700000000  0.5969280000000  0.5280340000000 1.0
C      1  0.4925180000000  0.4124970000000  0.5847030000000 1.0
C      1  0.4839330000000  0.4730500000000  0.3839060000000 1.0
C      1  0.5350230000000  0.4349600000000  0.5822160000000 1.0
C      1  0.4358100000000  0.4900070000000  0.4624290000000 1.0
C      1  0.4848880000000  0.5054010000000  0.5571220000000 1.0
C      1  0.5832930000000  0.5846430000000  0.5224690000000 1.0
C      1  0.4044680000000  0.4771950000000  0.4389740000000 1.0
C      1  0.4404560000000  0.5374210000000  0.5925230000000 1.0
C      1  0.5179420000000  0.5067960000000  0.4763480000000 1.0
C      1  0.5252180000000  0.4786400000000  0.5660960000000 1.0
C      1  0.5714220000000  0.5824790000000  0.4432380000000 1.0
C      1  0.4527480000000  0.5587440000000  0.5779150000000 1.0
C      1  0.4551160000000  0.4571990000000  0.5619660000000 1.0
C      1  0.4347900000000  0.4893980000000  0.5345470000000 1.0
C      1  0.4663080000000  0.4078850000000  0.4162290000000 1.0
C      1  0.3799570000000  0.4903730000000  0.5306640000000 1.0
C      1  0.3858830000000  0.4686160000000  0.5090870000000 1.0
C      1  0.4812870000000  0.4532450000000  0.4084240000000 1.0
C      1  0.5773820000000  0.4974870000000  0.4195220000000 1.0
C      1  0.4835870000000  0.5188420000000  0.5874480000000 1.0
C      1  0.5723060000000  0.4423370000000  0.4444520000000 1.0
C      1  0.4655450000000  0.4718810000000  0.5862280000000 1.0
C      1  0.4163340000000  0.4677840000000  0.5528520000000 1.0
C      1  0.5024910000000  0.4719750000000  0.5057690000000 1.0
C      1  0.5998710000000  0.4551240000000  0.4886020000000 1.0
C      1  0.5164850000000  0.5209740000000  0.5152900000000 1.0
C      1  0.5250470000000  0.5413920000000  0.5556600000000 1.0
C      1  0.4752760000000  0.4731910000000  0.4357710000000 1.0
C      1  0.5222420000000  0.4834090000000  0.4583080000000 1.0
C      1  0.6018230000000  0.5299820000000  0.5184060000000 1.0
C      1  0.4378950000000  0.4179430000000  0.5717780000000 1.0
C      1  0.5311920000000  0.4148630000000  0.4399610000000 1.0
C      1  0.4289510000000  0.5868790000000  0.4505040000000 1.0
C      1  0.4471070000000  0.4238190000000  0.5206890000000 1.0
C      1  0.4394940000000  0.4926690000000  0.4057180000000 1.0
C      1  0.5509320000000  0.5486420000000  0.5413080000000 1.0
C      1  0.4587300000000  0.5836520000000  0.5052800000000 1.0
C      1  0.5329690000000  0.5086300000000  0.6015990000000 1.0
C      1  0.5451490000000  0.5120850000000  0.5091840000000 1.0
C      1  0.4062150000000  0.5872850000000  0.4554670000000 1.0
C      1  0.5332570000000  0.4802900000000  0.5945320000000 1.0
C      1  0.5783480000000  0.4962190000000  0.4870590000000 1.0
C      1  0.4212800000000  0.5444090000000  0.5518130000000 1.0
C      1  0.4358420000000  0.4457230000000  0.4269360000000 1.0
C      1  0.5456350000000  0.4900370000000  0.5509640000000 1.0
C      1  0.5032320000000  0.5638650000000  0.4295670000000 1.0
C      1  0.5111860000000  0.4475160000000  0.4032530000000 1.0
C      1  0.4563410000000  0.5541850000000  0.4708630000000 1.0
C      1  0.4766350000000  0.5963320000000  0.4604210000000 1.0
C      1  0.4209960000000  0.4344220000000  0.4522570000000 1.0
C      1  0.5594240000000  0.5514500000000  0.5140730000000 1.0
C      1  0.5974800000000  0.5511020000000  0.4754540000000 1.0
C      1  0.5461030000000  0.5247970000000  0.5786300000000 1.0
C      1  0.4648030000000  0.4142250000000  0.5791830000000 1.0
C      1  0.5116410000000  0.5276490000000  0.6014800000000 1.0
C      1  0.4735160000000  0.4063860000000  0.5055710000000 1.0
C      1  0.5112420000000  0.5735280000000  0.5127090000000 1.0
C      1  0.5203470000000  0.4337030000000  0.5082830000000 1.0
C      1  0.4011500000000  0.4420260000000  0.5106470000000 1.0
C      1  0.5099200000000  0.4279280000000  0.4829300000000 1.0
C      1  0.5055190000000  0.4337570000000  0.5327320000000 1.0
C      1  0.5295470000000  0.4454450000000  0.4713600000000 1.0
C      1  0.4526180000000  0.3979230000000  0.4644970000000 1.0
C      1  0.6106890000000  0.5230250000000  0.4716630000000 1.0
C      1  0.5507720000000  0.5971550000000  0.4590420000000 1.0
C      1  0.3945470000000  0.4959860000000  0.5055450000000 1.0
C      1  0.5519630000000  0.4577950000000  0.5889960000000 1.0
C      1  0.5342540000000  0.5932310000000  0.5043620000000 1.0
C      1  0.5834430000000  0.4331080000000  0.4954240000000 1.0
C      1  0.5677740000000  0.4395230000000  0.5324410000000 1.0
C      1  0.5783660000000  0.4624110000000  0.5765370000000 1.0
C      1  0.4120920000000  0.5033370000000  0.4505990000000 1.0
C      1  0.4359050000000  0.5349230000000  0.4269340000000 1.0
C      1  0.4771310000000  0.5036710000000  0.4422630000000 1.0
C      1  0.4970160000000  0.3932230000000  0.5187710000000 1.0
C      1  0.5967110000000  0.5257020000000  0.5455980000000 1.0
C      1  0.4595360000000  0.4343780000000  0.4132180000000 1.0
C      1  0.4324140000000  0.5109040000000  0.5907060000000 1.0
C      1  0.4455420000000  0.4736840000000  0.5078120000000 1.0
C      1  0.5915750000000  0.4603650000000  0.4570750000000 1.0
END
