TITL C-883726-8501-435 13.7024441461482 125000 -24283.8680324719 0 0 161 (C1) n - 1
REM
REM in /home/nfs/bkarasulu/CARBON/AIRSS/Generating-Clusters/ReaxFF-fromJPCA2015/Units_Real/with-SteepDescent/Only-C1/SD-CG/Try1-3A/FIRE-CG
REM
REM
REM
REM
REM
REM ./C.cell (11c1c37f851c82e70ff6c80c92926a4b)
REM
REM compiler GCC version 9.2.1 20190827 (Red Hat 9.2.1-1)
REM options -cpp -mtune=generic -march=x86-64 -g -O0 -fpre-include=/usr/include/finclude/math-vector-fortran.h
REM seed 186925897 -1734437107 -970694112 -104230074 1238712344 1152388134 -1778371701 -43901159 1931908544 1161112083 -795622424 -1276794271 1366602420 1541598549 1250770150 -259025467 -2108108496 20841648 -272616532 -873000744 -610574312 -610180294 -1238936284 -900421044 1910336333 -926370015 1716275208 1202085419 -737661097 -378468883 -379543303 -113409618 -583927548
REM
CELL 1.54180   50.00000   50.00000   50.00000   90.00000   90.00000   90.00000
LATT -1
SFAC C  
C      1  0.4749740000000  0.5851960000000  0.5112590000000 1.0
C      1  0.5256210000000  0.4245800000000  0.4271950000000 1.0
C      1  0.4798000000000  0.3968890000000  0.5136760000000 1.0
C      1  0.4372410000000  0.4818030000000  0.5170290000000 1.0
C      1  0.5041430000000  0.4375820000000  0.5024430000000 1.0
C      1  0.4538930000000  0.4832950000000  0.4930570000000 1.0
C      1  0.4170700000000  0.4606660000000  0.5569390000000 1.0
C      1  0.4393490000000  0.5070560000000  0.5940580000000 1.0
C      1  0.4847370000000  0.5830150000000  0.4302610000000 1.0
C      1  0.5072760000000  0.5348960000000  0.5517090000000 1.0
C      1  0.4963740000000  0.4576230000000  0.5763020000000 1.0
C      1  0.4635330000000  0.5186970000000  0.6061940000000 1.0
C      1  0.5248700000000  0.4216150000000  0.4552680000000 1.0
C      1  0.4820920000000  0.5202920000000  0.5535870000000 1.0
C      1  0.5652970000000  0.4498790000000  0.4493980000000 1.0
C      1  0.4367630000000  0.4056970000000  0.4883160000000 1.0
C      1  0.5430530000000  0.4127610000000  0.4736710000000 1.0
C      1  0.5140550000000  0.5757730000000  0.4262560000000 1.0
C      1  0.5420160000000  0.5966180000000  0.5634840000000 1.0
C      1  0.5401980000000  0.4573240000000  0.4033040000000 1.0
C      1  0.4981190000000  0.5595120000000  0.4603890000000 1.0
C      1  0.5287170000000  0.4938270000000  0.5454100000000 1.0
C      1  0.4694200000000  0.5880320000000  0.5409090000000 1.0
C      1  0.5873890000000  0.5402550000000  0.4904140000000 1.0
C      1  0.4444940000000  0.5760590000000  0.5039290000000 1.0
C      1  0.4883440000000  0.5037040000000  0.6006060000000 1.0
C      1  0.5912790000000  0.5269760000000  0.4634300000000 1.0
C      1  0.5108680000000  0.4672260000000  0.4471470000000 1.0
C      1  0.5161360000000  0.5483470000000  0.4792410000000 1.0
C      1  0.4873280000000  0.4983630000000  0.5719320000000 1.0
C      1  0.5460300000000  0.4189140000000  0.5449350000000 1.0
C      1  0.4648680000000  0.4095780000000  0.5349500000000 1.0
C      1  0.4589880000000  0.5686610000000  0.4302740000000 1.0
C      1  0.4298150000000  0.5268530000000  0.5729100000000 1.0
C      1  0.5024120000000  0.4362190000000  0.4134510000000 1.0
C      1  0.5231830000000  0.4582040000000  0.4928780000000 1.0
C      1  0.5736490000000  0.5127420000000  0.5729180000000 1.0
C      1  0.5113760000000  0.4600910000000  0.4004350000000 1.0
C      1  0.4463450000000  0.5506480000000  0.5731580000000 1.0
C      1  0.4506020000000  0.4817400000000  0.5891370000000 1.0
C      1  0.4439020000000  0.5240180000000  0.5127040000000 1.0
C      1  0.4749410000000  0.4989790000000  0.4022840000000 1.0
C      1  0.5138940000000  0.4827980000000  0.5685640000000 1.0
C      1  0.5449530000000  0.4948740000000  0.4599400000000 1.0
C      1  0.5685390000000  0.4836030000000  0.4472960000000 1.0
C      1  0.4261860000000  0.4387810000000  0.4860200000000 1.0
C      1  0.5166680000000  0.5104910000000  0.6062380000000 1.0
C      1  0.5355950000000  0.5657950000000  0.5261460000000 1.0
C      1  0.5920960000000  0.5157610000000  0.5509290000000 1.0
C      1  0.5466220000000  0.5314560000000  0.5210620000000 1.0
C      1  0.4265050000000  0.3826480000000  0.4875460000000 1.0
C      1  0.4599170000000  0.5356750000000  0.4656970000000 1.0
C      1  0.4154000000000  0.5165220000000  0.5501420000000 1.0
C      1  0.4625030000000  0.4163570000000  0.4373990000000 1.0
C      1  0.5052600000000  0.4080100000000  0.4585670000000 1.0
C      1  0.4030620000000  0.5276650000000  0.4963280000000 1.0
C      1  0.4418660000000  0.4474230000000  0.5668140000000 1.0
C      1  0.6011680000000  0.4887650000000  0.5427150000000 1.0
C      1  0.4646750000000  0.3957760000000  0.4882850000000 1.0
C      1  0.5638380000000  0.4620520000000  0.5652630000000 1.0
C      1  0.4667770000000  0.5178590000000  0.5275680000000 1.0
C      1  0.4117090000000  0.5453960000000  0.4491340000000 1.0
C      1  0.4967600000000  0.4420870000000  0.5305240000000 1.0
C      1  0.4505910000000  0.5614480000000  0.4585030000000 1.0
C      1  0.5596260000000  0.4878860000000  0.5808390000000 1.0
C      1  0.5525030000000  0.4247150000000  0.5160510000000 1.0
C      1  0.4078070000000  0.5490630000000  0.4768820000000 1.0
C      1  0.4975850000000  0.4869530000000  0.5122510000000 1.0
C      1  0.6011550000000  0.4943520000000  0.5159530000000 1.0
C      1  0.4179430000000  0.5345310000000  0.5226030000000 1.0
C      1  0.5900900000000  0.4986900000000  0.4626410000000 1.0
C      1  0.4654650000000  0.5461450000000  0.5949030000000 1.0
C      1  0.4970980000000  0.5375220000000  0.4981200000000 1.0
C      1  0.5751380000000  0.5284490000000  0.5143570000000 1.0
C      1  0.5095220000000  0.6028780000000  0.4680130000000 1.0
C      1  0.4548050000000  0.4616740000000  0.5279670000000 1.0
C      1  0.4119880000000  0.4685490000000  0.4425680000000 1.0
C      1  0.4851170000000  0.4630350000000  0.4578300000000 1.0
C      1  0.4864820000000  0.5869310000000  0.4593890000000 1.0
C      1  0.5436970000000  0.5239500000000  0.4125100000000 1.0
C      1  0.5459730000000  0.5134550000000  0.4782100000000 1.0
C      1  0.5609330000000  0.4989220000000  0.4199640000000 1.0
C      1  0.4751690000000  0.4273530000000  0.4156340000000 1.0
C      1  0.5819690000000  0.5437940000000  0.4401840000000 1.0
C      1  0.5577250000000  0.5557860000000  0.4524250000000 1.0
C      1  0.4057390000000  0.4928720000000  0.4609540000000 1.0
C      1  0.4495850000000  0.4371780000000  0.4230550000000 1.0
C      1  0.5272240000000  0.4124050000000  0.5000400000000 1.0
C      1  0.5171560000000  0.5401040000000  0.6035330000000 1.0
C      1  0.5497200000000  0.4844000000000  0.3977570000000 1.0
C      1  0.4508330000000  0.5471530000000  0.4127110000000 1.0
C      1  0.4792320000000  0.4422630000000  0.4789880000000 1.0
C      1  0.5499380000000  0.4413890000000  0.4260130000000 1.0
C      1  0.5785870000000  0.4278140000000  0.5008900000000 1.0
C      1  0.5199220000000  0.5492670000000  0.4154680000000 1.0
C      1  0.4850710000000  0.4226660000000  0.5507160000000 1.0
C      1  0.5072020000000  0.4103220000000  0.5656590000000 1.0
C      1  0.5334650000000  0.4916110000000  0.5922050000000 1.0
C      1  0.5283700000000  0.5911830000000  0.4479500000000 1.0
C      1  0.5396680000000  0.5531080000000  0.5919370000000 1.0
C      1  0.4145750000000  0.4406220000000  0.5351380000000 1.0
C      1  0.4077500000000  0.4504190000000  0.5091320000000 1.0
C      1  0.4449890000000  0.4347390000000  0.5387100000000 1.0
C      1  0.4961700000000  0.5417340000000  0.4096700000000 1.0
C      1  0.5947850000000  0.4858160000000  0.4894530000000 1.0
C      1  0.5656720000000  0.4316470000000  0.4718870000000 1.0
C      1  0.4189100000000  0.4506810000000  0.4609420000000 1.0
C      1  0.4480770000000  0.5693840000000  0.5497250000000 1.0
C      1  0.3994210000000  0.4997220000000  0.4892100000000 1.0
C      1  0.4857850000000  0.5342910000000  0.4554750000000 1.0
C      1  0.5776850000000  0.5645370000000  0.5011220000000 1.0
C      1  0.5894810000000  0.4429580000000  0.5237620000000 1.0
C      1  0.5350820000000  0.5221780000000  0.5488400000000 1.0
C      1  0.5054020000000  0.5939850000000  0.4952710000000 1.0
C      1  0.4510340000000  0.4990000000000  0.4427380000000 1.0
C      1  0.5232000000000  0.4001620000000  0.5432910000000 1.0
C      1  0.5558990000000  0.5784250000000  0.5450150000000 1.0
C      1  0.5314720000000  0.5857790000000  0.5037380000000 1.0
C      1  0.5411260000000  0.5391260000000  0.4692830000000 1.0
C      1  0.4512330000000  0.4872660000000  0.4158400000000 1.0
C      1  0.4075900000000  0.4794320000000  0.5100630000000 1.0
C      1  0.4726360000000  0.5289210000000  0.4030770000000 1.0
C      1  0.5159580000000  0.4366700000000  0.5756530000000 1.0
C      1  0.5008710000000  0.5815450000000  0.5861680000000 1.0
C      1  0.4654450000000  0.4594690000000  0.5805700000000 1.0
C      1  0.4959890000000  0.5078070000000  0.4550510000000 1.0
C      1  0.4223140000000  0.5419350000000  0.4224250000000 1.0
C      1  0.5246750000000  0.4889670000000  0.5182840000000 1.0
C      1  0.5883440000000  0.5421960000000  0.5345040000000 1.0
C      1  0.4137540000000  0.4887180000000  0.5506630000000 1.0
C      1  0.5582340000000  0.5829830000000  0.4898300000000 1.0
C      1  0.5704720000000  0.4721040000000  0.4979230000000 1.0
C      1  0.4863980000000  0.5122200000000  0.5061650000000 1.0
C      1  0.4925310000000  0.5565590000000  0.5980220000000 1.0
C      1  0.4367060000000  0.4633070000000  0.4250490000000 1.0
C      1  0.5022310000000  0.4886250000000  0.3985850000000 1.0
C      1  0.5572810000000  0.5381000000000  0.5716040000000 1.0
C      1  0.5446760000000  0.4400680000000  0.5644420000000 1.0
C      1  0.5080630000000  0.5589660000000  0.5368700000000 1.0
C      1  0.4308090000000  0.5690460000000  0.4791130000000 1.0
C      1  0.5491490000000  0.4569700000000  0.5074800000000 1.0
C      1  0.4768650000000  0.4115580000000  0.4634550000000 1.0
C      1  0.5160430000000  0.6054150000000  0.5563020000000 1.0
C      1  0.5304090000000  0.5802690000000  0.5861870000000 1.0
C      1  0.5276610000000  0.5035630000000  0.3950970000000 1.0
C      1  0.5099850000000  0.3959560000000  0.5174890000000 1.0
C      1  0.4543360000000  0.4553510000000  0.4865040000000 1.0
C      1  0.4901580000000  0.5962530000000  0.5610110000000 1.0
C      1  0.4826700000000  0.4668780000000  0.5264560000000 1.0
C      1  0.4299260000000  0.5075240000000  0.4597700000000 1.0
C      1  0.5199660000000  0.4941420000000  0.4477830000000 1.0
C      1  0.5229240000000  0.4497460000000  0.4651070000000 1.0
C      1  0.4869720000000  0.5583060000000  0.5163150000000 1.0
C      1  0.4745120000000  0.4895550000000  0.4572600000000 1.0
C      1  0.5533990000000  0.5837060000000  0.4601270000000 1.0
C      1  0.5861810000000  0.4616360000000  0.5465560000000 1.0
C      1  0.4468640000000  0.5147600000000  0.4836000000000 1.0
C      1  0.5731500000000  0.5574560000000  0.5539420000000 1.0
C      1  0.4325950000000  0.5635750000000  0.5262280000000 1.0
C      1  0.5363550000000  0.5102760000000  0.5037060000000 1.0
C      1  0.5725100000000  0.5371820000000  0.4126230000000 1.0
END
