TITL C-884134-5972-430 -6.50486686207018 125000 -23076.4791669249 0 0 155 (C1) n - 1
REM
REM in /home/nfs/bkarasulu/CARBON/AIRSS/Generating-Clusters/ReaxFF-fromJPCA2015/Units_Real/with-SteepDescent/Only-C1/SD-CG/Try1-3A/FIRE-CG
REM
REM
REM
REM
REM
REM ./C.cell (11c1c37f851c82e70ff6c80c92926a4b)
REM
REM compiler GCC version 9.2.1 20190827 (Red Hat 9.2.1-1)
REM options -cpp -mtune=generic -march=x86-64 -g -O0 -fpre-include=/usr/include/finclude/math-vector-fortran.h
REM seed -291417661 -2140647526 814405945 882707931 -262540965 -148115263 80059577 -217855546 -727084412 -1648644121 767540744 929964125 -1857109365 -551847581 -920383457 1766114463 1248495673 -1068660615 -509103438 1247835935 1937700628 -162568851 -923000569 1442106875 370938425 -1087272396 -1463670677 -5169446 298588421 -1819900050 1985270221 326953711 -969232618
REM
CELL 1.54180   50.00000   50.00000   50.00000   90.00000   90.00000   90.00000
LATT -1
SFAC C  
C      1  0.5797890000000  0.4465380000000  0.4919280000000 1.0
C      1  0.4443800000000  0.4323680000000  0.4436320000000 1.0
C      1  0.4935010000000  0.4884350000000  0.5570620000000 1.0
C      1  0.5594070000000  0.4175790000000  0.4594320000000 1.0
C      1  0.4894870000000  0.5220000000000  0.5891250000000 1.0
C      1  0.5603320000000  0.5836170000000  0.5391230000000 1.0
C      1  0.4732780000000  0.5017660000000  0.5422970000000 1.0
C      1  0.5165400000000  0.4497300000000  0.4021130000000 1.0
C      1  0.4964080000000  0.5772320000000  0.5752340000000 1.0
C      1  0.5432040000000  0.5692010000000  0.4076030000000 1.0
C      1  0.6025330000000  0.4731540000000  0.5300890000000 1.0
C      1  0.5861880000000  0.5403370000000  0.5550340000000 1.0
C      1  0.5027760000000  0.5766890000000  0.5272260000000 1.0
C      1  0.4146380000000  0.5517450000000  0.5343840000000 1.0
C      1  0.5747040000000  0.5675360000000  0.5563180000000 1.0
C      1  0.5130260000000  0.6042330000000  0.4901720000000 1.0
C      1  0.5247190000000  0.5689960000000  0.3908140000000 1.0
C      1  0.5606160000000  0.4681570000000  0.4475750000000 1.0
C      1  0.4489630000000  0.4702570000000  0.5828950000000 1.0
C      1  0.5079710000000  0.4946680000000  0.3805190000000 1.0
C      1  0.5561670000000  0.4778340000000  0.3953710000000 1.0
C      1  0.5222590000000  0.5611080000000  0.5721450000000 1.0
C      1  0.4670320000000  0.5396100000000  0.5861830000000 1.0
C      1  0.4668200000000  0.4116840000000  0.5369840000000 1.0
C      1  0.5553090000000  0.5819670000000  0.4695330000000 1.0
C      1  0.4111300000000  0.4502500000000  0.5013670000000 1.0
C      1  0.4438860000000  0.4990960000000  0.4500600000000 1.0
C      1  0.4307730000000  0.4830210000000  0.5273600000000 1.0
C      1  0.4856560000000  0.4049990000000  0.4712950000000 1.0
C      1  0.5327740000000  0.5415680000000  0.5926160000000 1.0
C      1  0.5199180000000  0.4447740000000  0.4638820000000 1.0
C      1  0.5054690000000  0.5682350000000  0.4602010000000 1.0
C      1  0.4780460000000  0.5778060000000  0.4525870000000 1.0
C      1  0.5524200000000  0.5806450000000  0.5112600000000 1.0
C      1  0.4528450000000  0.5374770000000  0.5603700000000 1.0
C      1  0.4226680000000  0.4994400000000  0.4900720000000 1.0
C      1  0.5257790000000  0.5015820000000  0.6135490000000 1.0
C      1  0.4145120000000  0.5572950000000  0.4735880000000 1.0
C      1  0.4785100000000  0.4758510000000  0.5841900000000 1.0
C      1  0.4261790000000  0.5741060000000  0.4953150000000 1.0
C      1  0.4313050000000  0.5736810000000  0.5244380000000 1.0
C      1  0.4140630000000  0.4593890000000  0.5287890000000 1.0
C      1  0.4849490000000  0.4581990000000  0.5008280000000 1.0
C      1  0.5838060000000  0.4874410000000  0.4514430000000 1.0
C      1  0.5642040000000  0.5288130000000  0.5058490000000 1.0
C      1  0.4676410000000  0.5910890000000  0.4757870000000 1.0
C      1  0.5515650000000  0.5223370000000  0.5820950000000 1.0
C      1  0.4653240000000  0.4269110000000  0.5642050000000 1.0
C      1  0.4444470000000  0.5300160000000  0.4066470000000 1.0
C      1  0.4685480000000  0.4459400000000  0.4511050000000 1.0
C      1  0.5519270000000  0.5556380000000  0.4294630000000 1.0
C      1  0.4846950000000  0.4815270000000  0.4234540000000 1.0
C      1  0.4560070000000  0.3966580000000  0.4706490000000 1.0
C      1  0.6035270000000  0.5366740000000  0.4814820000000 1.0
C      1  0.4555130000000  0.5378030000000  0.4842530000000 1.0
C      1  0.4521930000000  0.4710930000000  0.4606010000000 1.0
C      1  0.4399460000000  0.4209050000000  0.5239960000000 1.0
C      1  0.5291140000000  0.4450470000000  0.4979680000000 1.0
C      1  0.4571340000000  0.5096560000000  0.3899060000000 1.0
C      1  0.4792270000000  0.5929950000000  0.5220070000000 1.0
C      1  0.5940460000000  0.4682860000000  0.5564930000000 1.0
C      1  0.5077140000000  0.5523780000000  0.3992800000000 1.0
C      1  0.5257580000000  0.5889630000000  0.4683650000000 1.0
C      1  0.5454060000000  0.4701750000000  0.5807020000000 1.0
C      1  0.4361360000000  0.4177960000000  0.4693010000000 1.0
C      1  0.4978450000000  0.4500850000000  0.5918120000000 1.0
C      1  0.5259080000000  0.5112860000000  0.5185690000000 1.0
C      1  0.5236360000000  0.3932660000000  0.4844470000000 1.0
C      1  0.3999490000000  0.5130950000000  0.5361560000000 1.0
C      1  0.5556810000000  0.5181610000000  0.4542830000000 1.0
C      1  0.4998720000000  0.5464700000000  0.5307710000000 1.0
C      1  0.4563180000000  0.5835270000000  0.5372620000000 1.0
C      1  0.5507110000000  0.4811410000000  0.5328420000000 1.0
C      1  0.5265650000000  0.4733400000000  0.3866850000000 1.0
C      1  0.5395310000000  0.4710210000000  0.5095130000000 1.0
C      1  0.4758130000000  0.4999910000000  0.5918810000000 1.0
C      1  0.4898290000000  0.4259550000000  0.5798090000000 1.0
C      1  0.5906090000000  0.5415560000000  0.4557500000000 1.0
C      1  0.3946010000000  0.5143790000000  0.4646450000000 1.0
C      1  0.4471130000000  0.4908040000000  0.5477140000000 1.0
C      1  0.5533760000000  0.5108090000000  0.5336050000000 1.0
C      1  0.5055280000000  0.4902210000000  0.4515110000000 1.0
C      1  0.5388440000000  0.4384530000000  0.4173350000000 1.0
C      1  0.5370580000000  0.4270770000000  0.4440350000000 1.0
C      1  0.6074820000000  0.5088900000000  0.4909290000000 1.0
C      1  0.5280280000000  0.4716080000000  0.4543700000000 1.0
C      1  0.5595150000000  0.5554320000000  0.4996930000000 1.0
C      1  0.5107790000000  0.5319090000000  0.5030890000000 1.0
C      1  0.4092130000000  0.4737760000000  0.4838160000000 1.0
C      1  0.5340220000000  0.4954110000000  0.4959890000000 1.0
C      1  0.5859420000000  0.4935320000000  0.4792840000000 1.0
C      1  0.5475330000000  0.4178230000000  0.5342370000000 1.0
C      1  0.4900670000000  0.4919830000000  0.4771790000000 1.0
C      1  0.5859120000000  0.4487770000000  0.5192630000000 1.0
C      1  0.5648040000000  0.5225090000000  0.5580040000000 1.0
C      1  0.5040710000000  0.4028430000000  0.5647190000000 1.0
C      1  0.4438440000000  0.4452960000000  0.5679770000000 1.0
C      1  0.4115510000000  0.5101040000000  0.5621390000000 1.0
C      1  0.4862070000000  0.5046800000000  0.3998750000000 1.0
C      1  0.6085860000000  0.5028290000000  0.5203960000000 1.0
C      1  0.4992560000000  0.3963830000000  0.4964580000000 1.0
C      1  0.5081870000000  0.5410500000000  0.4701710000000 1.0
C      1  0.4003930000000  0.5323910000000  0.5168180000000 1.0
C      1  0.4169570000000  0.4722780000000  0.4328540000000 1.0
C      1  0.4703090000000  0.5308810000000  0.5368300000000 1.0
C      1  0.5719900000000  0.4433320000000  0.4656580000000 1.0
C      1  0.5714850000000  0.5637520000000  0.4509230000000 1.0
C      1  0.4328470000000  0.4926560000000  0.5732800000000 1.0
C      1  0.4221830000000  0.4639760000000  0.4599810000000 1.0
C      1  0.5162230000000  0.5065660000000  0.5583430000000 1.0
C      1  0.5601180000000  0.4635320000000  0.5557440000000 1.0
C      1  0.5195370000000  0.4110700000000  0.5413770000000 1.0
C      1  0.4238270000000  0.5373780000000  0.5590770000000 1.0
C      1  0.5597910000000  0.4596190000000  0.4178760000000 1.0
C      1  0.4242820000000  0.5306190000000  0.4293220000000 1.0
C      1  0.4937860000000  0.5336830000000  0.4163220000000 1.0
C      1  0.4662490000000  0.5458280000000  0.4186870000000 1.0
C      1  0.5462730000000  0.4211280000000  0.5050480000000 1.0
C      1  0.5481010000000  0.5744210000000  0.5619930000000 1.0
C      1  0.4281110000000  0.4384940000000  0.5437320000000 1.0
C      1  0.4290360000000  0.5528530000000  0.4476080000000 1.0
C      1  0.5505380000000  0.4015000000000  0.4832330000000 1.0
C      1  0.5673920000000  0.4383530000000  0.5403790000000 1.0
C      1  0.3986000000000  0.5343790000000  0.4843150000000 1.0
C      1  0.4842180000000  0.6047470000000  0.4951680000000 1.0
C      1  0.5575920000000  0.5086020000000  0.4828670000000 1.0
C      1  0.4564640000000  0.5623940000000  0.4397620000000 1.0
C      1  0.4295920000000  0.4277280000000  0.4976680000000 1.0
C      1  0.5094770000000  0.5346870000000  0.5565570000000 1.0
C      1  0.4678690000000  0.4764450000000  0.4876450000000 1.0
C      1  0.4635440000000  0.4637120000000  0.4123850000000 1.0
C      1  0.5128020000000  0.5266300000000  0.6065440000000 1.0
C      1  0.4707080000000  0.5827140000000  0.5632500000000 1.0
C      1  0.5211890000000  0.4743710000000  0.6142920000000 1.0
C      1  0.4532570000000  0.5670900000000  0.4871050000000 1.0
C      1  0.4906290000000  0.4532810000000  0.4148660000000 1.0
C      1  0.4374520000000  0.4533540000000  0.4232520000000 1.0
C      1  0.4383630000000  0.5171330000000  0.4723810000000 1.0
C      1  0.5372760000000  0.4977850000000  0.5834110000000 1.0
C      1  0.5824700000000  0.5158320000000  0.4428910000000 1.0
C      1  0.5024330000000  0.4427050000000  0.5110690000000 1.0
C      1  0.4623390000000  0.5208960000000  0.5080090000000 1.0
C      1  0.4461700000000  0.4943980000000  0.5062370000000 1.0
C      1  0.4910650000000  0.4319510000000  0.4613550000000 1.0
C      1  0.4889100000000  0.5142760000000  0.4945020000000 1.0
C      1  0.5269140000000  0.4533680000000  0.5963350000000 1.0
C      1  0.5857950000000  0.5472540000000  0.5017040000000 1.0
C      1  0.5372740000000  0.5304870000000  0.4373180000000 1.0
C      1  0.4152020000000  0.5037510000000  0.4404900000000 1.0
C      1  0.4804440000000  0.3886350000000  0.5536990000000 1.0
C      1  0.5996310000000  0.5231460000000  0.5373400000000 1.0
C      1  0.5094400000000  0.5240450000000  0.4458680000000 1.0
C      1  0.4970060000000  0.4153550000000  0.5215910000000 1.0
C      1  0.4737170000000  0.5673570000000  0.5863380000000 1.0
C      1  0.5241400000000  0.5897100000000  0.5128780000000 1.0
END
