TITL C-883736-9678-255 48.8371496858006 125000 -29461.5716412909 0 0 197 (C1) n - 1
REM
REM in /home/nfs/bkarasulu/CARBON/AIRSS/Generating-Clusters/ReaxFF-fromJPCA2015/Units_Real/with-SteepDescent/Only-C1/SD-CG/Try1-3A/FIRE-CG
REM
REM
REM
REM
REM
REM ./C.cell (11c1c37f851c82e70ff6c80c92926a4b)
REM
REM compiler GCC version 9.2.1 20190827 (Red Hat 9.2.1-1)
REM options -cpp -mtune=generic -march=x86-64 -g -O0 -fpre-include=/usr/include/finclude/math-vector-fortran.h
REM seed -558408999 1731915969 -971620790 2039235376 792466751 -1684308221 478327899 -379195669 -568112824 1050383326 -543319418 414236818 327975628 -608588343 -273521512 1111682818 353675655 -1833592129 866966589 1735236138 -478756930 1918023114 -1216994897 2111401399 -282442106 1246451622 -299121386 -638744495 1588370084 162576713 -1094726926 603013400 -1157602967
REM
CELL 1.54180   50.00000   50.00000   50.00000   90.00000   90.00000   90.00000
LATT -1
SFAC C  
C      1  0.5341360000000  0.4734940000000  0.5490890000000 1.0
C      1  0.5019220000000  0.4345170000000  0.4945330000000 1.0
C      1  0.4771110000000  0.4990450000000  0.3835110000000 1.0
C      1  0.5220180000000  0.5375290000000  0.5986890000000 1.0
C      1  0.5000210000000  0.5397140000000  0.4263100000000 1.0
C      1  0.5024160000000  0.4699270000000  0.6125910000000 1.0
C      1  0.4311470000000  0.5624680000000  0.5547680000000 1.0
C      1  0.4797590000000  0.6157030000000  0.5074820000000 1.0
C      1  0.5099580000000  0.4184160000000  0.5745350000000 1.0
C      1  0.4852800000000  0.5139560000000  0.5814210000000 1.0
C      1  0.3915610000000  0.4568950000000  0.5032140000000 1.0
C      1  0.4852090000000  0.5865080000000  0.4275050000000 1.0
C      1  0.4216870000000  0.5116820000000  0.5801200000000 1.0
C      1  0.4256220000000  0.5724490000000  0.4781570000000 1.0
C      1  0.5370830000000  0.4965520000000  0.4231360000000 1.0
C      1  0.5984440000000  0.5237080000000  0.5507200000000 1.0
C      1  0.4124870000000  0.5457610000000  0.4760980000000 1.0
C      1  0.5762420000000  0.4271830000000  0.4591750000000 1.0
C      1  0.4566480000000  0.4066360000000  0.4472510000000 1.0
C      1  0.5587430000000  0.4750870000000  0.5665260000000 1.0
C      1  0.5040110000000  0.6185510000000  0.4917470000000 1.0
C      1  0.5219120000000  0.5608990000000  0.4715910000000 1.0
C      1  0.5616620000000  0.5057680000000  0.4061280000000 1.0
C      1  0.5711720000000  0.5313340000000  0.4189300000000 1.0
C      1  0.4787220000000  0.4541170000000  0.4822710000000 1.0
C      1  0.4588280000000  0.4042110000000  0.5451900000000 1.0
C      1  0.4688910000000  0.5473330000000  0.6042490000000 1.0
C      1  0.5676150000000  0.4214680000000  0.5089380000000 1.0
C      1  0.5693170000000  0.5543540000000  0.5550250000000 1.0
C      1  0.5361790000000  0.5313260000000  0.5373380000000 1.0
C      1  0.4817560000000  0.3876170000000  0.5079090000000 1.0
C      1  0.5093760000000  0.4004790000000  0.5511570000000 1.0
C      1  0.4518990000000  0.5247630000000  0.6065500000000 1.0
C      1  0.5959540000000  0.4425600000000  0.4740540000000 1.0
C      1  0.5714680000000  0.4344320000000  0.5552400000000 1.0
C      1  0.4952270000000  0.5311990000000  0.5605880000000 1.0
C      1  0.5283580000000  0.5628050000000  0.5849360000000 1.0
C      1  0.4006160000000  0.5006240000000  0.4952190000000 1.0
C      1  0.4578730000000  0.4539550000000  0.4587250000000 1.0
C      1  0.3882500000000  0.4767840000000  0.4528710000000 1.0
C      1  0.4031050000000  0.4532170000000  0.5334290000000 1.0
C      1  0.4865690000000  0.5749500000000  0.5289300000000 1.0
C      1  0.4872030000000  0.5599120000000  0.5584330000000 1.0
C      1  0.4025030000000  0.5456490000000  0.5235660000000 1.0
C      1  0.4497010000000  0.5677050000000  0.4945130000000 1.0
C      1  0.5296630000000  0.4020340000000  0.4478420000000 1.0
C      1  0.5657250000000  0.4341990000000  0.4333130000000 1.0
C      1  0.4561900000000  0.5108730000000  0.4827930000000 1.0
C      1  0.4651530000000  0.5378030000000  0.5250080000000 1.0
C      1  0.4737150000000  0.4728320000000  0.5524060000000 1.0
C      1  0.5151030000000  0.4381700000000  0.4363670000000 1.0
C      1  0.4419980000000  0.5145450000000  0.5582570000000 1.0
C      1  0.5055520000000  0.5791430000000  0.5761430000000 1.0
C      1  0.5721830000000  0.4638450000000  0.4268300000000 1.0
C      1  0.5290260000000  0.4482260000000  0.5343090000000 1.0
C      1  0.4947980000000  0.4756430000000  0.4744360000000 1.0
C      1  0.4500980000000  0.4800170000000  0.4456000000000 1.0
C      1  0.5474370000000  0.4546060000000  0.5867040000000 1.0
C      1  0.5480360000000  0.5992090000000  0.4574260000000 1.0
C      1  0.4369410000000  0.5688140000000  0.4335400000000 1.0
C      1  0.4206410000000  0.4257020000000  0.4712510000000 1.0
C      1  0.5535830000000  0.4452580000000  0.5189510000000 1.0
C      1  0.4976680000000  0.5742120000000  0.4777350000000 1.0
C      1  0.4390380000000  0.5183630000000  0.4153310000000 1.0
C      1  0.4382660000000  0.5320830000000  0.4792660000000 1.0
C      1  0.4519580000000  0.4938690000000  0.3971960000000 1.0
C      1  0.5331220000000  0.5619210000000  0.5004970000000 1.0
C      1  0.6079620000000  0.4682210000000  0.4621690000000 1.0
C      1  0.5314820000000  0.6127260000000  0.4999420000000 1.0
C      1  0.4957850000000  0.4810510000000  0.4461250000000 1.0
C      1  0.4918820000000  0.5276570000000  0.5148470000000 1.0
C      1  0.5957820000000  0.4853050000000  0.4422570000000 1.0
C      1  0.4959930000000  0.4027650000000  0.4850500000000 1.0
C      1  0.5492940000000  0.5045390000000  0.5024850000000 1.0
C      1  0.4309470000000  0.4043280000000  0.5363320000000 1.0
C      1  0.5335350000000  0.5896010000000  0.5166230000000 1.0
C      1  0.4410840000000  0.4984260000000  0.5341350000000 1.0
C      1  0.4831150000000  0.4469930000000  0.5502720000000 1.0
C      1  0.5250780000000  0.6009310000000  0.4428640000000 1.0
C      1  0.5997980000000  0.4562430000000  0.5237260000000 1.0
C      1  0.4846160000000  0.3922070000000  0.5365470000000 1.0
C      1  0.5238950000000  0.4912350000000  0.6120130000000 1.0
C      1  0.4790810000000  0.5706420000000  0.5010040000000 1.0
C      1  0.4705340000000  0.4891270000000  0.5757360000000 1.0
C      1  0.4276980000000  0.4615150000000  0.5768190000000 1.0
C      1  0.5454450000000  0.4717470000000  0.4378800000000 1.0
C      1  0.5319900000000  0.4638580000000  0.6094980000000 1.0
C      1  0.3990550000000  0.5186780000000  0.5377080000000 1.0
C      1  0.4018810000000  0.5007800000000  0.5615480000000 1.0
C      1  0.4148970000000  0.4993100000000  0.5225900000000 1.0
C      1  0.5721830000000  0.5457840000000  0.4781940000000 1.0
C      1  0.6057850000000  0.5439970000000  0.4543490000000 1.0
C      1  0.4511360000000  0.4744730000000  0.5936170000000 1.0
C      1  0.3843200000000  0.4776730000000  0.4836470000000 1.0
C      1  0.5466440000000  0.5701110000000  0.5633250000000 1.0
C      1  0.5084680000000  0.5433460000000  0.3983870000000 1.0
C      1  0.4376860000000  0.5008630000000  0.6028330000000 1.0
C      1  0.4761640000000  0.5585600000000  0.4248010000000 1.0
C      1  0.6059530000000  0.5436110000000  0.5282920000000 1.0
C      1  0.5387880000000  0.4212310000000  0.4291250000000 1.0
C      1  0.4559440000000  0.3820790000000  0.4963990000000 1.0
C      1  0.4773820000000  0.4574040000000  0.4054900000000 1.0
C      1  0.5553850000000  0.4124220000000  0.5622040000000 1.0
C      1  0.4866940000000  0.5091120000000  0.4379490000000 1.0
C      1  0.5289770000000  0.4537130000000  0.4533200000000 1.0
C      1  0.4822730000000  0.6031760000000  0.5365720000000 1.0
C      1  0.4941490000000  0.4759680000000  0.3897470000000 1.0
C      1  0.4122330000000  0.5116040000000  0.4269120000000 1.0
C      1  0.5825780000000  0.4573850000000  0.5495300000000 1.0
C      1  0.5262040000000  0.5055860000000  0.4930170000000 1.0
C      1  0.4950820000000  0.4953550000000  0.5233480000000 1.0
C      1  0.5382150000000  0.4272690000000  0.5804200000000 1.0
C      1  0.4474470000000  0.4883950000000  0.4952440000000 1.0
C      1  0.4751350000000  0.6033730000000  0.4498380000000 1.0
C      1  0.5140760000000  0.5858350000000  0.4206740000000 1.0
C      1  0.4491930000000  0.4658130000000  0.4064150000000 1.0
C      1  0.5187920000000  0.5189140000000  0.5538290000000 1.0
C      1  0.4304370000000  0.5877420000000  0.4536060000000 1.0
C      1  0.5838890000000  0.5071940000000  0.5322060000000 1.0
C      1  0.5413840000000  0.5190170000000  0.4486260000000 1.0
C      1  0.4003880000000  0.4410060000000  0.4822960000000 1.0
C      1  0.5570390000000  0.5140830000000  0.5268770000000 1.0
C      1  0.6236120000000  0.5343310000000  0.4764410000000 1.0
C      1  0.6269820000000  0.4793740000000  0.4836430000000 1.0
C      1  0.4491670000000  0.4403200000000  0.5131160000000 1.0
C      1  0.4956390000000  0.5209200000000  0.4639820000000 1.0
C      1  0.5740910000000  0.4804990000000  0.3998300000000 1.0
C      1  0.5339310000000  0.5908780000000  0.5456410000000 1.0
C      1  0.4486800000000  0.5499570000000  0.4184920000000 1.0
C      1  0.4057400000000  0.4620190000000  0.4350650000000 1.0
C      1  0.4569350000000  0.3853290000000  0.4669160000000 1.0
C      1  0.5940560000000  0.4375580000000  0.5024950000000 1.0
C      1  0.4400210000000  0.4309870000000  0.4472210000000 1.0
C      1  0.4937640000000  0.5304360000000  0.6044150000000 1.0
C      1  0.6156760000000  0.4764240000000  0.5104430000000 1.0
C      1  0.4520960000000  0.6030420000000  0.4678640000000 1.0
C      1  0.5996470000000  0.5029100000000  0.5065670000000 1.0
C      1  0.5063220000000  0.4864960000000  0.4978450000000 1.0
C      1  0.5907080000000  0.5225650000000  0.4400660000000 1.0
C      1  0.4320780000000  0.4702680000000  0.4644870000000 1.0
C      1  0.4568180000000  0.5064010000000  0.4370310000000 1.0
C      1  0.4653500000000  0.4305930000000  0.5342700000000 1.0
C      1  0.5814790000000  0.5583590000000  0.5285150000000 1.0
C      1  0.5034800000000  0.4397110000000  0.5231940000000 1.0
C      1  0.6354250000000  0.5065610000000  0.4752670000000 1.0
C      1  0.5597110000000  0.5053950000000  0.5785220000000 1.0
C      1  0.5311420000000  0.4423820000000  0.4787190000000 1.0
C      1  0.5148650000000  0.4930380000000  0.5454420000000 1.0
C      1  0.4884030000000  0.4373200000000  0.5794240000000 1.0
C      1  0.5376370000000  0.5124020000000  0.5963980000000 1.0
C      1  0.6163140000000  0.5302870000000  0.5046020000000 1.0
C      1  0.4241680000000  0.4853890000000  0.4853660000000 1.0
C      1  0.3979340000000  0.5341420000000  0.4981880000000 1.0
C      1  0.5285150000000  0.5636810000000  0.4064990000000 1.0
C      1  0.3948520000000  0.5006070000000  0.4375790000000 1.0
C      1  0.4359750000000  0.5944050000000  0.5215360000000 1.0
C      1  0.4324490000000  0.3945270000000  0.5092200000000 1.0
C      1  0.5081010000000  0.5993760000000  0.5558160000000 1.0
C      1  0.5221080000000  0.5153840000000  0.4690370000000 1.0
C      1  0.5376290000000  0.3969060000000  0.5431350000000 1.0
C      1  0.4085520000000  0.4714870000000  0.5557780000000 1.0
C      1  0.4613350000000  0.4650360000000  0.5045120000000 1.0
C      1  0.4292440000000  0.4510900000000  0.4239520000000 1.0
C      1  0.5759640000000  0.5274600000000  0.5690680000000 1.0
C      1  0.5562240000000  0.6069960000000  0.4813150000000 1.0
C      1  0.5772780000000  0.5861630000000  0.4822280000000 1.0
C      1  0.5156140000000  0.4944040000000  0.3997480000000 1.0
C      1  0.4805020000000  0.4567370000000  0.5992520000000 1.0
C      1  0.4143080000000  0.4288090000000  0.5443090000000 1.0
C      1  0.5036520000000  0.5167100000000  0.3868660000000 1.0
C      1  0.5675190000000  0.5632520000000  0.5010640000000 1.0
C      1  0.4505840000000  0.5991410000000  0.5454120000000 1.0
C      1  0.4817110000000  0.5231200000000  0.4869680000000 1.0
C      1  0.4535860000000  0.6073620000000  0.4979180000000 1.0
C      1  0.4796320000000  0.3994730000000  0.4609520000000 1.0
C      1  0.4462570000000  0.5829920000000  0.5694260000000 1.0
C      1  0.5289940000000  0.5459340000000  0.4439470000000 1.0
C      1  0.5492250000000  0.4586290000000  0.4946480000000 1.0
C      1  0.5706480000000  0.5199260000000  0.4646180000000 1.0
C      1  0.5454120000000  0.3920500000000  0.4899450000000 1.0
C      1  0.4512540000000  0.5401600000000  0.5498110000000 1.0
C      1  0.5592360000000  0.4842240000000  0.4882150000000 1.0
C      1  0.4230900000000  0.4327680000000  0.5737130000000 1.0
C      1  0.4675840000000  0.5670140000000  0.5814390000000 1.0
C      1  0.4462030000000  0.5431050000000  0.5045090000000 1.0
C      1  0.5499510000000  0.5516160000000  0.4228270000000 1.0
C      1  0.5007950000000  0.6041570000000  0.4648910000000 1.0
C      1  0.4187750000000  0.5711690000000  0.5299330000000 1.0
C      1  0.4340260000000  0.4216390000000  0.4973630000000 1.0
C      1  0.5190960000000  0.5423820000000  0.5176100000000 1.0
C      1  0.4678580000000  0.4835860000000  0.5283190000000 1.0
C      1  0.4947160000000  0.4575990000000  0.4291640000000 1.0
C      1  0.5866220000000  0.5649380000000  0.4632200000000 1.0
C      1  0.5820750000000  0.4986710000000  0.4817460000000 1.0
C      1  0.5555670000000  0.4189340000000  0.4801260000000 1.0
C      1  0.5508800000000  0.3952470000000  0.5178010000000 1.0
C      1  0.5221250000000  0.3902540000000  0.4722810000000 1.0
END
