TITL C-884132-5695-12 0.000863132174862036 125000 -3792.32086831271 0 0 27 (C1) n - 1
REM
REM in /home/nfs/bkarasulu/CARBON/AIRSS/Generating-Clusters/ReaxFF-fromJPCA2015/Units_Real/with-SteepDescent/Only-C1/SD-CG/Try1-3A/FIRE-CG
REM
REM
REM
REM
REM
REM ./C.cell (11c1c37f851c82e70ff6c80c92926a4b)
REM
REM compiler GCC version 9.2.1 20190827 (Red Hat 9.2.1-1)
REM options -cpp -mtune=generic -march=x86-64 -g -O0 -fpre-include=/usr/include/finclude/math-vector-fortran.h
REM seed 220956577 -1307744068 -1160630446 -2116235182 -1162344054 -459437900 1686107128 -1485138505 1459650034 919232472 -1356328508 -1921137717 897677745 1785331645 900305072 -820860440 -2002342134 -1026186998 1516002025 -1988880137 -1095067536 2002045255 804434102 286616345 -1573156812 2134169617 -1732965837 -995247285 440146013 1093877530 -1170803097 -541359639 -1703883109
REM
CELL 1.54180   50.00000   50.00000   50.00000   90.00000   90.00000   90.00000
LATT -1
SFAC C  
C      1  0.4679580000000  0.4802110000000  0.5304650000000 1.0
C      1  0.5225720000000  0.5439870000000  0.5584140000000 1.0
C      1  0.4661580000000  0.4519260000000  0.5311690000000 1.0
C      1  0.4707550000000  0.5424260000000  0.4866400000000 1.0
C      1  0.4975640000000  0.5492190000000  0.5450040000000 1.0
C      1  0.5427380000000  0.5102060000000  0.5405310000000 1.0
C      1  0.4502780000000  0.4606780000000  0.4829800000000 1.0
C      1  0.5198860000000  0.5307020000000  0.4334320000000 1.0
C      1  0.4678890000000  0.5141490000000  0.4939710000000 1.0
C      1  0.5409730000000  0.4644160000000  0.5074070000000 1.0
C      1  0.5506850000000  0.5382080000000  0.5440200000000 1.0
C      1  0.4527150000000  0.4746560000000  0.4634850000000 1.0
C      1  0.5174510000000  0.4522490000000  0.5210930000000 1.0
C      1  0.4791150000000  0.5549070000000  0.4606680000000 1.0
C      1  0.5166040000000  0.5026700000000  0.4434580000000 1.0
C      1  0.4695140000000  0.4961810000000  0.4695050000000 1.0
C      1  0.4710140000000  0.5064250000000  0.5222230000000 1.0
C      1  0.5413680000000  0.5018340000000  0.4897520000000 1.0
C      1  0.4527840000000  0.4512370000000  0.5062560000000 1.0
C      1  0.4875580000000  0.5067800000000  0.4475230000000 1.0
C      1  0.5457700000000  0.4932900000000  0.5143000000000 1.0
C      1  0.5358860000000  0.4903990000000  0.4653120000000 1.0
C      1  0.4897880000000  0.5349980000000  0.4407840000000 1.0
C      1  0.4966320000000  0.4480080000000  0.5286440000000 1.0
C      1  0.5167750000000  0.5148190000000  0.5550040000000 1.0
C      1  0.5388270000000  0.4624430000000  0.4768440000000 1.0
C      1  0.4907440000000  0.5229740000000  0.5411130000000 1.0
END
