TITL C-883727-9645-283 186.803186472429 125000 -23709.4947158938 0 0 160 (C1) n - 1
REM
REM in /home/nfs/bkarasulu/CARBON/AIRSS/Generating-Clusters/ReaxFF-fromJPCA2015/Units_Real/with-SteepDescent/Only-C1/SD-CG/Try1-3A/FIRE-CG
REM
REM
REM
REM
REM
REM ./C.cell (11c1c37f851c82e70ff6c80c92926a4b)
REM
REM compiler GCC version 9.2.1 20190827 (Red Hat 9.2.1-1)
REM options -cpp -mtune=generic -march=x86-64 -g -O0 -fpre-include=/usr/include/finclude/math-vector-fortran.h
REM seed 1384954852 1121425950 -1328745840 -1547222123 -1943153188 851937467 144381327 -609929294 471213132 876008036 1795436343 -1199359877 62162743 2132680313 1137252001 -1011945216 1120865057 1919095225 1784348583 -1108241392 1638203066 66185541 -1652669539 1435252712 -1541248245 2133862352 -862912038 1078128560 1666336486 -1353236195 361586950 -1804899081 -1950626181
REM
CELL 1.54180   50.00000   50.00000   50.00000   90.00000   90.00000   90.00000
LATT -1
SFAC C  
C      1  0.4148430000000  0.4588910000000  0.5493230000000 1.0
C      1  0.4651240000000  0.4613430000000  0.4698850000000 1.0
C      1  0.4616280000000  0.4434340000000  0.4223380000000 1.0
C      1  0.4759590000000  0.5481640000000  0.4663700000000 1.0
C      1  0.5742090000000  0.5124180000000  0.4107570000000 1.0
C      1  0.5174220000000  0.4553310000000  0.5377650000000 1.0
C      1  0.5357130000000  0.3995440000000  0.5050390000000 1.0
C      1  0.4267020000000  0.5374890000000  0.4370810000000 1.0
C      1  0.4842450000000  0.5456400000000  0.4024050000000 1.0
C      1  0.4947560000000  0.4285390000000  0.5714380000000 1.0
C      1  0.4129740000000  0.5036440000000  0.5088610000000 1.0
C      1  0.5762830000000  0.4257650000000  0.5108500000000 1.0
C      1  0.5645150000000  0.5187040000000  0.5850650000000 1.0
C      1  0.5952340000000  0.5404070000000  0.5522700000000 1.0
C      1  0.5080000000000  0.3899670000000  0.5076900000000 1.0
C      1  0.5458930000000  0.4835570000000  0.5079570000000 1.0
C      1  0.5320000000000  0.5550920000000  0.5874960000000 1.0
C      1  0.5632310000000  0.4644190000000  0.5827850000000 1.0
C      1  0.5961570000000  0.5152810000000  0.4439450000000 1.0
C      1  0.4643030000000  0.4984340000000  0.3946230000000 1.0
C      1  0.3988440000000  0.4788650000000  0.4570970000000 1.0
C      1  0.5638930000000  0.5526290000000  0.4444000000000 1.0
C      1  0.5176410000000  0.4219950000000  0.4333950000000 1.0
C      1  0.4169090000000  0.5452950000000  0.4824690000000 1.0
C      1  0.5461760000000  0.5590910000000  0.5182870000000 1.0
C      1  0.5198490000000  0.4179640000000  0.5596960000000 1.0
C      1  0.5560800000000  0.4987090000000  0.5512510000000 1.0
C      1  0.5176120000000  0.4804870000000  0.6076800000000 1.0
C      1  0.4530010000000  0.5087970000000  0.4810790000000 1.0
C      1  0.5267090000000  0.4670150000000  0.5625620000000 1.0
C      1  0.4377850000000  0.4243110000000  0.5086430000000 1.0
C      1  0.5042100000000  0.4910900000000  0.4773790000000 1.0
C      1  0.4132390000000  0.5063450000000  0.5661280000000 1.0
C      1  0.4884980000000  0.5028930000000  0.4556410000000 1.0
C      1  0.5402000000000  0.4176230000000  0.4529900000000 1.0
C      1  0.5576970000000  0.4942870000000  0.3974160000000 1.0
C      1  0.5141080000000  0.4510380000000  0.4725680000000 1.0
C      1  0.3934670000000  0.4782580000000  0.5077910000000 1.0
C      1  0.4232700000000  0.5171140000000  0.4172140000000 1.0
C      1  0.4250550000000  0.5180110000000  0.4877190000000 1.0
C      1  0.5745450000000  0.5430360000000  0.5721420000000 1.0
C      1  0.4875420000000  0.5036820000000  0.5173110000000 1.0
C      1  0.5204820000000  0.5539490000000  0.5079920000000 1.0
C      1  0.4600360000000  0.4057060000000  0.5059410000000 1.0
C      1  0.3903120000000  0.4991450000000  0.5490440000000 1.0
C      1  0.4747600000000  0.5884380000000  0.5176340000000 1.0
C      1  0.4678120000000  0.5837210000000  0.5577010000000 1.0
C      1  0.5542350000000  0.5662340000000  0.5721540000000 1.0
C      1  0.5282470000000  0.4669860000000  0.4517110000000 1.0
C      1  0.4418200000000  0.4906270000000  0.5188950000000 1.0
C      1  0.4826610000000  0.3972790000000  0.4642690000000 1.0
C      1  0.5054720000000  0.5657650000000  0.5839710000000 1.0
C      1  0.5308130000000  0.5078400000000  0.3969100000000 1.0
C      1  0.4409300000000  0.4631910000000  0.5158200000000 1.0
C      1  0.4920080000000  0.4658850000000  0.6097280000000 1.0
C      1  0.5173440000000  0.5029320000000  0.5017660000000 1.0
C      1  0.5045450000000  0.4995090000000  0.3868020000000 1.0
C      1  0.4438040000000  0.4482730000000  0.4925940000000 1.0
C      1  0.5633450000000  0.5480160000000  0.4723780000000 1.0
C      1  0.4444410000000  0.5293630000000  0.6044460000000 1.0
C      1  0.5846250000000  0.5263180000000  0.5133260000000 1.0
C      1  0.3922170000000  0.4721270000000  0.5370110000000 1.0
C      1  0.5821900000000  0.4571480000000  0.4545950000000 1.0
C      1  0.4625580000000  0.5597770000000  0.4149060000000 1.0
C      1  0.5109770000000  0.4421540000000  0.4147080000000 1.0
C      1  0.4709200000000  0.5974620000000  0.4917190000000 1.0
C      1  0.5448750000000  0.5232030000000  0.5448180000000 1.0
C      1  0.4669340000000  0.4812120000000  0.6092970000000 1.0
C      1  0.5926810000000  0.4486730000000  0.5206450000000 1.0
C      1  0.4467260000000  0.5670430000000  0.5661130000000 1.0
C      1  0.5347310000000  0.4642550000000  0.5905110000000 1.0
C      1  0.6106070000000  0.5319020000000  0.5279090000000 1.0
C      1  0.4457990000000  0.5799570000000  0.4634000000000 1.0
C      1  0.4529400000000  0.5630190000000  0.5108740000000 1.0
C      1  0.4990220000000  0.5909920000000  0.4520350000000 1.0
C      1  0.4689040000000  0.5356760000000  0.5501610000000 1.0
C      1  0.5635120000000  0.4837380000000  0.5311100000000 1.0
C      1  0.4389950000000  0.4233630000000  0.4592550000000 1.0
C      1  0.4190570000000  0.5297360000000  0.5488740000000 1.0
C      1  0.5173710000000  0.5099690000000  0.6058020000000 1.0
C      1  0.5166730000000  0.5737060000000  0.4327750000000 1.0
C      1  0.4935130000000  0.5445880000000  0.5359920000000 1.0
C      1  0.5557720000000  0.4668660000000  0.4106310000000 1.0
C      1  0.4046650000000  0.5358040000000  0.4564690000000 1.0
C      1  0.4848940000000  0.4787950000000  0.3952360000000 1.0
C      1  0.4473730000000  0.4931670000000  0.5454920000000 1.0
C      1  0.5292650000000  0.4600820000000  0.4236020000000 1.0
C      1  0.4869930000000  0.5321270000000  0.5111580000000 1.0
C      1  0.5768420000000  0.5191890000000  0.4847150000000 1.0
C      1  0.4434860000000  0.5480620000000  0.5417010000000 1.0
C      1  0.4371860000000  0.5003960000000  0.3995530000000 1.0
C      1  0.4674530000000  0.5420930000000  0.4945740000000 1.0
C      1  0.4715570000000  0.5060260000000  0.5490040000000 1.0
C      1  0.5826910000000  0.5335880000000  0.4273390000000 1.0
C      1  0.5446070000000  0.4904440000000  0.4585690000000 1.0
C      1  0.4680820000000  0.5978200000000  0.4642190000000 1.0
C      1  0.5288870000000  0.5248640000000  0.4202230000000 1.0
C      1  0.5376850000000  0.5167440000000  0.4463680000000 1.0
C      1  0.4566820000000  0.4060560000000  0.4762590000000 1.0
C      1  0.5329090000000  0.3992750000000  0.4751270000000 1.0
C      1  0.3995180000000  0.5199910000000  0.5298950000000 1.0
C      1  0.5317860000000  0.4584710000000  0.5139670000000 1.0
C      1  0.5988810000000  0.4633070000000  0.4979890000000 1.0
C      1  0.4296250000000  0.4801780000000  0.5651570000000 1.0
C      1  0.6000580000000  0.5042740000000  0.4688830000000 1.0
C      1  0.4561780000000  0.5531610000000  0.5918810000000 1.0
C      1  0.4195700000000  0.4884350000000  0.4174860000000 1.0
C      1  0.4622340000000  0.4701450000000  0.5813300000000 1.0
C      1  0.5799980000000  0.4633810000000  0.5445340000000 1.0
C      1  0.4501200000000  0.5558630000000  0.4427480000000 1.0
C      1  0.5656550000000  0.4442370000000  0.5617110000000 1.0
C      1  0.4177990000000  0.4678750000000  0.4373930000000 1.0
C      1  0.4911300000000  0.4659780000000  0.4850740000000 1.0
C      1  0.5447630000000  0.5749270000000  0.4384800000000 1.0
C      1  0.5221930000000  0.5300990000000  0.4934020000000 1.0
C      1  0.5588440000000  0.4948780000000  0.4830170000000 1.0
C      1  0.4347450000000  0.4427190000000  0.4373050000000 1.0
C      1  0.5062010000000  0.3868760000000  0.4783200000000 1.0
C      1  0.4321070000000  0.4416890000000  0.5330900000000 1.0
C      1  0.5542730000000  0.4124750000000  0.5243370000000 1.0
C      1  0.4940090000000  0.5687520000000  0.4694620000000 1.0
C      1  0.5717370000000  0.4639220000000  0.4322480000000 1.0
C      1  0.6008910000000  0.4744830000000  0.4735900000000 1.0
C      1  0.4653770000000  0.4917320000000  0.5022120000000 1.0
C      1  0.5002720000000  0.5916470000000  0.5341770000000 1.0
C      1  0.5654940000000  0.4318130000000  0.4585000000000 1.0
C      1  0.4853220000000  0.4036760000000  0.5208330000000 1.0
C      1  0.4832070000000  0.5197580000000  0.3878020000000 1.0
C      1  0.5078600000000  0.5470310000000  0.4235290000000 1.0
C      1  0.5616980000000  0.5374900000000  0.5276070000000 1.0
C      1  0.4667380000000  0.5101550000000  0.6130440000000 1.0
C      1  0.4629410000000  0.4906810000000  0.4599980000000 1.0
C      1  0.4915470000000  0.4177510000000  0.4464140000000 1.0
C      1  0.4856340000000  0.5502770000000  0.5971510000000 1.0
C      1  0.5469750000000  0.5911440000000  0.4632440000000 1.0
C      1  0.5202520000000  0.5974940000000  0.4729780000000 1.0
C      1  0.3902040000000  0.4638580000000  0.4835780000000 1.0
C      1  0.4754860000000  0.4424430000000  0.4472530000000 1.0
C      1  0.4934850000000  0.4107980000000  0.5479430000000 1.0
C      1  0.4811500000000  0.4858070000000  0.5653670000000 1.0
C      1  0.4949400000000  0.5856310000000  0.5625000000000 1.0
C      1  0.5590710000000  0.4297140000000  0.4870580000000 1.0
C      1  0.4817330000000  0.4481870000000  0.5880920000000 1.0
C      1  0.5470890000000  0.4237820000000  0.5505600000000 1.0
C      1  0.4851540000000  0.4526010000000  0.4070490000000 1.0
C      1  0.5386420000000  0.5270360000000  0.5955030000000 1.0
C      1  0.5306980000000  0.5943380000000  0.5305520000000 1.0
C      1  0.5111680000000  0.5755730000000  0.4903220000000 1.0
C      1  0.3952760000000  0.5074720000000  0.4570140000000 1.0
C      1  0.5035180000000  0.4768210000000  0.5510060000000 1.0
C      1  0.5444400000000  0.5820870000000  0.5510890000000 1.0
C      1  0.5535920000000  0.5862030000000  0.5111150000000 1.0
C      1  0.5170520000000  0.5309600000000  0.5480910000000 1.0
C      1  0.4965690000000  0.5319360000000  0.4534570000000 1.0
C      1  0.5712630000000  0.4919540000000  0.5740410000000 1.0
C      1  0.5319830000000  0.4396800000000  0.4924650000000 1.0
C      1  0.5596230000000  0.5750980000000  0.4840700000000 1.0
C      1  0.4919810000000  0.5240420000000  0.6087330000000 1.0
C      1  0.5246220000000  0.5341780000000  0.4656990000000 1.0
C      1  0.4341800000000  0.5681620000000  0.4880230000000 1.0
END
