TITL C-883736-9678-32 102531.452170534 125000 -1677.0619643341 0 0 13 (C1) n - 1
REM
REM in /home/nfs/bkarasulu/CARBON/AIRSS/Generating-Clusters/ReaxFF-fromJPCA2015/Units_Real/with-SteepDescent/Only-C1/SD-CG/Try1-3A/FIRE-CG
REM
REM
REM
REM
REM
REM ./C.cell (11c1c37f851c82e70ff6c80c92926a4b)
REM
REM compiler GCC version 9.2.1 20190827 (Red Hat 9.2.1-1)
REM options -cpp -mtune=generic -march=x86-64 -g -O0 -fpre-include=/usr/include/finclude/math-vector-fortran.h
REM seed 866028449 1120685639 -1266235041 467355843 854549687 -671854211 1155903916 1942095682 1987864038 -1892285521 -548735201 -1171919419 1869783614 -1173982738 1418415330 -1797845070 -140122353 -1871122724 -1116422106 -1874012166 329376540 598119654 -2140723477 -84272984 -552192435 1049244807 1559124014 547023844 870530742 -1598627186 -806689614 1003479742 1206722479
REM
CELL 1.54180   50.00000   50.00000   50.00000   90.00000   90.00000   90.00000
LATT -1
SFAC C  
C      1  0.4506880000000  0.4567810000000  0.4577540000000 1.0
C      1  0.4573210000000  0.4716390000000  0.4757490000000 1.0
C      1  0.4498300000000  0.5173520000000  0.5416240000000 1.0
C      1  0.4574990000000  0.4977510000000  0.5508460000000 1.0
C      1  0.5288160000000  0.5326550000000  0.4831860000000 1.0
C      1  0.4479620000000  0.4951680000000  0.5246370000000 1.0
C      1  0.5655530000000  0.4927980000000  0.5039900000000 1.0
C      1  0.4891290000000  0.4955480000000  0.4909430000000 1.0
C      1  0.4641090000000  0.4887650000000  0.4970910000000 1.0
C      1  0.5391890000000  0.4934340000000  0.4954820000000 1.0
C      1  0.5795850000000  0.5233670000000  0.5020950000000 1.0
C      1  0.5554240000000  0.5322100000000  0.4919920000000 1.0
C      1  0.5148940000000  0.5025320000000  0.4846120000000 1.0
END
