TITL C-884131-4643-290 5.91202917219759 125000 -8152.67055915549 0 0 55 (C1) n - 1
REM
REM in /home/nfs/bkarasulu/CARBON/AIRSS/Generating-Clusters/ReaxFF-fromJPCA2015/Units_Real/with-SteepDescent/Only-C1/SD-CG/Try1-3A/FIRE-CG
REM
REM
REM
REM
REM
REM ./C.cell (11c1c37f851c82e70ff6c80c92926a4b)
REM
REM compiler GCC version 9.2.1 20190827 (Red Hat 9.2.1-1)
REM options -cpp -mtune=generic -march=x86-64 -g -O0 -fpre-include=/usr/include/finclude/math-vector-fortran.h
REM seed -1921385342 -1436335444 -1058720978 -1324249230 742813988 -1807723883 495030190 1175087385 -419733868 -348959255 569399185 1588009597 471027740 -85800409 624086685 225819119 2104576278 -970529927 -199459408 593365635 -1553417693 1589030437 -1423474180 -1637309797 2142763138 1953500723 -420530509 -640836456 1528361723 -855866722 696865630 1477762903 785149302
REM
CELL 1.54180   50.00000   50.00000   50.00000   90.00000   90.00000   90.00000
LATT -1
SFAC C  
C      1  0.4622800000000  0.4294240000000  0.5092750000000 1.0
C      1  0.5338770000000  0.5314040000000  0.4714400000000 1.0
C      1  0.4480200000000  0.5154450000000  0.5565740000000 1.0
C      1  0.5231980000000  0.4415150000000  0.4805570000000 1.0
C      1  0.5098220000000  0.4689360000000  0.5630720000000 1.0
C      1  0.4315390000000  0.5351690000000  0.4930050000000 1.0
C      1  0.5449600000000  0.5333690000000  0.4984650000000 1.0
C      1  0.5655160000000  0.4722200000000  0.5266440000000 1.0
C      1  0.5308070000000  0.4838680000000  0.4170770000000 1.0
C      1  0.4642240000000  0.5534330000000  0.5307800000000 1.0
C      1  0.5691260000000  0.4673610000000  0.4828030000000 1.0
C      1  0.4708220000000  0.5331780000000  0.5507080000000 1.0
C      1  0.4726860000000  0.5034830000000  0.4448950000000 1.0
C      1  0.5861930000000  0.4620140000000  0.5066240000000 1.0
C      1  0.4850140000000  0.4632420000000  0.4657620000000 1.0
C      1  0.4771800000000  0.4799450000000  0.5138740000000 1.0
C      1  0.4371700000000  0.5479840000000  0.5196350000000 1.0
C      1  0.4321660000000  0.5216940000000  0.5323870000000 1.0
C      1  0.4658030000000  0.5503510000000  0.4665430000000 1.0
C      1  0.4416010000000  0.5371780000000  0.4652400000000 1.0
C      1  0.5446040000000  0.4516180000000  0.4930860000000 1.0
C      1  0.5509240000000  0.4997910000000  0.5526450000000 1.0
C      1  0.5082010000000  0.4861830000000  0.5095710000000 1.0
C      1  0.4875950000000  0.4892280000000  0.5639240000000 1.0
C      1  0.5246590000000  0.5367110000000  0.5197210000000 1.0
C      1  0.4907450000000  0.5610980000000  0.4696460000000 1.0
C      1  0.4548620000000  0.4632970000000  0.4745100000000 1.0
C      1  0.4419590000000  0.4849780000000  0.4634160000000 1.0
C      1  0.4670590000000  0.5025550000000  0.4996640000000 1.0
C      1  0.5197040000000  0.4512600000000  0.5405630000000 1.0
C      1  0.4446620000000  0.5095840000000  0.4507690000000 1.0
C      1  0.4390480000000  0.5092300000000  0.5055490000000 1.0
C      1  0.5302990000000  0.4869950000000  0.5618180000000 1.0
C      1  0.5648230000000  0.5130230000000  0.5036820000000 1.0
C      1  0.5052580000000  0.5355790000000  0.4684290000000 1.0
C      1  0.4935800000000  0.5149220000000  0.5494930000000 1.0
C      1  0.4860440000000  0.5695510000000  0.5204910000000 1.0
C      1  0.4835960000000  0.4772270000000  0.4379820000000 1.0
C      1  0.5686330000000  0.5014720000000  0.5309950000000 1.0
C      1  0.4584150000000  0.4582900000000  0.5038840000000 1.0
C      1  0.5075340000000  0.4785810000000  0.4233470000000 1.0
C      1  0.5219140000000  0.5855240000000  0.5035890000000 1.0
C      1  0.5149620000000  0.5645560000000  0.5253390000000 1.0
C      1  0.4911590000000  0.4235370000000  0.5007130000000 1.0
C      1  0.5501700000000  0.5097990000000  0.4588280000000 1.0
C      1  0.5099970000000  0.5127660000000  0.5257090000000 1.0
C      1  0.4578060000000  0.4887860000000  0.5669140000000 1.0
C      1  0.5052540000000  0.4305290000000  0.5260960000000 1.0
C      1  0.4938350000000  0.5810550000000  0.4937780000000 1.0
C      1  0.5016530000000  0.4863880000000  0.4806700000000 1.0
C      1  0.5661780000000  0.4967440000000  0.4797700000000 1.0
C      1  0.5426280000000  0.4961540000000  0.4350480000000 1.0
C      1  0.4980240000000  0.4359850000000  0.4737180000000 1.0
C      1  0.5357610000000  0.4653380000000  0.5186210000000 1.0
C      1  0.4864520000000  0.5104520000000  0.4726620000000 1.0
END
