TITL C-884135-4325-242 -3.96348384136504 125000 -19070.0236053495 0 0 126 (C1) n - 1
REM
REM in /home/nfs/bkarasulu/CARBON/AIRSS/Generating-Clusters/ReaxFF-fromJPCA2015/Units_Real/with-SteepDescent/Only-C1/SD-CG/Try1-3A/FIRE-CG
REM
REM
REM
REM
REM
REM ./C.cell (11c1c37f851c82e70ff6c80c92926a4b)
REM
REM compiler GCC version 9.2.1 20190827 (Red Hat 9.2.1-1)
REM options -cpp -mtune=generic -march=x86-64 -g -O0 -fpre-include=/usr/include/finclude/math-vector-fortran.h
REM seed -2068176823 75745915 -2079239519 -443320220 359975220 -1445343724 -1532404468 318965237 -253941435 -1762928416 -855339150 884378771 342291139 -934380886 -555069602 392626118 774349753 2130027370 -1860714032 430571424 1693869693 1666604028 612161832 -616697391 -2095865020 -910173941 716177216 1710116296 -1508139236 740396456 -1336954921 500584722 1363666621
REM
CELL 1.54180   50.00000   50.00000   50.00000   90.00000   90.00000   90.00000
LATT -1
SFAC C  
C      1  0.5425840000000  0.4775010000000  0.5345320000000 1.0
C      1  0.4502820000000  0.4142640000000  0.5210930000000 1.0
C      1  0.5723010000000  0.4293910000000  0.4652220000000 1.0
C      1  0.5361590000000  0.4798200000000  0.4130410000000 1.0
C      1  0.5587240000000  0.5505790000000  0.5295490000000 1.0
C      1  0.5295210000000  0.5902200000000  0.4851520000000 1.0
C      1  0.4291750000000  0.4859210000000  0.5700860000000 1.0
C      1  0.4444560000000  0.4552720000000  0.4346870000000 1.0
C      1  0.5124970000000  0.5356590000000  0.4603610000000 1.0
C      1  0.4877520000000  0.5192560000000  0.5220740000000 1.0
C      1  0.4143750000000  0.5076690000000  0.5240520000000 1.0
C      1  0.4898200000000  0.4768150000000  0.4073440000000 1.0
C      1  0.4484680000000  0.4900370000000  0.5921000000000 1.0
C      1  0.5290530000000  0.5319560000000  0.4819370000000 1.0
C      1  0.4418010000000  0.5109180000000  0.5053390000000 1.0
C      1  0.5914580000000  0.4689770000000  0.5313340000000 1.0
C      1  0.4689610000000  0.3997950000000  0.5051890000000 1.0
C      1  0.4705960000000  0.5619330000000  0.5721070000000 1.0
C      1  0.5310670000000  0.4264430000000  0.4705130000000 1.0
C      1  0.4937700000000  0.4641770000000  0.4342050000000 1.0
C      1  0.5328420000000  0.4782410000000  0.4873870000000 1.0
C      1  0.4388760000000  0.4636050000000  0.5517630000000 1.0
C      1  0.4071280000000  0.5236730000000  0.4820510000000 1.0
C      1  0.4225580000000  0.5089770000000  0.5543270000000 1.0
C      1  0.5659880000000  0.5717380000000  0.4637910000000 1.0
C      1  0.5613790000000  0.4299500000000  0.5429430000000 1.0
C      1  0.5493240000000  0.5416240000000  0.4240690000000 1.0
C      1  0.4837190000000  0.5898780000000  0.5304540000000 1.0
C      1  0.5290120000000  0.4626990000000  0.4384560000000 1.0
C      1  0.4646170000000  0.4926640000000  0.4064270000000 1.0
C      1  0.4827090000000  0.5769080000000  0.4409270000000 1.0
C      1  0.5198820000000  0.4512060000000  0.5923120000000 1.0
C      1  0.4626710000000  0.4771890000000  0.5401370000000 1.0
C      1  0.5687530000000  0.4412190000000  0.4393800000000 1.0
C      1  0.5140970000000  0.4498950000000  0.4836580000000 1.0
C      1  0.5575780000000  0.4371550000000  0.5140240000000 1.0
C      1  0.5082140000000  0.4091880000000  0.4784640000000 1.0
C      1  0.4894190000000  0.4000680000000  0.4894220000000 1.0
C      1  0.4574810000000  0.5813490000000  0.4827530000000 1.0
C      1  0.4299940000000  0.5249220000000  0.4393650000000 1.0
C      1  0.4388180000000  0.4393180000000  0.4790290000000 1.0
C      1  0.5521490000000  0.5183310000000  0.5773900000000 1.0
C      1  0.4238590000000  0.5396040000000  0.4634570000000 1.0
C      1  0.5364270000000  0.5600290000000  0.5451440000000 1.0
C      1  0.4587530000000  0.5612050000000  0.4403060000000 1.0
C      1  0.4976450000000  0.4702130000000  0.5962890000000 1.0
C      1  0.4869400000000  0.4475090000000  0.4904810000000 1.0
C      1  0.4604910000000  0.4903100000000  0.4956070000000 1.0
C      1  0.5716490000000  0.5229070000000  0.5321200000000 1.0
C      1  0.4589190000000  0.5165110000000  0.5950300000000 1.0
C      1  0.4878430000000  0.5803210000000  0.5575350000000 1.0
C      1  0.4840810000000  0.5466240000000  0.5293340000000 1.0
C      1  0.5342010000000  0.5790270000000  0.4366100000000 1.0
C      1  0.5971770000000  0.4850980000000  0.5077040000000 1.0
C      1  0.5403410000000  0.4355150000000  0.4411920000000 1.0
C      1  0.5028040000000  0.5208530000000  0.4143560000000 1.0
C      1  0.4529390000000  0.5364820000000  0.4246900000000 1.0
C      1  0.4711210000000  0.4469450000000  0.4429380000000 1.0
C      1  0.5497110000000  0.4642310000000  0.5102880000000 1.0
C      1  0.5217150000000  0.5455310000000  0.4159280000000 1.0
C      1  0.4696930000000  0.4188110000000  0.5407700000000 1.0
C      1  0.5131090000000  0.4929020000000  0.4027220000000 1.0
C      1  0.4229750000000  0.4588300000000  0.5225000000000 1.0
C      1  0.5649080000000  0.5648570000000  0.5051020000000 1.0
C      1  0.5322700000000  0.4628930000000  0.5564780000000 1.0
C      1  0.4599630000000  0.5856890000000  0.5129300000000 1.0
C      1  0.4793130000000  0.5392920000000  0.5013260000000 1.0
C      1  0.5026200000000  0.5159580000000  0.4435330000000 1.0
C      1  0.5182630000000  0.4267080000000  0.5769000000000 1.0
C      1  0.4850750000000  0.4318470000000  0.5611560000000 1.0
C      1  0.5596670000000  0.5680740000000  0.4355500000000 1.0
C      1  0.4750720000000  0.4912410000000  0.4736250000000 1.0
C      1  0.5624740000000  0.4903640000000  0.4191020000000 1.0
C      1  0.4414110000000  0.4805200000000  0.4201970000000 1.0
C      1  0.4062040000000  0.5334130000000  0.5091340000000 1.0
C      1  0.5641170000000  0.5170670000000  0.4318470000000 1.0
C      1  0.5693820000000  0.5060520000000  0.5576620000000 1.0
C      1  0.4684050000000  0.4670400000000  0.5906650000000 1.0
C      1  0.5366360000000  0.4981400000000  0.5913450000000 1.0
C      1  0.5355310000000  0.5416940000000  0.5676560000000 1.0
C      1  0.5779370000000  0.5247730000000  0.4819330000000 1.0
C      1  0.5441930000000  0.4696570000000  0.5842050000000 1.0
C      1  0.4613110000000  0.4483070000000  0.5704940000000 1.0
C      1  0.5402400000000  0.4238650000000  0.5600950000000 1.0
C      1  0.4732030000000  0.4671730000000  0.5137960000000 1.0
C      1  0.5454210000000  0.4760650000000  0.4608440000000 1.0
C      1  0.5767820000000  0.4696250000000  0.4339740000000 1.0
C      1  0.4475370000000  0.5225890000000  0.5515340000000 1.0
C      1  0.5799240000000  0.4539520000000  0.5515650000000 1.0
C      1  0.4327530000000  0.4370570000000  0.5076020000000 1.0
C      1  0.5699640000000  0.4777070000000  0.5652780000000 1.0
C      1  0.4488650000000  0.5365720000000  0.4982820000000 1.0
C      1  0.5587620000000  0.4227250000000  0.4883020000000 1.0
C      1  0.4067110000000  0.4938080000000  0.4836910000000 1.0
C      1  0.4711870000000  0.5202700000000  0.4100320000000 1.0
C      1  0.5001570000000  0.4686260000000  0.5264850000000 1.0
C      1  0.5266920000000  0.5073920000000  0.4952860000000 1.0
C      1  0.5768240000000  0.4827750000000  0.4599430000000 1.0
C      1  0.5074870000000  0.4521690000000  0.5470200000000 1.0
C      1  0.5824380000000  0.5132970000000  0.5079420000000 1.0
C      1  0.4707950000000  0.5050980000000  0.5467620000000 1.0
C      1  0.4259260000000  0.4539150000000  0.4573580000000 1.0
C      1  0.5047780000000  0.5681090000000  0.5349180000000 1.0
C      1  0.5170870000000  0.4893210000000  0.5319180000000 1.0
C      1  0.4406680000000  0.5707430000000  0.5279300000000 1.0
C      1  0.5080260000000  0.4967640000000  0.5913030000000 1.0
C      1  0.5156550000000  0.5130740000000  0.5210460000000 1.0
C      1  0.4550550000000  0.5520970000000  0.5479740000000 1.0
C      1  0.5094560000000  0.5705580000000  0.4269530000000 1.0
C      1  0.4271390000000  0.5539820000000  0.5086270000000 1.0
C      1  0.4135450000000  0.4804700000000  0.4590660000000 1.0
C      1  0.5145470000000  0.5274230000000  0.5541660000000 1.0
C      1  0.4427350000000  0.5629600000000  0.4648700000000 1.0
C      1  0.4942570000000  0.5158390000000  0.5714000000000 1.0
C      1  0.5034890000000  0.5491640000000  0.4840260000000 1.0
C      1  0.4758750000000  0.5373530000000  0.5873880000000 1.0
C      1  0.4897430000000  0.4915420000000  0.4517690000000 1.0
C      1  0.4671450000000  0.4388770000000  0.4705470000000 1.0
C      1  0.4237270000000  0.4965280000000  0.4365410000000 1.0
C      1  0.5989370000000  0.4722980000000  0.4825750000000 1.0
C      1  0.5605790000000  0.5476090000000  0.4817470000000 1.0
C      1  0.5569740000000  0.5877230000000  0.4875750000000 1.0
C      1  0.5049320000000  0.5814860000000  0.4832040000000 1.0
C      1  0.5769130000000  0.5117220000000  0.4568830000000 1.0
C      1  0.4092070000000  0.4810380000000  0.5103630000000 1.0
C      1  0.4806890000000  0.5891970000000  0.4671350000000 1.0
END
