TITL C-884142-5251-243 18.0235705002853 125000 -26547.9478321071 0 0 178 (C1) n - 1
REM
REM in /home/nfs/bkarasulu/CARBON/AIRSS/Generating-Clusters/ReaxFF-fromJPCA2015/Units_Real/with-SteepDescent/Only-C1/SD-CG/Try1-3A/FIRE-CG
REM
REM
REM
REM
REM
REM ./C.cell (11c1c37f851c82e70ff6c80c92926a4b)
REM
REM compiler GCC version 9.2.1 20190827 (Red Hat 9.2.1-1)
REM options -cpp -mtune=generic -march=x86-64 -g -O0 -fpre-include=/usr/include/finclude/math-vector-fortran.h
REM seed 408161664 442291966 -917774741 -609185653 8194646 901296662 -595358382 1542605356 808198250 630152376 1995738049 -502156248 789219865 1095266044 1860228521 -2092470709 -1586052462 1513667619 -501347813 -372103627 -1578487332 -1549163381 1911396473 -1348473621 -1420994505 367853650 -78459637 -1318267436 -447297523 -1628140794 1508673124 367733221 -967434281
REM
CELL 1.54180   50.00000   50.00000   50.00000   90.00000   90.00000   90.00000
LATT -1
SFAC C  
C      1  0.5646500000000  0.4224900000000  0.5402290000000 1.0
C      1  0.4854120000000  0.5397760000000  0.6027670000000 1.0
C      1  0.5824280000000  0.4360890000000  0.5250380000000 1.0
C      1  0.4623490000000  0.5101190000000  0.5794450000000 1.0
C      1  0.5114020000000  0.4151110000000  0.4441290000000 1.0
C      1  0.5443360000000  0.5954900000000  0.5218740000000 1.0
C      1  0.5013260000000  0.5496400000000  0.5775150000000 1.0
C      1  0.5575110000000  0.5222750000000  0.5422900000000 1.0
C      1  0.5691520000000  0.5817890000000  0.5210510000000 1.0
C      1  0.5651590000000  0.4640360000000  0.4188970000000 1.0
C      1  0.4858710000000  0.5538190000000  0.4772950000000 1.0
C      1  0.4497870000000  0.4774790000000  0.4015490000000 1.0
C      1  0.4861600000000  0.5258490000000  0.4851440000000 1.0
C      1  0.4449910000000  0.4188420000000  0.4848340000000 1.0
C      1  0.4437250000000  0.5796490000000  0.5533250000000 1.0
C      1  0.5048490000000  0.5944150000000  0.5588170000000 1.0
C      1  0.4422590000000  0.4498140000000  0.4134930000000 1.0
C      1  0.3935890000000  0.5207470000000  0.5631820000000 1.0
C      1  0.5428270000000  0.4451410000000  0.4167430000000 1.0
C      1  0.5746320000000  0.5662770000000  0.5448900000000 1.0
C      1  0.5847830000000  0.4239230000000  0.4785010000000 1.0
C      1  0.4620380000000  0.6062610000000  0.4612470000000 1.0
C      1  0.4184580000000  0.4938080000000  0.4949880000000 1.0
C      1  0.4876690000000  0.4681920000000  0.5983990000000 1.0
C      1  0.4804510000000  0.5094260000000  0.5567810000000 1.0
C      1  0.4696960000000  0.4078230000000  0.5167700000000 1.0
C      1  0.5127090000000  0.4280730000000  0.4689140000000 1.0
C      1  0.4903290000000  0.4634740000000  0.5540330000000 1.0
C      1  0.4429240000000  0.4638180000000  0.5785780000000 1.0
C      1  0.6008250000000  0.4552610000000  0.5140890000000 1.0
C      1  0.5074440000000  0.4630440000000  0.4027250000000 1.0
C      1  0.4989560000000  0.4423370000000  0.5879590000000 1.0
C      1  0.4559460000000  0.5851360000000  0.4416140000000 1.0
C      1  0.4165400000000  0.5045830000000  0.5662360000000 1.0
C      1  0.4305990000000  0.5220560000000  0.5448080000000 1.0
C      1  0.5411490000000  0.4429740000000  0.5054010000000 1.0
C      1  0.5114860000000  0.5478310000000  0.3994390000000 1.0
C      1  0.4085890000000  0.5266170000000  0.5257650000000 1.0
C      1  0.5592490000000  0.4791170000000  0.5308130000000 1.0
C      1  0.4510590000000  0.4356420000000  0.5750200000000 1.0
C      1  0.5734830000000  0.4802110000000  0.5818990000000 1.0
C      1  0.4877940000000  0.4427740000000  0.4850870000000 1.0
C      1  0.4635950000000  0.5586700000000  0.4965640000000 1.0
C      1  0.5238700000000  0.4640350000000  0.4260430000000 1.0
C      1  0.4196110000000  0.5285680000000  0.4995550000000 1.0
C      1  0.4830850000000  0.4015550000000  0.5592940000000 1.0
C      1  0.5690760000000  0.5098700000000  0.5833380000000 1.0
C      1  0.4380460000000  0.5257080000000  0.4113200000000 1.0
C      1  0.4467650000000  0.5390930000000  0.5094400000000 1.0
C      1  0.5167750000000  0.6064390000000  0.4672830000000 1.0
C      1  0.4030710000000  0.5345730000000  0.4522910000000 1.0
C      1  0.4858430000000  0.6113890000000  0.5453880000000 1.0
C      1  0.4834160000000  0.4050110000000  0.4473280000000 1.0
C      1  0.5200850000000  0.5473310000000  0.5109550000000 1.0
C      1  0.4982050000000  0.4456880000000  0.5325710000000 1.0
C      1  0.5054920000000  0.4891390000000  0.6099880000000 1.0
C      1  0.5110280000000  0.5083860000000  0.4372280000000 1.0
C      1  0.5672690000000  0.5421370000000  0.4859820000000 1.0
C      1  0.4884020000000  0.6163040000000  0.4706300000000 1.0
C      1  0.5353720000000  0.5946010000000  0.4912730000000 1.0
C      1  0.4959930000000  0.5707530000000  0.4063620000000 1.0
C      1  0.4833140000000  0.4323830000000  0.5116620000000 1.0
C      1  0.5285360000000  0.5895470000000  0.4491870000000 1.0
C      1  0.5129090000000  0.5703140000000  0.4946950000000 1.0
C      1  0.5098680000000  0.5380580000000  0.5332150000000 1.0
C      1  0.5222380000000  0.4182280000000  0.5501390000000 1.0
C      1  0.4752800000000  0.4731490000000  0.4397020000000 1.0
C      1  0.4063600000000  0.4714850000000  0.5104830000000 1.0
C      1  0.4529280000000  0.4649160000000  0.5130630000000 1.0
C      1  0.4659270000000  0.5225180000000  0.4048860000000 1.0
C      1  0.4628190000000  0.4378870000000  0.4725420000000 1.0
C      1  0.5818270000000  0.4270180000000  0.4489180000000 1.0
C      1  0.4509060000000  0.6074780000000  0.4890060000000 1.0
C      1  0.5244190000000  0.5704290000000  0.4057440000000 1.0
C      1  0.5222620000000  0.3930540000000  0.5188080000000 1.0
C      1  0.4894780000000  0.4879230000000  0.5108750000000 1.0
C      1  0.5818780000000  0.4731230000000  0.5543230000000 1.0
C      1  0.4848680000000  0.5505350000000  0.4491040000000 1.0
C      1  0.4237770000000  0.5797500000000  0.5290460000000 1.0
C      1  0.5537790000000  0.4342570000000  0.5697920000000 1.0
C      1  0.4600070000000  0.5387120000000  0.5874970000000 1.0
C      1  0.4860400000000  0.5368800000000  0.5487570000000 1.0
C      1  0.5296580000000  0.4812380000000  0.4938980000000 1.0
C      1  0.5955360000000  0.5030750000000  0.4549350000000 1.0
C      1  0.5044960000000  0.4899710000000  0.3928160000000 1.0
C      1  0.5565340000000  0.4676270000000  0.5016000000000 1.0
C      1  0.5670870000000  0.4818290000000  0.4764660000000 1.0
C      1  0.5970070000000  0.4483730000000  0.4867680000000 1.0
C      1  0.5054480000000  0.3907440000000  0.4959610000000 1.0
C      1  0.5253190000000  0.4378000000000  0.5287260000000 1.0
C      1  0.5753910000000  0.5693610000000  0.4936160000000 1.0
C      1  0.4480010000000  0.4874780000000  0.4947200000000 1.0
C      1  0.5943210000000  0.5440920000000  0.5392020000000 1.0
C      1  0.5835110000000  0.4544910000000  0.4394010000000 1.0
C      1  0.4848460000000  0.3910730000000  0.4761860000000 1.0
C      1  0.4324650000000  0.4456480000000  0.4411720000000 1.0
C      1  0.4510870000000  0.5190740000000  0.4540260000000 1.0
C      1  0.4384060000000  0.4202850000000  0.5536960000000 1.0
C      1  0.4954630000000  0.5152690000000  0.6117840000000 1.0
C      1  0.4314340000000  0.5886620000000  0.4994930000000 1.0
C      1  0.4123540000000  0.4614800000000  0.5382540000000 1.0
C      1  0.5363300000000  0.4178450000000  0.4259700000000 1.0
C      1  0.4952660000000  0.6171230000000  0.5185110000000 1.0
C      1  0.4745100000000  0.4960410000000  0.3967730000000 1.0
C      1  0.6143340000000  0.5086860000000  0.5051820000000 1.0
C      1  0.4631760000000  0.5085640000000  0.4785150000000 1.0
C      1  0.4223410000000  0.4346730000000  0.5342780000000 1.0
C      1  0.5537560000000  0.4998490000000  0.4563680000000 1.0
C      1  0.6039840000000  0.5135940000000  0.4795740000000 1.0
C      1  0.4657950000000  0.4335800000000  0.4093320000000 1.0
C      1  0.5707960000000  0.5103550000000  0.4341170000000 1.0
C      1  0.4767610000000  0.6225610000000  0.4967630000000 1.0
C      1  0.4807790000000  0.5722550000000  0.4311810000000 1.0
C      1  0.5352130000000  0.5081550000000  0.4936360000000 1.0
C      1  0.6035250000000  0.5318450000000  0.5155950000000 1.0
C      1  0.5504110000000  0.5695060000000  0.5610840000000 1.0
C      1  0.5337680000000  0.5352460000000  0.5465860000000 1.0
C      1  0.4613990000000  0.5960420000000  0.5375910000000 1.0
C      1  0.4589890000000  0.4014870000000  0.5437600000000 1.0
C      1  0.4216430000000  0.5726450000000  0.4765280000000 1.0
C      1  0.5527560000000  0.4059990000000  0.5192240000000 1.0
C      1  0.4628710000000  0.4816910000000  0.5902420000000 1.0
C      1  0.5133150000000  0.4811410000000  0.5628300000000 1.0
C      1  0.5198020000000  0.5233550000000  0.4135070000000 1.0
C      1  0.6085790000000  0.4838420000000  0.5232430000000 1.0
C      1  0.5331700000000  0.5889570000000  0.5482430000000 1.0
C      1  0.5530390000000  0.5339800000000  0.4618310000000 1.0
C      1  0.4605080000000  0.3953450000000  0.4914410000000 1.0
C      1  0.5621310000000  0.5152250000000  0.4976030000000 1.0
C      1  0.5250790000000  0.4858580000000  0.4474070000000 1.0
C      1  0.3998900000000  0.5072240000000  0.4526850000000 1.0
C      1  0.5627090000000  0.4083180000000  0.4345710000000 1.0
C      1  0.4601320000000  0.5646280000000  0.5723540000000 1.0
C      1  0.5388810000000  0.4278960000000  0.4803500000000 1.0
C      1  0.4710000000000  0.5789030000000  0.5151430000000 1.0
C      1  0.4885280000000  0.5753330000000  0.5734750000000 1.0
C      1  0.4729040000000  0.5258390000000  0.4375810000000 1.0
C      1  0.4780770000000  0.4245250000000  0.5778170000000 1.0
C      1  0.5320870000000  0.5006410000000  0.3999210000000 1.0
C      1  0.5259030000000  0.4311680000000  0.5770050000000 1.0
C      1  0.4100180000000  0.4507490000000  0.4900930000000 1.0
C      1  0.5836380000000  0.5200930000000  0.5577920000000 1.0
C      1  0.4854240000000  0.5004660000000  0.4437200000000 1.0
C      1  0.4077400000000  0.5470730000000  0.4784850000000 1.0
C      1  0.5610020000000  0.4104850000000  0.4913360000000 1.0
C      1  0.5622850000000  0.5888840000000  0.4759940000000 1.0
C      1  0.4334250000000  0.4383750000000  0.5060270000000 1.0
C      1  0.5337540000000  0.5464770000000  0.5749220000000 1.0
C      1  0.4549420000000  0.5347160000000  0.5358390000000 1.0
C      1  0.5126850000000  0.4767310000000  0.4717230000000 1.0
C      1  0.4319900000000  0.5383050000000  0.4406010000000 1.0
C      1  0.4842720000000  0.4558790000000  0.4184830000000 1.0
C      1  0.6005460000000  0.4937300000000  0.5482870000000 1.0
C      1  0.3873800000000  0.5391470000000  0.5421380000000 1.0
C      1  0.4649540000000  0.4685100000000  0.5392800000000 1.0
C      1  0.5148900000000  0.4811710000000  0.5174710000000 1.0
C      1  0.5920250000000  0.4714880000000  0.4628050000000 1.0
C      1  0.5425840000000  0.5184360000000  0.5869470000000 1.0
C      1  0.4349680000000  0.5678290000000  0.4507330000000 1.0
C      1  0.5618620000000  0.5057240000000  0.5223850000000 1.0
C      1  0.4334800000000  0.4987140000000  0.4056650000000 1.0
C      1  0.5416150000000  0.5708630000000  0.4299840000000 1.0
C      1  0.5540530000000  0.5458200000000  0.4368060000000 1.0
C      1  0.4122510000000  0.4563880000000  0.4611640000000 1.0
C      1  0.4966110000000  0.5886260000000  0.5105700000000 1.0
C      1  0.4046870000000  0.4850280000000  0.4659330000000 1.0
C      1  0.5301320000000  0.4798540000000  0.5400940000000 1.0
C      1  0.4868970000000  0.4755290000000  0.4844040000000 1.0
C      1  0.4540290000000  0.4597900000000  0.4557870000000 1.0
C      1  0.4627970000000  0.4193230000000  0.4334680000000 1.0
C      1  0.5080820000000  0.3937570000000  0.5450970000000 1.0
C      1  0.5132140000000  0.5247390000000  0.4956970000000 1.0
C      1  0.5234780000000  0.4954550000000  0.5866210000000 1.0
C      1  0.5572270000000  0.4572660000000  0.5829840000000 1.0
C      1  0.4717950000000  0.4952110000000  0.5325920000000 1.0
C      1  0.3991980000000  0.5661180000000  0.5351350000000 1.0
C      1  0.5576490000000  0.4923430000000  0.4136010000000 1.0
C      1  0.4209090000000  0.4752940000000  0.5629480000000 1.0
END
