TITL C-883740-3686-204 -8.39753890297412 125000 -21869.4953256888 0 0 144 (C1) n - 1
REM
REM in /home/nfs/bkarasulu/CARBON/AIRSS/Generating-Clusters/ReaxFF-fromJPCA2015/Units_Real/with-SteepDescent/Only-C1/SD-CG/Try1-3A/FIRE-CG
REM
REM
REM
REM
REM
REM ./C.cell (11c1c37f851c82e70ff6c80c92926a4b)
REM
REM compiler GCC version 9.2.1 20190827 (Red Hat 9.2.1-1)
REM options -cpp -mtune=generic -march=x86-64 -g -O0 -fpre-include=/usr/include/finclude/math-vector-fortran.h
REM seed 866214074 1323047281 1413606006 -1011176875 -1936162055 522502929 -1736331480 -816714375 1964178167 -1678884271 1441824639 1731603549 1062150855 486613481 610509597 1757900776 1394220543 -2021838742 2090943717 -250073078 -235424470 -1298087165 1969393159 -1580883646 -875933809 -1806966823 -1105010103 -1319085664 721093332 1323954939 1246561079 1492852007 -327313141
REM
CELL 1.54180   50.00000   50.00000   50.00000   90.00000   90.00000   90.00000
LATT -1
SFAC C  
C      1  0.4426600000000  0.5563200000000  0.4390410000000 1.0
C      1  0.5513780000000  0.4520680000000  0.4269210000000 1.0
C      1  0.4756760000000  0.4448250000000  0.4542520000000 1.0
C      1  0.4661780000000  0.5293270000000  0.5398070000000 1.0
C      1  0.4550160000000  0.4088200000000  0.4824640000000 1.0
C      1  0.5364810000000  0.5240270000000  0.4919910000000 1.0
C      1  0.4885840000000  0.4976830000000  0.5173210000000 1.0
C      1  0.5670160000000  0.4406100000000  0.4483790000000 1.0
C      1  0.5247000000000  0.4520850000000  0.5078200000000 1.0
C      1  0.4792050000000  0.4780910000000  0.4138010000000 1.0
C      1  0.4387030000000  0.4735240000000  0.5927290000000 1.0
C      1  0.4615390000000  0.4917640000000  0.5979250000000 1.0
C      1  0.5174970000000  0.4543130000000  0.5338420000000 1.0
C      1  0.5328680000000  0.5059780000000  0.5383170000000 1.0
C      1  0.5671920000000  0.4667600000000  0.5683960000000 1.0
C      1  0.4504500000000  0.5651730000000  0.5570910000000 1.0
C      1  0.4415060000000  0.5733840000000  0.4629010000000 1.0
C      1  0.4361670000000  0.4118210000000  0.4572690000000 1.0
C      1  0.5868640000000  0.4665350000000  0.5261090000000 1.0
C      1  0.4996740000000  0.5826770000000  0.5659210000000 1.0
C      1  0.5562570000000  0.4290650000000  0.5274550000000 1.0
C      1  0.4679450000000  0.5856140000000  0.4673090000000 1.0
C      1  0.5666700000000  0.4321180000000  0.4997740000000 1.0
C      1  0.5929290000000  0.4954240000000  0.5273560000000 1.0
C      1  0.4029870000000  0.5156280000000  0.5083460000000 1.0
C      1  0.5075420000000  0.6004230000000  0.5216450000000 1.0
C      1  0.4801000000000  0.4145340000000  0.5235340000000 1.0
C      1  0.4626010000000  0.4643890000000  0.4361460000000 1.0
C      1  0.4682140000000  0.4873800000000  0.4627160000000 1.0
C      1  0.4872270000000  0.5418550000000  0.5863620000000 1.0
C      1  0.4189720000000  0.4486210000000  0.5387120000000 1.0
C      1  0.5478390000000  0.4698230000000  0.5909380000000 1.0
C      1  0.5219670000000  0.5477140000000  0.4973460000000 1.0
C      1  0.5743590000000  0.5367110000000  0.4135940000000 1.0
C      1  0.5194420000000  0.5855100000000  0.5443660000000 1.0
C      1  0.5888500000000  0.5076150000000  0.4510650000000 1.0
C      1  0.4353590000000  0.4518790000000  0.4274030000000 1.0
C      1  0.4305090000000  0.5580890000000  0.5369030000000 1.0
C      1  0.5246300000000  0.6002180000000  0.4975320000000 1.0
C      1  0.4799350000000  0.5774410000000  0.4903480000000 1.0
C      1  0.5729350000000  0.4961650000000  0.5701370000000 1.0
C      1  0.4913990000000  0.5290580000000  0.4507330000000 1.0
C      1  0.5083220000000  0.4102440000000  0.5159050000000 1.0
C      1  0.4170840000000  0.5281270000000  0.5320310000000 1.0
C      1  0.5303390000000  0.5530700000000  0.4369350000000 1.0
C      1  0.5560630000000  0.4273320000000  0.4723770000000 1.0
C      1  0.4229550000000  0.4364220000000  0.4492700000000 1.0
C      1  0.4955250000000  0.4793230000000  0.4707540000000 1.0
C      1  0.4689080000000  0.4524110000000  0.5070230000000 1.0
C      1  0.5800350000000  0.5359330000000  0.4425170000000 1.0
C      1  0.5031590000000  0.4343500000000  0.5764800000000 1.0
C      1  0.4730520000000  0.4792520000000  0.5500190000000 1.0
C      1  0.5626160000000  0.4766120000000  0.4164750000000 1.0
C      1  0.4839620000000  0.5306850000000  0.4782430000000 1.0
C      1  0.4424770000000  0.5214130000000  0.5184530000000 1.0
C      1  0.4130390000000  0.4568910000000  0.4685210000000 1.0
C      1  0.4435500000000  0.4415710000000  0.5528160000000 1.0
C      1  0.5385300000000  0.5610730000000  0.5176020000000 1.0
C      1  0.4288730000000  0.5649760000000  0.4878710000000 1.0
C      1  0.4159580000000  0.5123380000000  0.4550310000000 1.0
C      1  0.5918810000000  0.5359920000000  0.5062480000000 1.0
C      1  0.5468110000000  0.5894690000000  0.5133340000000 1.0
C      1  0.5174710000000  0.4718890000000  0.4537500000000 1.0
C      1  0.4144360000000  0.5032870000000  0.5530700000000 1.0
C      1  0.4632990000000  0.4560640000000  0.5345040000000 1.0
C      1  0.4942320000000  0.5531410000000  0.4916710000000 1.0
C      1  0.5184020000000  0.4911320000000  0.3976600000000 1.0
C      1  0.5419000000000  0.5046860000000  0.5115990000000 1.0
C      1  0.4355460000000  0.5752230000000  0.5146930000000 1.0
C      1  0.4125760000000  0.4787330000000  0.5373580000000 1.0
C      1  0.4288520000000  0.4973330000000  0.4085630000000 1.0
C      1  0.5338770000000  0.4804460000000  0.4960110000000 1.0
C      1  0.4454990000000  0.4880070000000  0.4809710000000 1.0
C      1  0.4478590000000  0.5172150000000  0.4119880000000 1.0
C      1  0.4264500000000  0.4916210000000  0.5744910000000 1.0
C      1  0.4631670000000  0.4023240000000  0.4539480000000 1.0
C      1  0.4138440000000  0.4534050000000  0.4969050000000 1.0
C      1  0.5491900000000  0.5249610000000  0.4010820000000 1.0
C      1  0.4646750000000  0.5408450000000  0.5662540000000 1.0
C      1  0.5282720000000  0.4195950000000  0.4679330000000 1.0
C      1  0.5165780000000  0.4282310000000  0.4941720000000 1.0
C      1  0.4728630000000  0.5857060000000  0.5544890000000 1.0
C      1  0.4955480000000  0.4882840000000  0.5416080000000 1.0
C      1  0.5322590000000  0.4128810000000  0.5342640000000 1.0
C      1  0.5211820000000  0.4796650000000  0.5487250000000 1.0
C      1  0.5272690000000  0.5573500000000  0.5425490000000 1.0
C      1  0.5871900000000  0.4528790000000  0.5004170000000 1.0
C      1  0.4861520000000  0.5807280000000  0.4439960000000 1.0
C      1  0.4224710000000  0.4849100000000  0.4627610000000 1.0
C      1  0.4916200000000  0.5251140000000  0.5284470000000 1.0
C      1  0.5822150000000  0.5574780000000  0.5158830000000 1.0
C      1  0.5566200000000  0.5739020000000  0.4719040000000 1.0
C      1  0.4761010000000  0.4747700000000  0.5788490000000 1.0
C      1  0.5324060000000  0.5215390000000  0.5944360000000 1.0
C      1  0.5696930000000  0.5784990000000  0.4983040000000 1.0
C      1  0.5030350000000  0.5165730000000  0.4019910000000 1.0
C      1  0.5168090000000  0.5299110000000  0.5429690000000 1.0
C      1  0.5029080000000  0.5213630000000  0.6003770000000 1.0
C      1  0.5367880000000  0.5480280000000  0.5839900000000 1.0
C      1  0.5848430000000  0.4838700000000  0.4346850000000 1.0
C      1  0.4095110000000  0.5247440000000  0.4815330000000 1.0
C      1  0.6006980000000  0.5102260000000  0.5026540000000 1.0
C      1  0.5692740000000  0.4510150000000  0.5434690000000 1.0
C      1  0.5777280000000  0.5421670000000  0.5450120000000 1.0
C      1  0.5985580000000  0.4970000000000  0.4758950000000 1.0
C      1  0.4531160000000  0.4145170000000  0.5124260000000 1.0
C      1  0.4681450000000  0.5157290000000  0.4619050000000 1.0
C      1  0.5087170000000  0.4802810000000  0.6018570000000 1.0
C      1  0.4391760000000  0.4929310000000  0.5087310000000 1.0
C      1  0.4760870000000  0.5066350000000  0.4088500000000 1.0
C      1  0.4478580000000  0.4463330000000  0.5812460000000 1.0
C      1  0.5199910000000  0.4640890000000  0.5812770000000 1.0
C      1  0.5519460000000  0.4995460000000  0.5907440000000 1.0
C      1  0.5131840000000  0.4235100000000  0.4434710000000 1.0
C      1  0.5199000000000  0.5280780000000  0.4475530000000 1.0
C      1  0.4618580000000  0.5888470000000  0.5079680000000 1.0
C      1  0.5008980000000  0.4340600000000  0.5471300000000 1.0
C      1  0.5234180000000  0.5366910000000  0.4082410000000 1.0
C      1  0.5209130000000  0.4508940000000  0.4302920000000 1.0
C      1  0.4761650000000  0.4462710000000  0.5856040000000 1.0
C      1  0.4263880000000  0.4348240000000  0.5144750000000 1.0
C      1  0.5359170000000  0.5142000000000  0.4662650000000 1.0
C      1  0.5385940000000  0.4855400000000  0.4666840000000 1.0
C      1  0.4688210000000  0.4397040000000  0.4823920000000 1.0
C      1  0.4251790000000  0.4730080000000  0.4134990000000 1.0
C      1  0.5088340000000  0.5605920000000  0.5830340000000 1.0
C      1  0.4340020000000  0.5366620000000  0.4919060000000 1.0
C      1  0.4786880000000  0.5984600000000  0.5293510000000 1.0
C      1  0.4109910000000  0.4855510000000  0.5098620000000 1.0
C      1  0.5297160000000  0.5870730000000  0.4712310000000 1.0
C      1  0.5830730000000  0.5127920000000  0.5480410000000 1.0
C      1  0.5147350000000  0.5769570000000  0.4488070000000 1.0
C      1  0.4882340000000  0.4968560000000  0.6110390000000 1.0
C      1  0.5606020000000  0.5515980000000  0.5663030000000 1.0
C      1  0.4323840000000  0.5279410000000  0.4351990000000 1.0
C      1  0.5973200000000  0.4678350000000  0.4771480000000 1.0
C      1  0.4845760000000  0.4192570000000  0.4423030000000 1.0
C      1  0.5892630000000  0.4597180000000  0.4506580000000 1.0
C      1  0.4676100000000  0.5659860000000  0.4255630000000 1.0
C      1  0.5587910000000  0.5550940000000  0.4502710000000 1.0
C      1  0.5176840000000  0.4150500000000  0.5589760000000 1.0
C      1  0.5040470000000  0.4879970000000  0.4950170000000 1.0
C      1  0.5051500000000  0.4681760000000  0.4085780000000 1.0
C      1  0.5470050000000  0.4954370000000  0.4003530000000 1.0
END
