TITL C-883727-9645-470 9.02013574868731 125000 -13969.4721899956 0 0 95 (C1) n - 1
REM
REM in /home/nfs/bkarasulu/CARBON/AIRSS/Generating-Clusters/ReaxFF-fromJPCA2015/Units_Real/with-SteepDescent/Only-C1/SD-CG/Try1-3A/FIRE-CG
REM
REM
REM
REM
REM
REM ./C.cell (11c1c37f851c82e70ff6c80c92926a4b)
REM
REM compiler GCC version 9.2.1 20190827 (Red Hat 9.2.1-1)
REM options -cpp -mtune=generic -march=x86-64 -g -O0 -fpre-include=/usr/include/finclude/math-vector-fortran.h
REM seed 298140502 365124336 -1761112987 -1269535236 -1085198703 1156473279 -170364172 -1828389532 -588201802 945029555 -1355614591 -791740747 910234737 -743690248 1716421746 1060181466 303556692 -1514476191 864325358 -1006475483 -2066540125 -616903543 1139296655 1898223571 -1781391763 -716870408 -667192351 820536744 -528084495 1862524748 1554369713 1705442112 2136268469
REM
CELL 1.54180   50.00000   50.00000   50.00000   90.00000   90.00000   90.00000
LATT -1
SFAC C  
C      1  0.5497750000000  0.5469730000000  0.4455690000000 1.0
C      1  0.5306360000000  0.4776680000000  0.4892910000000 1.0
C      1  0.5550510000000  0.5428280000000  0.5706590000000 1.0
C      1  0.4275080000000  0.5546790000000  0.4802920000000 1.0
C      1  0.5878320000000  0.5181490000000  0.4950820000000 1.0
C      1  0.5492890000000  0.4470900000000  0.5537190000000 1.0
C      1  0.4575820000000  0.4792150000000  0.5625570000000 1.0
C      1  0.5150880000000  0.4320290000000  0.4548420000000 1.0
C      1  0.4166520000000  0.5020730000000  0.4607230000000 1.0
C      1  0.5305800000000  0.5224350000000  0.4809780000000 1.0
C      1  0.5144840000000  0.5002540000000  0.5400360000000 1.0
C      1  0.4584100000000  0.5673950000000  0.5208850000000 1.0
C      1  0.4344460000000  0.5561230000000  0.5084020000000 1.0
C      1  0.5011340000000  0.5042730000000  0.5649500000000 1.0
C      1  0.5386420000000  0.4470130000000  0.4521890000000 1.0
C      1  0.5267610000000  0.5390750000000  0.5786030000000 1.0
C      1  0.5547740000000  0.5552200000000  0.4737810000000 1.0
C      1  0.4414420000000  0.5315750000000  0.5509080000000 1.0
C      1  0.4815750000000  0.4618380000000  0.5693590000000 1.0
C      1  0.4473290000000  0.4578460000000  0.5449430000000 1.0
C      1  0.4195140000000  0.5073700000000  0.5186760000000 1.0
C      1  0.4502970000000  0.5155880000000  0.4809750000000 1.0
C      1  0.4380450000000  0.4417840000000  0.4419010000000 1.0
C      1  0.4883050000000  0.4233990000000  0.5340680000000 1.0
C      1  0.4818860000000  0.5516980000000  0.4881660000000 1.0
C      1  0.5109450000000  0.4728930000000  0.5326170000000 1.0
C      1  0.4797980000000  0.5198900000000  0.5702040000000 1.0
C      1  0.5099900000000  0.4628120000000  0.5785750000000 1.0
C      1  0.4569540000000  0.4510850000000  0.4214720000000 1.0
C      1  0.5577710000000  0.5387360000000  0.5228430000000 1.0
C      1  0.4415970000000  0.4391370000000  0.4723550000000 1.0
C      1  0.4231680000000  0.5258930000000  0.4772170000000 1.0
C      1  0.4712790000000  0.4409470000000  0.5507510000000 1.0
C      1  0.4896410000000  0.4955530000000  0.5057370000000 1.0
C      1  0.5160340000000  0.5115980000000  0.5861980000000 1.0
C      1  0.4164930000000  0.4817180000000  0.5091610000000 1.0
C      1  0.4835990000000  0.5718180000000  0.5069080000000 1.0
C      1  0.5129720000000  0.5658410000000  0.5091360000000 1.0
C      1  0.5296430000000  0.4504300000000  0.5294390000000 1.0
C      1  0.5409060000000  0.5027440000000  0.4987390000000 1.0
C      1  0.4577890000000  0.5091570000000  0.4530980000000 1.0
C      1  0.5261480000000  0.5667680000000  0.5380270000000 1.0
C      1  0.4600130000000  0.5528460000000  0.5458820000000 1.0
C      1  0.5250280000000  0.4395000000000  0.5682860000000 1.0
C      1  0.5844770000000  0.4705610000000  0.4653240000000 1.0
C      1  0.4877060000000  0.4231760000000  0.5026610000000 1.0
C      1  0.5146350000000  0.4255920000000  0.5445390000000 1.0
C      1  0.4355240000000  0.4959090000000  0.4389910000000 1.0
C      1  0.4582300000000  0.5629080000000  0.4334500000000 1.0
C      1  0.4870850000000  0.5518830000000  0.4604110000000 1.0
C      1  0.5281320000000  0.4847650000000  0.5863480000000 1.0
C      1  0.5448870000000  0.4913490000000  0.4389530000000 1.0
C      1  0.5784320000000  0.4731480000000  0.5277420000000 1.0
C      1  0.5298240000000  0.5733940000000  0.4802850000000 1.0
C      1  0.5050890000000  0.5394710000000  0.4146190000000 1.0
C      1  0.5758060000000  0.4504480000000  0.4823450000000 1.0
C      1  0.4989590000000  0.4556560000000  0.4457390000000 1.0
C      1  0.5010350000000  0.5114990000000  0.4141470000000 1.0
C      1  0.5562940000000  0.4886090000000  0.5754290000000 1.0
C      1  0.5114960000000  0.5530890000000  0.5580350000000 1.0
C      1  0.5691120000000  0.5413480000000  0.4961030000000 1.0
C      1  0.4345420000000  0.4681450000000  0.4286480000000 1.0
C      1  0.5945750000000  0.4926970000000  0.4829300000000 1.0
C      1  0.5041530000000  0.4880940000000  0.4809650000000 1.0
C      1  0.5673480000000  0.4694680000000  0.5545300000000 1.0
C      1  0.4512820000000  0.4666960000000  0.4735700000000 1.0
C      1  0.4779770000000  0.5287300000000  0.4444980000000 1.0
C      1  0.4410940000000  0.5666560000000  0.4553520000000 1.0
C      1  0.4943420000000  0.4854530000000  0.4175220000000 1.0
C      1  0.5920150000000  0.4940390000000  0.5123480000000 1.0
C      1  0.5533970000000  0.5578680000000  0.5436780000000 1.0
C      1  0.5159090000000  0.5365310000000  0.5015940000000 1.0
C      1  0.4824060000000  0.5188110000000  0.5212190000000 1.0
C      1  0.5534160000000  0.5183030000000  0.4412280000000 1.0
C      1  0.5690500000000  0.4509070000000  0.5095770000000 1.0
C      1  0.5118060000000  0.5664610000000  0.4548480000000 1.0
C      1  0.4758390000000  0.5443070000000  0.4193530000000 1.0
C      1  0.5319380000000  0.5193380000000  0.5219500000000 1.0
C      1  0.4849590000000  0.5386800000000  0.5491040000000 1.0
C      1  0.5405200000000  0.4526420000000  0.5019900000000 1.0
C      1  0.4536610000000  0.5084300000000  0.5642730000000 1.0
C      1  0.5591250000000  0.4657850000000  0.4478580000000 1.0
C      1  0.4863780000000  0.4509390000000  0.4952960000000 1.0
C      1  0.4882600000000  0.4694130000000  0.5168650000000 1.0
C      1  0.5047110000000  0.4172530000000  0.4798190000000 1.0
C      1  0.4856530000000  0.4672150000000  0.4698520000000 1.0
C      1  0.5241080000000  0.5545460000000  0.4321830000000 1.0
C      1  0.4272380000000  0.4564890000000  0.5229740000000 1.0
C      1  0.5274310000000  0.5085840000000  0.4548480000000 1.0
C      1  0.4853100000000  0.4598210000000  0.4212510000000 1.0
C      1  0.4290880000000  0.4423060000000  0.4982460000000 1.0
C      1  0.5603730000000  0.5157740000000  0.5727480000000 1.0
C      1  0.4262150000000  0.4807510000000  0.4798680000000 1.0
C      1  0.4242570000000  0.5334810000000  0.5267410000000 1.0
C      1  0.4680930000000  0.5296250000000  0.4989520000000 1.0
END
