TITL C-883728-9229-158 6.86670918570741 125000 -2835.46826878573 0 0 21 (C1) n - 1
REM
REM in /home/nfs/bkarasulu/CARBON/AIRSS/Generating-Clusters/ReaxFF-fromJPCA2015/Units_Real/with-SteepDescent/Only-C1/SD-CG/Try1-3A/FIRE-CG
REM
REM
REM
REM
REM
REM ./C.cell (11c1c37f851c82e70ff6c80c92926a4b)
REM
REM compiler GCC version 9.2.1 20190827 (Red Hat 9.2.1-1)
REM options -cpp -mtune=generic -march=x86-64 -g -O0 -fpre-include=/usr/include/finclude/math-vector-fortran.h
REM seed 781720842 -146104983 1663373984 -581707111 -1908266315 1070675825 -228323522 664613531 -207778229 -600953715 675575051 560518221 148671843 -1433158197 52650589 -1755983526 -1899568708 368559939 1945710128 -1373550770 -719457506 2049648830 -1088411704 -1348195071 -1470606036 -1022377968 -573017582 1700072456 492370952 2111312190 -755004932 -174240639 1512718053
REM
CELL 1.54180   50.00000   50.00000   50.00000   90.00000   90.00000   90.00000
LATT -1
SFAC C  
C      1  0.5266470000000  0.4561810000000  0.5228520000000 1.0
C      1  0.5051040000000  0.4809030000000  0.5261020000000 1.0
C      1  0.4619870000000  0.4943490000000  0.5459640000000 1.0
C      1  0.5662530000000  0.5122540000000  0.4984310000000 1.0
C      1  0.5388080000000  0.5036140000000  0.4664240000000 1.0
C      1  0.4994410000000  0.5632590000000  0.4985820000000 1.0
C      1  0.4797320000000  0.4622060000000  0.4617600000000 1.0
C      1  0.5136260000000  0.4963850000000  0.4547060000000 1.0
C      1  0.4387000000000  0.5107670000000  0.5446610000000 1.0
C      1  0.4836900000000  0.4833210000000  0.5405670000000 1.0
C      1  0.4776400000000  0.5029950000000  0.4881680000000 1.0
C      1  0.4992940000000  0.5047200000000  0.5086620000000 1.0
C      1  0.4508280000000  0.5131170000000  0.4957720000000 1.0
C      1  0.4852350000000  0.4893110000000  0.4628070000000 1.0
C      1  0.5174800000000  0.5281010000000  0.5062420000000 1.0
C      1  0.5553750000000  0.4861140000000  0.4857500000000 1.0
C      1  0.5412150000000  0.4709520000000  0.5041740000000 1.0
C      1  0.5107610000000  0.5551420000000  0.5230520000000 1.0
C      1  0.4749530000000  0.4386620000000  0.4608510000000 1.0
C      1  0.4321070000000  0.5221040000000  0.5160720000000 1.0
C      1  0.5411240000000  0.5255430000000  0.4884020000000 1.0
END
