TITL C-884135-4325-379 78.3477697391614 125000 -20358.3849530938 0 0 139 (C1) n - 1
REM
REM in /home/nfs/bkarasulu/CARBON/AIRSS/Generating-Clusters/ReaxFF-fromJPCA2015/Units_Real/with-SteepDescent/Only-C1/SD-CG/Try1-3A/FIRE-CG
REM
REM
REM
REM
REM
REM ./C.cell (11c1c37f851c82e70ff6c80c92926a4b)
REM
REM compiler GCC version 9.2.1 20190827 (Red Hat 9.2.1-1)
REM options -cpp -mtune=generic -march=x86-64 -g -O0 -fpre-include=/usr/include/finclude/math-vector-fortran.h
REM seed 1475963452 -778407905 1010728826 -1022030516 -1037100962 1345539725 2121070734 610636690 1214819075 1600201258 -514356354 1099164746 1959433009 563327164 -158216600 -2084353589 -734560117 1180969121 -1234093594 777961694 -1934936792 1394661509 537324981 1806522358 -571929755 660467728 -1741110076 486896455 -1880417757 -1463462339 536322133 1955036239 -1826575659
REM
CELL 1.54180   50.00000   50.00000   50.00000   90.00000   90.00000   90.00000
LATT -1
SFAC C  
C      1  0.4723650000000  0.4879840000000  0.5236540000000 1.0
C      1  0.4390220000000  0.4444480000000  0.5491290000000 1.0
C      1  0.4783070000000  0.4530430000000  0.4175570000000 1.0
C      1  0.4971790000000  0.5739420000000  0.4337500000000 1.0
C      1  0.4966150000000  0.5439930000000  0.5834690000000 1.0
C      1  0.4605100000000  0.4427400000000  0.5057380000000 1.0
C      1  0.5641260000000  0.4964840000000  0.5133600000000 1.0
C      1  0.5927330000000  0.4926940000000  0.5201100000000 1.0
C      1  0.4226880000000  0.4496110000000  0.4750110000000 1.0
C      1  0.5305980000000  0.4879980000000  0.5950240000000 1.0
C      1  0.5821780000000  0.4701620000000  0.5442120000000 1.0
C      1  0.5185930000000  0.4593870000000  0.4794730000000 1.0
C      1  0.5080050000000  0.3967340000000  0.4939820000000 1.0
C      1  0.5329990000000  0.4448600000000  0.4225710000000 1.0
C      1  0.5184700000000  0.4396200000000  0.5852930000000 1.0
C      1  0.5084720000000  0.4540480000000  0.5376340000000 1.0
C      1  0.4338930000000  0.5544570000000  0.5226440000000 1.0
C      1  0.5434340000000  0.4729860000000  0.4756200000000 1.0
C      1  0.5688390000000  0.4359820000000  0.4609280000000 1.0
C      1  0.4773320000000  0.5406030000000  0.5232090000000 1.0
C      1  0.4852850000000  0.5425260000000  0.4575880000000 1.0
C      1  0.5844320000000  0.4593370000000  0.4526640000000 1.0
C      1  0.4999240000000  0.5480510000000  0.4815280000000 1.0
C      1  0.5626670000000  0.5524760000000  0.5424470000000 1.0
C      1  0.4913170000000  0.4607070000000  0.4435890000000 1.0
C      1  0.4457610000000  0.5487230000000  0.4824110000000 1.0
C      1  0.5972740000000  0.5222860000000  0.5253080000000 1.0
C      1  0.4760760000000  0.4618740000000  0.5790230000000 1.0
C      1  0.5399150000000  0.5696250000000  0.5026940000000 1.0
C      1  0.4165530000000  0.4906730000000  0.4524400000000 1.0
C      1  0.5758020000000  0.5279470000000  0.4420170000000 1.0
C      1  0.4896560000000  0.5897190000000  0.4571960000000 1.0
C      1  0.5672090000000  0.5177150000000  0.5653820000000 1.0
C      1  0.4457560000000  0.5495770000000  0.5641140000000 1.0
C      1  0.5738510000000  0.4752290000000  0.4307100000000 1.0
C      1  0.5643850000000  0.4738390000000  0.4959240000000 1.0
C      1  0.4337750000000  0.4884850000000  0.5599290000000 1.0
C      1  0.4781800000000  0.4158420000000  0.5615260000000 1.0
C      1  0.4877030000000  0.4349000000000  0.4560750000000 1.0
C      1  0.4487960000000  0.5793970000000  0.5196020000000 1.0
C      1  0.5055090000000  0.5388860000000  0.5306360000000 1.0
C      1  0.4330030000000  0.5078500000000  0.5817880000000 1.0
C      1  0.4627010000000  0.4582590000000  0.4829200000000 1.0
C      1  0.5158810000000  0.5518160000000  0.5045740000000 1.0
C      1  0.4542680000000  0.5055300000000  0.5105730000000 1.0
C      1  0.5062420000000  0.4182460000000  0.5720690000000 1.0
C      1  0.4682450000000  0.5858700000000  0.5403330000000 1.0
C      1  0.4618790000000  0.5311590000000  0.5003900000000 1.0
C      1  0.5634270000000  0.5435310000000  0.4656630000000 1.0
C      1  0.4606410000000  0.4898610000000  0.4443940000000 1.0
C      1  0.4717520000000  0.4703120000000  0.4613150000000 1.0
C      1  0.4860760000000  0.4641050000000  0.5165520000000 1.0
C      1  0.5132450000000  0.5397290000000  0.4061140000000 1.0
C      1  0.4628220000000  0.5835550000000  0.4678300000000 1.0
C      1  0.5366890000000  0.4928660000000  0.5263840000000 1.0
C      1  0.4662300000000  0.5270890000000  0.4130300000000 1.0
C      1  0.4621940000000  0.5081190000000  0.4652820000000 1.0
C      1  0.4585190000000  0.5572010000000  0.4568740000000 1.0
C      1  0.4593380000000  0.4384090000000  0.5672150000000 1.0
C      1  0.5648740000000  0.5584780000000  0.5137030000000 1.0
C      1  0.5777060000000  0.5416420000000  0.4939800000000 1.0
C      1  0.5316940000000  0.5398140000000  0.4567500000000 1.0
C      1  0.4232500000000  0.5337440000000  0.5724050000000 1.0
C      1  0.5752210000000  0.4906420000000  0.5613350000000 1.0
C      1  0.4649330000000  0.5887910000000  0.4964580000000 1.0
C      1  0.3992920000000  0.5023970000000  0.5412050000000 1.0
C      1  0.4315650000000  0.5079400000000  0.4714860000000 1.0
C      1  0.5111730000000  0.4330290000000  0.4721360000000 1.0
C      1  0.5535030000000  0.4071760000000  0.5029200000000 1.0
C      1  0.5140790000000  0.5493700000000  0.5569740000000 1.0
C      1  0.4104340000000  0.4766640000000  0.5463280000000 1.0
C      1  0.5383720000000  0.5852490000000  0.4782520000000 1.0
C      1  0.5430510000000  0.4132270000000  0.5289730000000 1.0
C      1  0.5461660000000  0.4280170000000  0.4438980000000 1.0
C      1  0.5206890000000  0.4967970000000  0.5023930000000 1.0
C      1  0.5962360000000  0.4848000000000  0.4655750000000 1.0
C      1  0.4766950000000  0.4835570000000  0.5989400000000 1.0
C      1  0.4038670000000  0.4717990000000  0.4706890000000 1.0
C      1  0.4854890000000  0.5046500000000  0.4133130000000 1.0
C      1  0.4606800000000  0.5749350000000  0.5675930000000 1.0
C      1  0.4290840000000  0.4467290000000  0.5031350000000 1.0
C      1  0.4412350000000  0.4403430000000  0.4521430000000 1.0
C      1  0.5388050000000  0.5235380000000  0.4085530000000 1.0
C      1  0.5040820000000  0.4970040000000  0.6067610000000 1.0
C      1  0.5054970000000  0.5255510000000  0.6086920000000 1.0
C      1  0.5701330000000  0.4277740000000  0.4893220000000 1.0
C      1  0.4872740000000  0.5467910000000  0.4270750000000 1.0
C      1  0.5473820000000  0.4707650000000  0.4187890000000 1.0
C      1  0.6034960000000  0.4961310000000  0.4908190000000 1.0
C      1  0.4193290000000  0.4508790000000  0.5307580000000 1.0
C      1  0.3984510000000  0.4927480000000  0.4901460000000 1.0
C      1  0.5329630000000  0.3939580000000  0.4834110000000 1.0
C      1  0.4649700000000  0.4181530000000  0.4910230000000 1.0
C      1  0.4351840000000  0.5400180000000  0.4385090000000 1.0
C      1  0.5321720000000  0.4951270000000  0.4147310000000 1.0
C      1  0.4352380000000  0.4862780000000  0.4292470000000 1.0
C      1  0.4251570000000  0.5361840000000  0.4655160000000 1.0
C      1  0.5171780000000  0.5471960000000  0.3826970000000 1.0
C      1  0.5282630000000  0.4116480000000  0.4600060000000 1.0
C      1  0.4799750000000  0.5704650000000  0.5885550000000 1.0
C      1  0.5235880000000  0.5086450000000  0.5493180000000 1.0
C      1  0.4402720000000  0.5179010000000  0.4216830000000 1.0
C      1  0.5716000000000  0.5268990000000  0.5381930000000 1.0
C      1  0.5154530000000  0.4204250000000  0.5419630000000 1.0
C      1  0.5357640000000  0.4634200000000  0.5345780000000 1.0
C      1  0.4954740000000  0.5935790000000  0.5314180000000 1.0
C      1  0.5134080000000  0.5116520000000  0.4585030000000 1.0
C      1  0.5379550000000  0.5657270000000  0.5550580000000 1.0
C      1  0.4094670000000  0.5384160000000  0.5216320000000 1.0
C      1  0.4890490000000  0.5057940000000  0.4750950000000 1.0
C      1  0.5332790000000  0.5001080000000  0.4774290000000 1.0
C      1  0.4606750000000  0.5069630000000  0.5925390000000 1.0
C      1  0.5070660000000  0.4937920000000  0.4303280000000 1.0
C      1  0.5579590000000  0.5731500000000  0.4594330000000 1.0
C      1  0.5052890000000  0.4412370000000  0.4115010000000 1.0
C      1  0.5615760000000  0.4504040000000  0.5359380000000 1.0
C      1  0.4833030000000  0.4009250000000  0.5064810000000 1.0
C      1  0.5216900000000  0.5888620000000  0.5453220000000 1.0
C      1  0.6015220000000  0.5249920000000  0.4966180000000 1.0
C      1  0.4927010000000  0.5953590000000  0.5017200000000 1.0
C      1  0.5850010000000  0.5004260000000  0.4426070000000 1.0
C      1  0.4810740000000  0.5186910000000  0.5747560000000 1.0
C      1  0.4500010000000  0.4550830000000  0.4284220000000 1.0
C      1  0.4998630000000  0.4788850000000  0.4932690000000 1.0
C      1  0.5596320000000  0.5399150000000  0.4216630000000 1.0
C      1  0.4890090000000  0.4070070000000  0.5358270000000 1.0
C      1  0.5235860000000  0.5614330000000  0.4398370000000 1.0
C      1  0.4946290000000  0.4710890000000  0.5596450000000 1.0
C      1  0.4042020000000  0.5288630000000  0.5497380000000 1.0
C      1  0.4049720000000  0.5163020000000  0.5025950000000 1.0
C      1  0.5741110000000  0.4490480000000  0.5086170000000 1.0
C      1  0.4973260000000  0.5001430000000  0.5587600000000 1.0
C      1  0.4526440000000  0.5383410000000  0.5389590000000 1.0
C      1  0.4624760000000  0.4222400000000  0.4622560000000 1.0
C      1  0.5263210000000  0.4604440000000  0.5919700000000 1.0
C      1  0.5513420000000  0.5671590000000  0.4314240000000 1.0
C      1  0.5401130000000  0.5065700000000  0.5732860000000 1.0
C      1  0.4525770000000  0.5024290000000  0.5401610000000 1.0
C      1  0.5098540000000  0.5945860000000  0.4777920000000 1.0
END
