TITL C-884134-5972-352 -6.67867651269112 125000 -4379.79866728549 0 0 31 (C1) n - 1
REM
REM in /home/nfs/bkarasulu/CARBON/AIRSS/Generating-Clusters/ReaxFF-fromJPCA2015/Units_Real/with-SteepDescent/Only-C1/SD-CG/Try1-3A/FIRE-CG
REM
REM
REM
REM
REM
REM ./C.cell (11c1c37f851c82e70ff6c80c92926a4b)
REM
REM compiler GCC version 9.2.1 20190827 (Red Hat 9.2.1-1)
REM options -cpp -mtune=generic -march=x86-64 -g -O0 -fpre-include=/usr/include/finclude/math-vector-fortran.h
REM seed 2130213388 -611358545 1959482079 2039607671 -1471304332 182123667 1201403050 664700546 1399045188 157808050 -1777280313 1460969360 1359466725 1823649974 -578020994 2089533415 -334834651 -620126951 -1653947903 -830989203 -1611780749 497765345 -1863029261 -1633681799 642162584 -1712127856 -1715742532 1246402512 1131294603 -1243033007 329719842 1357371737 -1980778954
REM
CELL 1.54180   50.00000   50.00000   50.00000   90.00000   90.00000   90.00000
LATT -1
SFAC C  
C      1  0.5488140000000  0.4868260000000  0.4855290000000 1.0
C      1  0.4943650000000  0.4583100000000  0.4361380000000 1.0
C      1  0.4979260000000  0.5266760000000  0.4598650000000 1.0
C      1  0.5055290000000  0.4528420000000  0.5045590000000 1.0
C      1  0.5371190000000  0.4625530000000  0.4728890000000 1.0
C      1  0.4667700000000  0.4754810000000  0.4732480000000 1.0
C      1  0.4936120000000  0.4689430000000  0.4837300000000 1.0
C      1  0.5289280000000  0.4839380000000  0.5464770000000 1.0
C      1  0.5059170000000  0.4936970000000  0.5566620000000 1.0
C      1  0.5056160000000  0.5638980000000  0.4920730000000 1.0
C      1  0.5270060000000  0.5302790000000  0.5273190000000 1.0
C      1  0.4822350000000  0.5195490000000  0.5115440000000 1.0
C      1  0.4465050000000  0.5299740000000  0.5317060000000 1.0
C      1  0.5281790000000  0.5087910000000  0.4826950000000 1.0
C      1  0.5523390000000  0.4926750000000  0.5129160000000 1.0
C      1  0.5152180000000  0.5053360000000  0.4571240000000 1.0
C      1  0.4858560000000  0.5473180000000  0.4738430000000 1.0
C      1  0.5222020000000  0.4580070000000  0.5300710000000 1.0
C      1  0.4675870000000  0.4611110000000  0.4442860000000 1.0
C      1  0.5450410000000  0.5070690000000  0.5355290000000 1.0
C      1  0.4581650000000  0.5023210000000  0.4747100000000 1.0
C      1  0.4821690000000  0.5050690000000  0.5647730000000 1.0
C      1  0.5432640000000  0.4396590000000  0.5203100000000 1.0
C      1  0.4360600000000  0.5403080000000  0.5087100000000 1.0
C      1  0.4654160000000  0.5295760000000  0.4872710000000 1.0
C      1  0.5298670000000  0.4417820000000  0.4918950000000 1.0
C      1  0.5218260000000  0.5532520000000  0.5123290000000 1.0
C      1  0.5122520000000  0.4731730000000  0.4595150000000 1.0
C      1  0.4694160000000  0.5184220000000  0.5372720000000 1.0
C      1  0.4137650000000  0.5484890000000  0.5171790000000 1.0
C      1  0.5110370000000  0.5146750000000  0.5078330000000 1.0
END
