TITL C-884132-5695-198 15.4352277626292 125000 -14744.1500909207 0 0 101 (C1) n - 1
REM
REM in /home/nfs/bkarasulu/CARBON/AIRSS/Generating-Clusters/ReaxFF-fromJPCA2015/Units_Real/with-SteepDescent/Only-C1/SD-CG/Try1-3A/FIRE-CG
REM
REM
REM
REM
REM
REM ./C.cell (11c1c37f851c82e70ff6c80c92926a4b)
REM
REM compiler GCC version 9.2.1 20190827 (Red Hat 9.2.1-1)
REM options -cpp -mtune=generic -march=x86-64 -g -O0 -fpre-include=/usr/include/finclude/math-vector-fortran.h
REM seed 1424123572 1303441425 -154224709 -2140985006 541401056 1641137454 768789018 -562317076 47906331 1019903507 -117263958 -1498918069 -2000267512 -305023714 -2054572931 811670376 498526679 -851658594 -1482668865 -1784488785 972098474 809321872 -651909061 -1620635251 -750938799 1251830240 172897989 -1398640265 388309555 8265691 -3872107 -135239904 -341000652
REM
CELL 1.54180   50.00000   50.00000   50.00000   90.00000   90.00000   90.00000
LATT -1
SFAC C  
C      1  0.4912280000000  0.4497960000000  0.5694330000000 1.0
C      1  0.4969970000000  0.5118750000000  0.4501510000000 1.0
C      1  0.5182360000000  0.4572720000000  0.5267740000000 1.0
C      1  0.4871040000000  0.5370500000000  0.5145230000000 1.0
C      1  0.5378570000000  0.4834170000000  0.4135200000000 1.0
C      1  0.4212080000000  0.5020280000000  0.4546460000000 1.0
C      1  0.5694700000000  0.4691590000000  0.4543830000000 1.0
C      1  0.5535150000000  0.5627790000000  0.4678120000000 1.0
C      1  0.5351980000000  0.5102890000000  0.5684640000000 1.0
C      1  0.5334220000000  0.5329800000000  0.5491290000000 1.0
C      1  0.4876370000000  0.4235810000000  0.5201850000000 1.0
C      1  0.5075360000000  0.5360860000000  0.5350860000000 1.0
C      1  0.4622160000000  0.4335880000000  0.5034860000000 1.0
C      1  0.4171450000000  0.5208870000000  0.5050010000000 1.0
C      1  0.4137630000000  0.4925250000000  0.5134850000000 1.0
C      1  0.5241320000000  0.5014350000000  0.5269220000000 1.0
C      1  0.5092490000000  0.5264640000000  0.4717530000000 1.0
C      1  0.5722080000000  0.5099940000000  0.5414150000000 1.0
C      1  0.4977580000000  0.5771990000000  0.4771410000000 1.0
C      1  0.5071010000000  0.5695050000000  0.4509210000000 1.0
C      1  0.5469110000000  0.4646500000000  0.4354760000000 1.0
C      1  0.4712680000000  0.4927560000000  0.5951740000000 1.0
C      1  0.4189990000000  0.4895240000000  0.5421190000000 1.0
C      1  0.4834110000000  0.5686750000000  0.4335040000000 1.0
C      1  0.5298590000000  0.4620200000000  0.4725950000000 1.0
C      1  0.5718830000000  0.5430740000000  0.4803530000000 1.0
C      1  0.4676320000000  0.5751390000000  0.4795980000000 1.0
C      1  0.4858420000000  0.5192040000000  0.4235190000000 1.0
C      1  0.5010230000000  0.4355750000000  0.4438800000000 1.0
C      1  0.4592120000000  0.4528870000000  0.4378340000000 1.0
C      1  0.4865010000000  0.5354800000000  0.4852950000000 1.0
C      1  0.5795590000000  0.4299650000000  0.5463230000000 1.0
C      1  0.4983980000000  0.5769580000000  0.5528610000000 1.0
C      1  0.5679530000000  0.4573360000000  0.4815040000000 1.0
C      1  0.5341790000000  0.4942800000000  0.5020470000000 1.0
C      1  0.4457870000000  0.5231310000000  0.4503050000000 1.0
C      1  0.5624440000000  0.4312510000000  0.5235650000000 1.0
C      1  0.4210610000000  0.4740200000000  0.4641940000000 1.0
C      1  0.5855260000000  0.5178030000000  0.4737110000000 1.0
C      1  0.4341190000000  0.4454060000000  0.5044350000000 1.0
C      1  0.4570530000000  0.5616370000000  0.4283850000000 1.0
C      1  0.5098420000000  0.4218310000000  0.5035200000000 1.0
C      1  0.4345450000000  0.4629280000000  0.4494360000000 1.0
C      1  0.4611070000000  0.5344070000000  0.4259350000000 1.0
C      1  0.5667110000000  0.4821360000000  0.5022370000000 1.0
C      1  0.4830490000000  0.4762670000000  0.4872200000000 1.0
C      1  0.5444120000000  0.5065110000000  0.4583320000000 1.0
C      1  0.4730660000000  0.5769500000000  0.5211110000000 1.0
C      1  0.5341560000000  0.5589720000000  0.4452270000000 1.0
C      1  0.4520010000000  0.4439290000000  0.5419920000000 1.0
C      1  0.5091160000000  0.5003730000000  0.5789060000000 1.0
C      1  0.5317120000000  0.4226810000000  0.4848270000000 1.0
C      1  0.4365570000000  0.4679720000000  0.5504350000000 1.0
C      1  0.4344840000000  0.5373550000000  0.5474910000000 1.0
C      1  0.4338250000000  0.5096060000000  0.5575740000000 1.0
C      1  0.4822530000000  0.4896830000000  0.4597660000000 1.0
C      1  0.5130730000000  0.4818300000000  0.5407910000000 1.0
C      1  0.4710130000000  0.5494960000000  0.5882130000000 1.0
C      1  0.5906330000000  0.4999020000000  0.4957640000000 1.0
C      1  0.5305350000000  0.4813490000000  0.4530260000000 1.0
C      1  0.4540620000000  0.5661590000000  0.5046100000000 1.0
C      1  0.4605800000000  0.4717640000000  0.5330120000000 1.0
C      1  0.4407420000000  0.5379330000000  0.5166710000000 1.0
C      1  0.5083430000000  0.4750160000000  0.4078780000000 1.0
C      1  0.5845200000000  0.4942670000000  0.5216260000000 1.0
C      1  0.4944350000000  0.4759390000000  0.5855090000000 1.0
C      1  0.5152470000000  0.4713680000000  0.4953660000000 1.0
C      1  0.5530500000000  0.5417110000000  0.5041970000000 1.0
C      1  0.4644920000000  0.5184780000000  0.5156810000000 1.0
C      1  0.4755100000000  0.4381470000000  0.4559950000000 1.0
C      1  0.5724470000000  0.4986940000000  0.4554690000000 1.0
C      1  0.4741460000000  0.4482170000000  0.4815650000000 1.0
C      1  0.4840490000000  0.4921790000000  0.4126410000000 1.0
C      1  0.5603870000000  0.4649150000000  0.5595820000000 1.0
C      1  0.5482100000000  0.4536680000000  0.5359920000000 1.0
C      1  0.4979450000000  0.4542170000000  0.4227700000000 1.0
C      1  0.5420310000000  0.5691240000000  0.4942990000000 1.0
C      1  0.4975640000000  0.5063460000000  0.5361570000000 1.0
C      1  0.5267230000000  0.4374730000000  0.4594630000000 1.0
C      1  0.4608790000000  0.5768320000000  0.4514800000000 1.0
C      1  0.5571470000000  0.5331690000000  0.5329880000000 1.0
C      1  0.5810610000000  0.4435690000000  0.5714150000000 1.0
C      1  0.5374120000000  0.5356270000000  0.4289170000000 1.0
C      1  0.5584310000000  0.4326620000000  0.4939380000000 1.0
C      1  0.5394010000000  0.5117350000000  0.4181430000000 1.0
C      1  0.5343310000000  0.5183990000000  0.4840820000000 1.0
C      1  0.4667500000000  0.4895890000000  0.5112100000000 1.0
C      1  0.4759410000000  0.5226110000000  0.5998970000000 1.0
C      1  0.5154730000000  0.5795950000000  0.4997040000000 1.0
C      1  0.4633040000000  0.5287270000000  0.4698950000000 1.0
C      1  0.4153130000000  0.5156070000000  0.4779500000000 1.0
C      1  0.4197590000000  0.4694570000000  0.4954460000000 1.0
C      1  0.4993760000000  0.5853670000000  0.5251420000000 1.0
C      1  0.4661230000000  0.4342680000000  0.5682060000000 1.0
C      1  0.4687430000000  0.4813920000000  0.4358700000000 1.0
C      1  0.4884620000000  0.5657390000000  0.5704640000000 1.0
C      1  0.4480490000000  0.5525910000000  0.5682590000000 1.0
C      1  0.4998340000000  0.4386930000000  0.5422550000000 1.0
C      1  0.4603330000000  0.5002470000000  0.5682420000000 1.0
C      1  0.4868540000000  0.5110400000000  0.5626740000000 1.0
C      1  0.5588480000000  0.4946090000000  0.5626330000000 1.0
END
