TITL C-884131-4643-429 26.5709643027119 125000 -26373.931210499 0 0 177 (C1) n - 1
REM
REM in /home/nfs/bkarasulu/CARBON/AIRSS/Generating-Clusters/ReaxFF-fromJPCA2015/Units_Real/with-SteepDescent/Only-C1/SD-CG/Try1-3A/FIRE-CG
REM
REM
REM
REM
REM
REM ./C.cell (11c1c37f851c82e70ff6c80c92926a4b)
REM
REM compiler GCC version 9.2.1 20190827 (Red Hat 9.2.1-1)
REM options -cpp -mtune=generic -march=x86-64 -g -O0 -fpre-include=/usr/include/finclude/math-vector-fortran.h
REM seed -1535887483 -1653182695 -1781643200 -856480501 1081394025 1315523140 1420707724 -127507598 -425898685 2010762476 1742953237 -1863367299 473403782 -2021211603 543016111 526227107 -43030216 -2141811316 -2095204447 524008847 -1885536534 -599188036 -312031859 -1751800619 1670989268 -1751060082 648831619 -1973316901 930473879 -239138715 12706793 -515271640 -2070713985
REM
CELL 1.54180   50.00000   50.00000   50.00000   90.00000   90.00000   90.00000
LATT -1
SFAC C  
C      1  0.5642830000000  0.4734760000000  0.4793430000000 1.0
C      1  0.4860390000000  0.5345760000000  0.5007310000000 1.0
C      1  0.4397480000000  0.4916680000000  0.5047990000000 1.0
C      1  0.5615970000000  0.5750660000000  0.4433100000000 1.0
C      1  0.5112850000000  0.5742670000000  0.5182040000000 1.0
C      1  0.5783960000000  0.4896460000000  0.5858650000000 1.0
C      1  0.4718760000000  0.5697780000000  0.4740080000000 1.0
C      1  0.4983150000000  0.4611310000000  0.4272830000000 1.0
C      1  0.4799750000000  0.5667130000000  0.4229220000000 1.0
C      1  0.4569780000000  0.5582460000000  0.5840350000000 1.0
C      1  0.4467360000000  0.5124130000000  0.5621940000000 1.0
C      1  0.4477210000000  0.4531780000000  0.4284760000000 1.0
C      1  0.4664500000000  0.5019600000000  0.5984580000000 1.0
C      1  0.5832780000000  0.4271820000000  0.4546030000000 1.0
C      1  0.3956160000000  0.5286940000000  0.5247430000000 1.0
C      1  0.4924190000000  0.5270450000000  0.3898630000000 1.0
C      1  0.4252620000000  0.5883340000000  0.5214830000000 1.0
C      1  0.5034490000000  0.5975300000000  0.5049070000000 1.0
C      1  0.5936420000000  0.4411020000000  0.5280810000000 1.0
C      1  0.4234010000000  0.4212260000000  0.5214230000000 1.0
C      1  0.5403280000000  0.5128720000000  0.5722370000000 1.0
C      1  0.4397460000000  0.5676320000000  0.5661310000000 1.0
C      1  0.5644980000000  0.5627970000000  0.4714370000000 1.0
C      1  0.4676490000000  0.4833470000000  0.3967690000000 1.0
C      1  0.4597360000000  0.4740380000000  0.5848240000000 1.0
C      1  0.5209330000000  0.4139360000000  0.5451980000000 1.0
C      1  0.5518380000000  0.4212140000000  0.4541280000000 1.0
C      1  0.5465150000000  0.4748810000000  0.5051890000000 1.0
C      1  0.5524060000000  0.5556680000000  0.5704390000000 1.0
C      1  0.5629490000000  0.5326220000000  0.4077510000000 1.0
C      1  0.5055450000000  0.5150210000000  0.5103920000000 1.0
C      1  0.6023450000000  0.5347830000000  0.4727150000000 1.0
C      1  0.5266520000000  0.5019070000000  0.4944670000000 1.0
C      1  0.3916810000000  0.5321050000000  0.4675520000000 1.0
C      1  0.4324610000000  0.4778730000000  0.4255850000000 1.0
C      1  0.5998610000000  0.5047290000000  0.5420080000000 1.0
C      1  0.4491910000000  0.6027990000000  0.4823540000000 1.0
C      1  0.4032870000000  0.4904760000000  0.5377770000000 1.0
C      1  0.4220970000000  0.4883150000000  0.4487420000000 1.0
C      1  0.5598280000000  0.4564440000000  0.4245750000000 1.0
C      1  0.6145740000000  0.4893790000000  0.5165620000000 1.0
C      1  0.4001850000000  0.5387700000000  0.4412800000000 1.0
C      1  0.5301800000000  0.5219640000000  0.5466110000000 1.0
C      1  0.4611840000000  0.4510660000000  0.5195760000000 1.0
C      1  0.4352340000000  0.5108560000000  0.4583460000000 1.0
C      1  0.4475210000000  0.5367950000000  0.5266640000000 1.0
C      1  0.6019360000000  0.5094000000000  0.4673980000000 1.0
C      1  0.4671980000000  0.5952050000000  0.4598770000000 1.0
C      1  0.4944990000000  0.4241930000000  0.4797760000000 1.0
C      1  0.4432570000000  0.5123820000000  0.4847620000000 1.0
C      1  0.5626200000000  0.4793280000000  0.5290610000000 1.0
C      1  0.4574620000000  0.5316080000000  0.5006220000000 1.0
C      1  0.5303830000000  0.5536400000000  0.5898490000000 1.0
C      1  0.4788550000000  0.4734790000000  0.5621310000000 1.0
C      1  0.5257460000000  0.5600160000000  0.4116640000000 1.0
C      1  0.3917250000000  0.5014340000000  0.4777670000000 1.0
C      1  0.5343180000000  0.4477210000000  0.4660430000000 1.0
C      1  0.4247310000000  0.5683620000000  0.4677850000000 1.0
C      1  0.5773780000000  0.5123410000000  0.4481220000000 1.0
C      1  0.6085840000000  0.4630810000000  0.5205380000000 1.0
C      1  0.4197150000000  0.5043780000000  0.5587520000000 1.0
C      1  0.4740890000000  0.5371570000000  0.4117550000000 1.0
C      1  0.4205490000000  0.5705250000000  0.5456380000000 1.0
C      1  0.4687660000000  0.4940830000000  0.5450380000000 1.0
C      1  0.5127420000000  0.5045120000000  0.4275550000000 1.0
C      1  0.5034250000000  0.5578530000000  0.5786100000000 1.0
C      1  0.4916510000000  0.4390470000000  0.5932060000000 1.0
C      1  0.5575790000000  0.4690180000000  0.5932270000000 1.0
C      1  0.4963120000000  0.3894890000000  0.4577960000000 1.0
C      1  0.3937220000000  0.5095930000000  0.5032190000000 1.0
C      1  0.4425910000000  0.4357040000000  0.5380830000000 1.0
C      1  0.4558860000000  0.4799560000000  0.5243310000000 1.0
C      1  0.4909120000000  0.4983650000000  0.3889770000000 1.0
C      1  0.4012770000000  0.5591430000000  0.4816710000000 1.0
C      1  0.4529650000000  0.4269110000000  0.5643210000000 1.0
C      1  0.5136980000000  0.5886770000000  0.4806470000000 1.0
C      1  0.5257800000000  0.4436470000000  0.5435500000000 1.0
C      1  0.5420600000000  0.5486860000000  0.5438290000000 1.0
C      1  0.4260570000000  0.4671960000000  0.5916360000000 1.0
C      1  0.4751100000000  0.4651230000000  0.4730570000000 1.0
C      1  0.5434440000000  0.4048830000000  0.4778110000000 1.0
C      1  0.5780440000000  0.5411280000000  0.5713870000000 1.0
C      1  0.4744330000000  0.3974150000000  0.5278860000000 1.0
C      1  0.3954320000000  0.5146690000000  0.5492750000000 1.0
C      1  0.4898040000000  0.5500230000000  0.4633290000000 1.0
C      1  0.5912410000000  0.4833160000000  0.5616810000000 1.0
C      1  0.4557420000000  0.5259780000000  0.5859520000000 1.0
C      1  0.5153230000000  0.5651140000000  0.4622750000000 1.0
C      1  0.5737150000000  0.5039450000000  0.5271310000000 1.0
C      1  0.4941200000000  0.4729380000000  0.4569140000000 1.0
C      1  0.5145750000000  0.4015530000000  0.4780050000000 1.0
C      1  0.5311510000000  0.5003790000000  0.4486010000000 1.0
C      1  0.4738600000000  0.3879010000000  0.4776430000000 1.0
C      1  0.4579120000000  0.5792250000000  0.4361940000000 1.0
C      1  0.4336480000000  0.5333620000000  0.4371300000000 1.0
C      1  0.4023240000000  0.4560530000000  0.4988570000000 1.0
C      1  0.5278070000000  0.4944910000000  0.5570660000000 1.0
C      1  0.4341300000000  0.4133840000000  0.4950770000000 1.0
C      1  0.5183020000000  0.5037340000000  0.6121680000000 1.0
C      1  0.6066090000000  0.5805100000000  0.4956630000000 1.0
C      1  0.4914140000000  0.4927260000000  0.6106260000000 1.0
C      1  0.5092090000000  0.4982540000000  0.4682350000000 1.0
C      1  0.5403410000000  0.4324930000000  0.4276850000000 1.0
C      1  0.5427540000000  0.5430860000000  0.4707840000000 1.0
C      1  0.5555870000000  0.5797450000000  0.5010490000000 1.0
C      1  0.5840670000000  0.5755600000000  0.5135490000000 1.0
C      1  0.5421250000000  0.5216180000000  0.3902900000000 1.0
C      1  0.4015540000000  0.4766760000000  0.4632020000000 1.0
C      1  0.4714790000000  0.5477460000000  0.5396660000000 1.0
C      1  0.5922670000000  0.4657950000000  0.4792320000000 1.0
C      1  0.5113690000000  0.4331670000000  0.4270800000000 1.0
C      1  0.5585900000000  0.4087980000000  0.5035530000000 1.0
C      1  0.5423460000000  0.4090830000000  0.5266540000000 1.0
C      1  0.4773620000000  0.6002700000000  0.5234170000000 1.0
C      1  0.5584790000000  0.5292850000000  0.6182020000000 1.0
C      1  0.4933120000000  0.4126420000000  0.4382980000000 1.0
C      1  0.5877160000000  0.4431760000000  0.4310920000000 1.0
C      1  0.4476160000000  0.4345660000000  0.4513450000000 1.0
C      1  0.4893610000000  0.5208220000000  0.4629690000000 1.0
C      1  0.5536910000000  0.5580840000000  0.4193230000000 1.0
C      1  0.4289930000000  0.4692920000000  0.4927460000000 1.0
C      1  0.4027480000000  0.4478580000000  0.4706710000000 1.0
C      1  0.4340940000000  0.5627640000000  0.4418180000000 1.0
C      1  0.4094200000000  0.5723100000000  0.5051250000000 1.0
C      1  0.3994840000000  0.4619250000000  0.5459360000000 1.0
C      1  0.5379600000000  0.5670960000000  0.5214690000000 1.0
C      1  0.4267550000000  0.4294420000000  0.4709990000000 1.0
C      1  0.4916050000000  0.5212930000000  0.4348310000000 1.0
C      1  0.4022650000000  0.4413640000000  0.5243170000000 1.0
C      1  0.5071950000000  0.5696590000000  0.4317790000000 1.0
C      1  0.5605640000000  0.4485280000000  0.5744160000000 1.0
C      1  0.4890420000000  0.4309170000000  0.5078820000000 1.0
C      1  0.5342240000000  0.4491660000000  0.5163120000000 1.0
C      1  0.5836920000000  0.5469940000000  0.5235590000000 1.0
C      1  0.5845190000000  0.4252940000000  0.5056040000000 1.0
C      1  0.5300290000000  0.4767470000000  0.6076900000000 1.0
C      1  0.5184560000000  0.5388230000000  0.3917110000000 1.0
C      1  0.4114760000000  0.4624390000000  0.5706310000000 1.0
C      1  0.5660660000000  0.5266040000000  0.5115280000000 1.0
C      1  0.5767530000000  0.4603670000000  0.5483220000000 1.0
C      1  0.4456570000000  0.5733800000000  0.4855050000000 1.0
C      1  0.4913310000000  0.5376260000000  0.5608640000000 1.0
C      1  0.5506240000000  0.5210250000000  0.4542790000000 1.0
C      1  0.5935730000000  0.5350190000000  0.5480480000000 1.0
C      1  0.5619740000000  0.4834840000000  0.4090900000000 1.0
C      1  0.5079750000000  0.4532140000000  0.5052130000000 1.0
C      1  0.4727760000000  0.4070250000000  0.5568110000000 1.0
C      1  0.5396570000000  0.4927240000000  0.3944320000000 1.0
C      1  0.5417310000000  0.5271260000000  0.4955880000000 1.0
C      1  0.5084080000000  0.4673280000000  0.5550520000000 1.0
C      1  0.4503340000000  0.6031820000000  0.5117040000000 1.0
C      1  0.5942500000000  0.4360900000000  0.4806460000000 1.0
C      1  0.4752760000000  0.4254490000000  0.4572590000000 1.0
C      1  0.5042750000000  0.4647760000000  0.6053280000000 1.0
C      1  0.5507440000000  0.5993560000000  0.4558650000000 1.0
C      1  0.5483830000000  0.4709940000000  0.4540710000000 1.0
C      1  0.5682610000000  0.5181970000000  0.5889520000000 1.0
C      1  0.4789480000000  0.5773990000000  0.5752490000000 1.0
C      1  0.4586980000000  0.3968570000000  0.5008380000000 1.0
C      1  0.4547400000000  0.4567400000000  0.4903680000000 1.0
C      1  0.5028300000000  0.4722920000000  0.5262540000000 1.0
C      1  0.4781440000000  0.5901840000000  0.5496190000000 1.0
C      1  0.5005490000000  0.4066270000000  0.5230620000000 1.0
C      1  0.4919300000000  0.4976050000000  0.5271750000000 1.0
C      1  0.4933160000000  0.4187010000000  0.5731570000000 1.0
C      1  0.4895010000000  0.5560000000000  0.5189120000000 1.0
C      1  0.4718610000000  0.4599970000000  0.4138910000000 1.0
C      1  0.5390890000000  0.5984620000000  0.4837420000000 1.0
C      1  0.4476430000000  0.5246680000000  0.4134800000000 1.0
C      1  0.4633020000000  0.4438510000000  0.5872470000000 1.0
C      1  0.5309430000000  0.5324210000000  0.6118120000000 1.0
C      1  0.6100160000000  0.4880780000000  0.4877340000000 1.0
C      1  0.5118990000000  0.4861200000000  0.4056660000000 1.0
C      1  0.5751230000000  0.5080730000000  0.4190720000000 1.0
C      1  0.5951840000000  0.5607140000000  0.4740770000000 1.0
C      1  0.4450290000000  0.4971460000000  0.4081650000000 1.0
C      1  0.4199590000000  0.5428210000000  0.5337960000000 1.0
END
