TITL C-883734-4173-418 24.7075597819122 125000 -22753.658359619 0 0 154 (C1) n - 1
REM
REM in /home/nfs/bkarasulu/CARBON/AIRSS/Generating-Clusters/ReaxFF-fromJPCA2015/Units_Real/with-SteepDescent/Only-C1/SD-CG/Try1-3A/FIRE-CG
REM
REM
REM
REM
REM
REM ./C.cell (11c1c37f851c82e70ff6c80c92926a4b)
REM
REM compiler GCC version 9.2.1 20190827 (Red Hat 9.2.1-1)
REM options -cpp -mtune=generic -march=x86-64 -g -O0 -fpre-include=/usr/include/finclude/math-vector-fortran.h
REM seed 1252507348 -1254372264 -986467868 -529856092 1856187753 -1096716663 143403945 745215405 233672670 966239144 1185843358 1689978230 -2137609333 986901198 -853943783 -1792180134 -615555250 -1712945614 1652175989 -2117969844 2484600 -335026345 -1652777599 -98080539 -107762598 -498013300 723150536 -578603176 1743570215 1256121251 -569330756 -1359399780 964464527
REM
CELL 1.54180   50.00000   50.00000   50.00000   90.00000   90.00000   90.00000
LATT -1
SFAC C  
C      1  0.5427880000000  0.5205980000000  0.4611470000000 1.0
C      1  0.5606050000000  0.4818910000000  0.5331070000000 1.0
C      1  0.5045190000000  0.6046760000000  0.5249380000000 1.0
C      1  0.4558210000000  0.4465400000000  0.4523740000000 1.0
C      1  0.5546420000000  0.5451680000000  0.5069900000000 1.0
C      1  0.4867570000000  0.5107530000000  0.5641820000000 1.0
C      1  0.4807210000000  0.5125090000000  0.4320860000000 1.0
C      1  0.4844770000000  0.5305500000000  0.4067560000000 1.0
C      1  0.5994920000000  0.4835100000000  0.5248710000000 1.0
C      1  0.4068920000000  0.4722350000000  0.5054220000000 1.0
C      1  0.5407390000000  0.5943820000000  0.4579960000000 1.0
C      1  0.5430880000000  0.4352320000000  0.5057980000000 1.0
C      1  0.4894780000000  0.5568180000000  0.4182550000000 1.0
C      1  0.4989480000000  0.5556770000000  0.5307660000000 1.0
C      1  0.5273890000000  0.5013780000000  0.4003740000000 1.0
C      1  0.3982430000000  0.4916860000000  0.4554880000000 1.0
C      1  0.4412370000000  0.5081820000000  0.4198850000000 1.0
C      1  0.4983360000000  0.4078730000000  0.4659280000000 1.0
C      1  0.4084840000000  0.5174340000000  0.4434980000000 1.0
C      1  0.5181510000000  0.5465970000000  0.4221770000000 1.0
C      1  0.5368800000000  0.4538180000000  0.5655980000000 1.0
C      1  0.5562020000000  0.5856420000000  0.5452740000000 1.0
C      1  0.4685790000000  0.4058190000000  0.5488620000000 1.0
C      1  0.5524030000000  0.4495320000000  0.4116350000000 1.0
C      1  0.5659870000000  0.4655980000000  0.5763580000000 1.0
C      1  0.4556860000000  0.5741800000000  0.5420880000000 1.0
C      1  0.4504480000000  0.5455940000000  0.5786510000000 1.0
C      1  0.5323940000000  0.5828700000000  0.5606880000000 1.0
C      1  0.5128300000000  0.5102790000000  0.5464140000000 1.0
C      1  0.4738040000000  0.4515230000000  0.4123710000000 1.0
C      1  0.5532850000000  0.5180780000000  0.5148770000000 1.0
C      1  0.5369510000000  0.4668340000000  0.5386330000000 1.0
C      1  0.4651370000000  0.5207240000000  0.5203890000000 1.0
C      1  0.4451320000000  0.4700200000000  0.5924640000000 1.0
C      1  0.4562080000000  0.5414880000000  0.4747850000000 1.0
C      1  0.4782330000000  0.4753280000000  0.4882880000000 1.0
C      1  0.4278060000000  0.4796840000000  0.5382180000000 1.0
C      1  0.5011770000000  0.5498490000000  0.5002360000000 1.0
C      1  0.5921330000000  0.4666850000000  0.5031920000000 1.0
C      1  0.4892030000000  0.5174550000000  0.5051180000000 1.0
C      1  0.5146370000000  0.4925590000000  0.5957820000000 1.0
C      1  0.5981850000000  0.5051730000000  0.4651010000000 1.0
C      1  0.5429120000000  0.4230720000000  0.5605270000000 1.0
C      1  0.5237090000000  0.4538430000000  0.4128530000000 1.0
C      1  0.5089330000000  0.4957790000000  0.5141160000000 1.0
C      1  0.4335460000000  0.5990430000000  0.5005770000000 1.0
C      1  0.5847160000000  0.4701300000000  0.4285350000000 1.0
C      1  0.5055950000000  0.5403620000000  0.5932460000000 1.0
C      1  0.5783330000000  0.4520490000000  0.4485450000000 1.0
C      1  0.5176670000000  0.5807220000000  0.4474680000000 1.0
C      1  0.5131720000000  0.5269440000000  0.4003590000000 1.0
C      1  0.5342240000000  0.4719030000000  0.4670000000000 1.0
C      1  0.5177120000000  0.4088780000000  0.5536010000000 1.0
C      1  0.4503160000000  0.4104590000000  0.5263380000000 1.0
C      1  0.4710470000000  0.5683140000000  0.4376640000000 1.0
C      1  0.4251370000000  0.4528910000000  0.5780780000000 1.0
C      1  0.4812620000000  0.4738880000000  0.3984590000000 1.0
C      1  0.5520000000000  0.4151600000000  0.4568920000000 1.0
C      1  0.3975600000000  0.4995410000000  0.5070030000000 1.0
C      1  0.5310650000000  0.4957490000000  0.4501420000000 1.0
C      1  0.5707920000000  0.4398700000000  0.4959410000000 1.0
C      1  0.5453720000000  0.5097760000000  0.4893310000000 1.0
C      1  0.4112820000000  0.5520480000000  0.4798050000000 1.0
C      1  0.4753640000000  0.4118800000000  0.4862110000000 1.0
C      1  0.5454120000000  0.5850870000000  0.5056460000000 1.0
C      1  0.4781190000000  0.5033130000000  0.4828680000000 1.0
C      1  0.5657970000000  0.4623650000000  0.4719260000000 1.0
C      1  0.4615620000000  0.5099360000000  0.5474160000000 1.0
C      1  0.4496170000000  0.5375420000000  0.5027830000000 1.0
C      1  0.4435330000000  0.5274670000000  0.6017370000000 1.0
C      1  0.5286040000000  0.5572960000000  0.4624590000000 1.0
C      1  0.4888000000000  0.4395420000000  0.5834440000000 1.0
C      1  0.5975370000000  0.5334640000000  0.5036730000000 1.0
C      1  0.5711050000000  0.5201610000000  0.4292270000000 1.0
C      1  0.4186050000000  0.4556320000000  0.5279760000000 1.0
C      1  0.5893000000000  0.5003800000000  0.4373900000000 1.0
C      1  0.4734660000000  0.4642610000000  0.5900220000000 1.0
C      1  0.5582220000000  0.5091760000000  0.5428590000000 1.0
C      1  0.5732880000000  0.4156830000000  0.4768550000000 1.0
C      1  0.6017360000000  0.5120770000000  0.5258270000000 1.0
C      1  0.4052940000000  0.4335900000000  0.4642010000000 1.0
C      1  0.4079180000000  0.4455770000000  0.5565030000000 1.0
C      1  0.4936450000000  0.6001420000000  0.4785230000000 1.0
C      1  0.5221390000000  0.6070450000000  0.4786960000000 1.0
C      1  0.4231050000000  0.5496160000000  0.5064750000000 1.0
C      1  0.5366650000000  0.5529520000000  0.5616570000000 1.0
C      1  0.5707680000000  0.5823130000000  0.5212400000000 1.0
C      1  0.4574330000000  0.5901150000000  0.5178870000000 1.0
C      1  0.5128090000000  0.4071310000000  0.5250370000000 1.0
C      1  0.5395410000000  0.4965380000000  0.6018760000000 1.0
C      1  0.5681800000000  0.4322640000000  0.5493640000000 1.0
C      1  0.5157770000000  0.4475950000000  0.4412520000000 1.0
C      1  0.4969100000000  0.4698110000000  0.4444390000000 1.0
C      1  0.5775060000000  0.4620240000000  0.5497400000000 1.0
C      1  0.5365430000000  0.5090790000000  0.5640290000000 1.0
C      1  0.4112350000000  0.4991750000000  0.5501700000000 1.0
C      1  0.5813440000000  0.5574180000000  0.5073850000000 1.0
C      1  0.4969900000000  0.4239630000000  0.4423100000000 1.0
C      1  0.4486910000000  0.4400160000000  0.5233620000000 1.0
C      1  0.4828750000000  0.5425430000000  0.5749530000000 1.0
C      1  0.5051220000000  0.4959910000000  0.4388330000000 1.0
C      1  0.4329230000000  0.5104530000000  0.5657130000000 1.0
C      1  0.5657510000000  0.4753200000000  0.4071080000000 1.0
C      1  0.5291090000000  0.4882320000000  0.4903020000000 1.0
C      1  0.3906280000000  0.5066890000000  0.4795120000000 1.0
C      1  0.5561160000000  0.5688180000000  0.4535770000000 1.0
C      1  0.4758110000000  0.4362660000000  0.5021540000000 1.0
C      1  0.5887950000000  0.4811370000000  0.4798760000000 1.0
C      1  0.4646200000000  0.4582140000000  0.5402530000000 1.0
C      1  0.5266610000000  0.4078360000000  0.4728030000000 1.0
C      1  0.4916430000000  0.4501580000000  0.5440630000000 1.0
C      1  0.4159810000000  0.5434290000000  0.5338910000000 1.0
C      1  0.4893470000000  0.5856390000000  0.4534330000000 1.0
C      1  0.5310500000000  0.4088650000000  0.5017550000000 1.0
C      1  0.5071070000000  0.4555420000000  0.5679570000000 1.0
C      1  0.4071350000000  0.4635050000000  0.4564790000000 1.0
C      1  0.4486780000000  0.4053010000000  0.4961160000000 1.0
C      1  0.5630420000000  0.4351680000000  0.4352830000000 1.0
C      1  0.4699090000000  0.4311180000000  0.4312460000000 1.0
C      1  0.4019380000000  0.5176250000000  0.5301120000000 1.0
C      1  0.5554690000000  0.5026910000000  0.4102580000000 1.0
C      1  0.5280750000000  0.6085010000000  0.5070420000000 1.0
C      1  0.4827640000000  0.5992160000000  0.5064000000000 1.0
C      1  0.4369020000000  0.5545520000000  0.5525540000000 1.0
C      1  0.3983330000000  0.5309160000000  0.4669730000000 1.0
C      1  0.4738740000000  0.4652940000000  0.4611860000000 1.0
C      1  0.4223250000000  0.4677200000000  0.4810780000000 1.0
C      1  0.5055460000000  0.5918900000000  0.5511190000000 1.0
C      1  0.5825110000000  0.5033660000000  0.5746400000000 1.0
C      1  0.4325900000000  0.5643870000000  0.4643820000000 1.0
C      1  0.4259930000000  0.4215390000000  0.4826800000000 1.0
C      1  0.5322550000000  0.5600680000000  0.4952540000000 1.0
C      1  0.4684430000000  0.5201720000000  0.4618800000000 1.0
C      1  0.4942780000000  0.4298850000000  0.5241710000000 1.0
C      1  0.5245320000000  0.4560670000000  0.5153830000000 1.0
C      1  0.5115140000000  0.4765580000000  0.3993200000000 1.0
C      1  0.5684370000000  0.5408020000000  0.4534290000000 1.0
C      1  0.4331640000000  0.5954900000000  0.4720150000000 1.0
C      1  0.4437760000000  0.5577420000000  0.4388960000000 1.0
C      1  0.5203280000000  0.5396020000000  0.5413650000000 1.0
C      1  0.4306930000000  0.5317420000000  0.4298460000000 1.0
C      1  0.5330780000000  0.5322070000000  0.5826880000000 1.0
C      1  0.4417790000000  0.4457990000000  0.4775150000000 1.0
C      1  0.5219120000000  0.5349790000000  0.4489810000000 1.0
C      1  0.4983160000000  0.4690070000000  0.5088200000000 1.0
C      1  0.4367210000000  0.4988120000000  0.5919370000000 1.0
C      1  0.4547560000000  0.4846990000000  0.5356830000000 1.0
C      1  0.4838430000000  0.5703380000000  0.5530240000000 1.0
C      1  0.4629320000000  0.4915900000000  0.4160300000000 1.0
C      1  0.4892440000000  0.4901880000000  0.5866000000000 1.0
C      1  0.5674120000000  0.4889290000000  0.5937400000000 1.0
C      1  0.5889730000000  0.5173160000000  0.5518890000000 1.0
C      1  0.5912380000000  0.5311170000000  0.4756050000000 1.0
C      1  0.4907360000000  0.4144950000000  0.5661900000000 1.0
END
