TITL C-883733-4178-102 43.6152055236352 125000 -20250.2876782524 0 0 136 (C1) n - 1
REM
REM in /home/nfs/bkarasulu/CARBON/AIRSS/Generating-Clusters/ReaxFF-fromJPCA2015/Units_Real/with-SteepDescent/Only-C1/SD-CG/Try1-3A/FIRE-CG
REM
REM
REM
REM
REM
REM ./C.cell (11c1c37f851c82e70ff6c80c92926a4b)
REM
REM compiler GCC version 9.2.1 20190827 (Red Hat 9.2.1-1)
REM options -cpp -mtune=generic -march=x86-64 -g -O0 -fpre-include=/usr/include/finclude/math-vector-fortran.h
REM seed 1153750188 -1328551264 -1717958133 1940544469 -1687148955 -855624145 1730596785 1053744679 624410180 1748876518 35322538 -460809790 773223588 -433397685 1164331273 -1803950828 668771961 -1140751912 -1707896822 -418645150 236051880 -1066307053 1321397676 713005492 -1490211210 -581199779 1162672016 141370184 -664362023 -889234 871569881 462169940 -1088332255
REM
CELL 1.54180   50.00000   50.00000   50.00000   90.00000   90.00000   90.00000
LATT -1
SFAC C  
C      1  0.5353130000000  0.4268520000000  0.5278150000000 1.0
C      1  0.4731850000000  0.5257240000000  0.4097600000000 1.0
C      1  0.5535570000000  0.4777350000000  0.4607610000000 1.0
C      1  0.5373520000000  0.4816010000000  0.4873800000000 1.0
C      1  0.4314210000000  0.4213300000000  0.5319100000000 1.0
C      1  0.4893090000000  0.4410470000000  0.5383640000000 1.0
C      1  0.4779440000000  0.4154110000000  0.5285340000000 1.0
C      1  0.5680180000000  0.4354950000000  0.5054440000000 1.0
C      1  0.5342460000000  0.6004830000000  0.5330210000000 1.0
C      1  0.5127100000000  0.4636560000000  0.4545930000000 1.0
C      1  0.5698050000000  0.4349410000000  0.4523870000000 1.0
C      1  0.4443050000000  0.5721110000000  0.4768350000000 1.0
C      1  0.5385350000000  0.4253970000000  0.5759170000000 1.0
C      1  0.4069630000000  0.4743910000000  0.4437070000000 1.0
C      1  0.5874960000000  0.5126840000000  0.5109740000000 1.0
C      1  0.5542230000000  0.5770780000000  0.4601660000000 1.0
C      1  0.5672830000000  0.5332630000000  0.5177070000000 1.0
C      1  0.5415910000000  0.4071130000000  0.5530200000000 1.0
C      1  0.4129190000000  0.4896690000000  0.5035300000000 1.0
C      1  0.4650690000000  0.4332140000000  0.4235620000000 1.0
C      1  0.4993360000000  0.4249480000000  0.4819000000000 1.0
C      1  0.5365940000000  0.5001230000000  0.5937030000000 1.0
C      1  0.4714870000000  0.4828420000000  0.5285080000000 1.0
C      1  0.4291000000000  0.4690330000000  0.4262640000000 1.0
C      1  0.4553950000000  0.6106290000000  0.5327970000000 1.0
C      1  0.4958240000000  0.4900170000000  0.5146650000000 1.0
C      1  0.5573020000000  0.5432370000000  0.5808290000000 1.0
C      1  0.4302770000000  0.4317950000000  0.4605040000000 1.0
C      1  0.4803690000000  0.4127720000000  0.4395450000000 1.0
C      1  0.5750110000000  0.4966810000000  0.5627900000000 1.0
C      1  0.4914780000000  0.5147940000000  0.4634630000000 1.0
C      1  0.4945950000000  0.5100380000000  0.5739340000000 1.0
C      1  0.5830190000000  0.4677330000000  0.5343050000000 1.0
C      1  0.4931330000000  0.4524440000000  0.4889700000000 1.0
C      1  0.4395820000000  0.4420340000000  0.4340610000000 1.0
C      1  0.5149930000000  0.6038400000000  0.4846530000000 1.0
C      1  0.4716170000000  0.5623090000000  0.4399790000000 1.0
C      1  0.5176850000000  0.4052020000000  0.5685190000000 1.0
C      1  0.5209710000000  0.5549310000000  0.4821440000000 1.0
C      1  0.4791320000000  0.4805920000000  0.6065420000000 1.0
C      1  0.4542940000000  0.4799080000000  0.4728510000000 1.0
C      1  0.4525660000000  0.5379850000000  0.5756610000000 1.0
C      1  0.4774880000000  0.5409180000000  0.4616980000000 1.0
C      1  0.4306220000000  0.4372270000000  0.5566170000000 1.0
C      1  0.4911330000000  0.5027560000000  0.4016220000000 1.0
C      1  0.5115110000000  0.4727360000000  0.4815690000000 1.0
C      1  0.4782650000000  0.5951200000000  0.4495760000000 1.0
C      1  0.4758770000000  0.4137700000000  0.4688880000000 1.0
C      1  0.4889350000000  0.5783750000000  0.5433820000000 1.0
C      1  0.4522500000000  0.4667610000000  0.5137920000000 1.0
C      1  0.4445350000000  0.5099710000000  0.5841370000000 1.0
C      1  0.5300030000000  0.5449200000000  0.5921750000000 1.0
C      1  0.5903130000000  0.5011720000000  0.4838130000000 1.0
C      1  0.5835060000000  0.5109970000000  0.4556650000000 1.0
C      1  0.5187550000000  0.4788030000000  0.5319000000000 1.0
C      1  0.5202860000000  0.5371340000000  0.5287700000000 1.0
C      1  0.4926130000000  0.5150040000000  0.4979650000000 1.0
C      1  0.5270730000000  0.4161740000000  0.4761950000000 1.0
C      1  0.5680160000000  0.4681690000000  0.5607650000000 1.0
C      1  0.5805860000000  0.4579930000000  0.4621270000000 1.0
C      1  0.5491580000000  0.5643430000000  0.5613480000000 1.0
C      1  0.5658310000000  0.5412680000000  0.4758280000000 1.0
C      1  0.4635370000000  0.4571740000000  0.4887110000000 1.0
C      1  0.4953510000000  0.4592480000000  0.5988990000000 1.0
C      1  0.4658730000000  0.5955750000000  0.4763560000000 1.0
C      1  0.4345510000000  0.4889330000000  0.5658250000000 1.0
C      1  0.4233570000000  0.4943430000000  0.5414710000000 1.0
C      1  0.4160790000000  0.5350750000000  0.4917880000000 1.0
C      1  0.4858110000000  0.6064820000000  0.4932560000000 1.0
C      1  0.4736470000000  0.4908470000000  0.4551000000000 1.0
C      1  0.4452300000000  0.4904930000000  0.4140550000000 1.0
C      1  0.5382020000000  0.4648160000000  0.4406340000000 1.0
C      1  0.5614920000000  0.4988890000000  0.4408200000000 1.0
C      1  0.4718500000000  0.4457430000000  0.5898550000000 1.0
C      1  0.5235360000000  0.4724390000000  0.5838070000000 1.0
C      1  0.5159270000000  0.5196450000000  0.5942670000000 1.0
C      1  0.4319620000000  0.5360220000000  0.4409090000000 1.0
C      1  0.4281130000000  0.4907150000000  0.4795950000000 1.0
C      1  0.5883660000000  0.4964510000000  0.5359900000000 1.0
C      1  0.5457270000000  0.4540650000000  0.5737640000000 1.0
C      1  0.4833620000000  0.6153690000000  0.5218760000000 1.0
C      1  0.4887360000000  0.4712590000000  0.4395890000000 1.0
C      1  0.5726280000000  0.4639810000000  0.5076810000000 1.0
C      1  0.5113170000000  0.4887180000000  0.5619810000000 1.0
C      1  0.5041320000000  0.6020910000000  0.5388410000000 1.0
C      1  0.5089190000000  0.4076750000000  0.4342380000000 1.0
C      1  0.4428870000000  0.5611710000000  0.4484510000000 1.0
C      1  0.5488110000000  0.4375130000000  0.4352100000000 1.0
C      1  0.4902160000000  0.6137550000000  0.4362040000000 1.0
C      1  0.4720960000000  0.4625830000000  0.5495910000000 1.0
C      1  0.4801320000000  0.4566220000000  0.4150380000000 1.0
C      1  0.5142680000000  0.5442060000000  0.4297050000000 1.0
C      1  0.5894330000000  0.4726400000000  0.4855280000000 1.0
C      1  0.4707940000000  0.4809500000000  0.4020990000000 1.0
C      1  0.4141440000000  0.5268560000000  0.4621330000000 1.0
C      1  0.5684780000000  0.5691490000000  0.4849220000000 1.0
C      1  0.5428120000000  0.5186600000000  0.5237270000000 1.0
C      1  0.4063110000000  0.4485490000000  0.4608400000000 1.0
C      1  0.5814570000000  0.5399460000000  0.4510720000000 1.0
C      1  0.4920810000000  0.3771770000000  0.5328760000000 1.0
C      1  0.5589960000000  0.5138000000000  0.5803300000000 1.0
C      1  0.4485850000000  0.4586000000000  0.5677980000000 1.0
C      1  0.5067250000000  0.5423620000000  0.5043450000000 1.0
C      1  0.5614210000000  0.5577170000000  0.4387800000000 1.0
C      1  0.4711760000000  0.5046210000000  0.5955190000000 1.0
C      1  0.5426800000000  0.5421520000000  0.4220460000000 1.0
C      1  0.4622940000000  0.5447300000000  0.4826040000000 1.0
C      1  0.4758660000000  0.5341850000000  0.5565000000000 1.0
C      1  0.4596110000000  0.5813830000000  0.5379310000000 1.0
C      1  0.5037820000000  0.5529380000000  0.5513880000000 1.0
C      1  0.5618800000000  0.4341650000000  0.5328030000000 1.0
C      1  0.4281880000000  0.5605550000000  0.5003760000000 1.0
C      1  0.5448530000000  0.5119670000000  0.4196750000000 1.0
C      1  0.5179540000000  0.5247300000000  0.4512000000000 1.0
C      1  0.4655150000000  0.5266890000000  0.5048800000000 1.0
C      1  0.4145060000000  0.5144870000000  0.5099510000000 1.0
C      1  0.4426680000000  0.5595270000000  0.5257890000000 1.0
C      1  0.5539020000000  0.5778280000000  0.5358160000000 1.0
C      1  0.5425750000000  0.4898460000000  0.5140590000000 1.0
C      1  0.5448350000000  0.4196640000000  0.4978730000000 1.0
C      1  0.5196310000000  0.5023480000000  0.4082450000000 1.0
C      1  0.4468780000000  0.5186170000000  0.4204410000000 1.0
C      1  0.4256930000000  0.4743220000000  0.5214130000000 1.0
C      1  0.5318290000000  0.5994950000000  0.5060150000000 1.0
C      1  0.4532140000000  0.4151360000000  0.5124110000000 1.0
C      1  0.5222620000000  0.5618470000000  0.5713690000000 1.0
C      1  0.5372770000000  0.5330120000000  0.4716880000000 1.0
C      1  0.5351510000000  0.4132110000000  0.4469800000000 1.0
C      1  0.4876270000000  0.5489030000000  0.4182550000000 1.0
C      1  0.5155670000000  0.4484280000000  0.5322210000000 1.0
C      1  0.4521010000000  0.4247110000000  0.4827510000000 1.0
C      1  0.4938200000000  0.3972570000000  0.5488320000000 1.0
C      1  0.5264240000000  0.5810900000000  0.4690070000000 1.0
C      1  0.5655030000000  0.5627720000000  0.5133950000000 1.0
C      1  0.4581830000000  0.5353480000000  0.5311660000000 1.0
C      1  0.4074490000000  0.4990390000000  0.4596370000000 1.0
END
