TITL C-883729-9652-388 29.8945878635873 125000 -24164.4120622625 0 0 162 (C1) n - 1
REM
REM in /home/nfs/bkarasulu/CARBON/AIRSS/Generating-Clusters/ReaxFF-fromJPCA2015/Units_Real/with-SteepDescent/Only-C1/SD-CG/Try1-3A/FIRE-CG
REM
REM
REM
REM
REM
REM ./C.cell (11c1c37f851c82e70ff6c80c92926a4b)
REM
REM compiler GCC version 9.2.1 20190827 (Red Hat 9.2.1-1)
REM options -cpp -mtune=generic -march=x86-64 -g -O0 -fpre-include=/usr/include/finclude/math-vector-fortran.h
REM seed -71271799 -190395122 -182198815 1180811808 -136854062 1170490264 802562849 856053908 1817365871 1720713160 318189405 1788942671 -773910111 -467590406 933304767 1916568626 -2116404543 -1897961607 1898896449 -178765552 -1792925860 1220037647 1584580219 34025073 15032219 -46306088 -1982832838 -1136329286 2114660515 -527851831 -1941572943 -1252478401 913477577
REM
CELL 1.54180   50.00000   50.00000   50.00000   90.00000   90.00000   90.00000
LATT -1
SFAC C  
C      1  0.5581410000000  0.5150510000000  0.5082930000000 1.0
C      1  0.5248870000000  0.5906300000000  0.5371830000000 1.0
C      1  0.4073220000000  0.5329870000000  0.5565290000000 1.0
C      1  0.5241450000000  0.5536450000000  0.5790510000000 1.0
C      1  0.4043640000000  0.4976630000000  0.4980340000000 1.0
C      1  0.5054690000000  0.5364950000000  0.5933240000000 1.0
C      1  0.5137830000000  0.4670010000000  0.4762570000000 1.0
C      1  0.5647620000000  0.5219130000000  0.4389370000000 1.0
C      1  0.4467950000000  0.5955830000000  0.4742060000000 1.0
C      1  0.4086920000000  0.4706690000000  0.4545110000000 1.0
C      1  0.4481670000000  0.4369940000000  0.4466410000000 1.0
C      1  0.4325540000000  0.5862680000000  0.5175220000000 1.0
C      1  0.4327940000000  0.4289600000000  0.4963320000000 1.0
C      1  0.5134750000000  0.4088950000000  0.4487220000000 1.0
C      1  0.4005320000000  0.5233600000000  0.4845680000000 1.0
C      1  0.5116500000000  0.5512850000000  0.3962660000000 1.0
C      1  0.4943860000000  0.4819650000000  0.4504910000000 1.0
C      1  0.4330640000000  0.4598410000000  0.5674030000000 1.0
C      1  0.4392270000000  0.4992730000000  0.5380320000000 1.0
C      1  0.4136540000000  0.4834660000000  0.5672700000000 1.0
C      1  0.3982510000000  0.4763630000000  0.5429850000000 1.0
C      1  0.5859800000000  0.5183770000000  0.4209010000000 1.0
C      1  0.4045090000000  0.4979690000000  0.4509190000000 1.0
C      1  0.5922880000000  0.4815550000000  0.5192650000000 1.0
C      1  0.5256130000000  0.5287240000000  0.4720410000000 1.0
C      1  0.6022950000000  0.4683470000000  0.5431990000000 1.0
C      1  0.5574510000000  0.4915770000000  0.5901790000000 1.0
C      1  0.5029900000000  0.5024990000000  0.5102780000000 1.0
C      1  0.4850500000000  0.5394170000000  0.5749640000000 1.0
C      1  0.4897360000000  0.5323080000000  0.4070590000000 1.0
C      1  0.4291570000000  0.4425460000000  0.5446020000000 1.0
C      1  0.4957010000000  0.4568210000000  0.5209520000000 1.0
C      1  0.5692650000000  0.4455690000000  0.4198080000000 1.0
C      1  0.5667870000000  0.4416680000000  0.5672660000000 1.0
C      1  0.6017720000000  0.5142780000000  0.4901840000000 1.0
C      1  0.5030210000000  0.5823160000000  0.4338210000000 1.0
C      1  0.5508830000000  0.4294940000000  0.4333490000000 1.0
C      1  0.5202860000000  0.4895540000000  0.3947890000000 1.0
C      1  0.5503030000000  0.4111370000000  0.4836920000000 1.0
C      1  0.4980770000000  0.5302720000000  0.4380140000000 1.0
C      1  0.4753080000000  0.5629880000000  0.4787010000000 1.0
C      1  0.5421060000000  0.4735900000000  0.5227580000000 1.0
C      1  0.4655040000000  0.5512810000000  0.4146500000000 1.0
C      1  0.4612620000000  0.5279270000000  0.4495760000000 1.0
C      1  0.4058060000000  0.4714060000000  0.4844440000000 1.0
C      1  0.4808380000000  0.3974270000000  0.5062550000000 1.0
C      1  0.6129170000000  0.4895490000000  0.5626640000000 1.0
C      1  0.4017640000000  0.5245020000000  0.4541610000000 1.0
C      1  0.5166310000000  0.4770890000000  0.5067230000000 1.0
C      1  0.5344690000000  0.3989310000000  0.5130230000000 1.0
C      1  0.4550910000000  0.4574460000000  0.5861770000000 1.0
C      1  0.5208960000000  0.5396590000000  0.5317260000000 1.0
C      1  0.4605780000000  0.5491380000000  0.5806930000000 1.0
C      1  0.4320560000000  0.4612630000000  0.4388060000000 1.0
C      1  0.4574060000000  0.5094020000000  0.5591920000000 1.0
C      1  0.4693730000000  0.4097140000000  0.5300040000000 1.0
C      1  0.5459880000000  0.4891860000000  0.4059260000000 1.0
C      1  0.5127260000000  0.5932510000000  0.4591270000000 1.0
C      1  0.5457780000000  0.5504550000000  0.5228380000000 1.0
C      1  0.4634840000000  0.4774320000000  0.6077740000000 1.0
C      1  0.4290970000000  0.5486920000000  0.5423910000000 1.0
C      1  0.5958590000000  0.4275590000000  0.5038870000000 1.0
C      1  0.5382730000000  0.5044310000000  0.4290280000000 1.0
C      1  0.3990430000000  0.5457440000000  0.5047050000000 1.0
C      1  0.5079430000000  0.3872450000000  0.5142760000000 1.0
C      1  0.4888220000000  0.5886510000000  0.5568400000000 1.0
C      1  0.4817480000000  0.4453040000000  0.5878710000000 1.0
C      1  0.5722410000000  0.4715900000000  0.4093970000000 1.0
C      1  0.4562620000000  0.4940210000000  0.5214260000000 1.0
C      1  0.4151660000000  0.5699830000000  0.5005510000000 1.0
C      1  0.5221840000000  0.5438310000000  0.4485430000000 1.0
C      1  0.4726740000000  0.4318300000000  0.4346830000000 1.0
C      1  0.5087690000000  0.5128400000000  0.5391210000000 1.0
C      1  0.4711880000000  0.4512700000000  0.5095810000000 1.0
C      1  0.5126460000000  0.4382480000000  0.4833720000000 1.0
C      1  0.5153780000000  0.5780640000000  0.5625300000000 1.0
C      1  0.4973990000000  0.5092350000000  0.6027160000000 1.0
C      1  0.4536300000000  0.6008630000000  0.5013800000000 1.0
C      1  0.4101170000000  0.4968820000000  0.5269580000000 1.0
C      1  0.5518480000000  0.5162090000000  0.4800180000000 1.0
C      1  0.5482660000000  0.5388050000000  0.5734320000000 1.0
C      1  0.5667250000000  0.5397160000000  0.4181710000000 1.0
C      1  0.5011200000000  0.5230880000000  0.4871660000000 1.0
C      1  0.5582500000000  0.4890570000000  0.4654110000000 1.0
C      1  0.4828160000000  0.6029210000000  0.5043600000000 1.0
C      1  0.5348970000000  0.4050340000000  0.5418110000000 1.0
C      1  0.5069960000000  0.4514850000000  0.4200860000000 1.0
C      1  0.5646160000000  0.4903380000000  0.5177720000000 1.0
C      1  0.4691000000000  0.5052790000000  0.6025660000000 1.0
C      1  0.5109540000000  0.4825900000000  0.6061380000000 1.0
C      1  0.5082610000000  0.3922540000000  0.5442010000000 1.0
C      1  0.4907490000000  0.4762550000000  0.4193320000000 1.0
C      1  0.5233760000000  0.5698320000000  0.4152020000000 1.0
C      1  0.4687630000000  0.5156950000000  0.4759590000000 1.0
C      1  0.4707870000000  0.5870220000000  0.4612010000000 1.0
C      1  0.4360110000000  0.5769310000000  0.5448580000000 1.0
C      1  0.4756700000000  0.5734290000000  0.4300640000000 1.0
C      1  0.4482430000000  0.4310340000000  0.5229840000000 1.0
C      1  0.4743740000000  0.4087110000000  0.4803220000000 1.0
C      1  0.4624220000000  0.5705160000000  0.5597580000000 1.0
C      1  0.4978930000000  0.5545110000000  0.5215630000000 1.0
C      1  0.5330520000000  0.4543620000000  0.4342230000000 1.0
C      1  0.5893100000000  0.5369510000000  0.5449600000000 1.0
C      1  0.4495030000000  0.4230140000000  0.4739020000000 1.0
C      1  0.5412160000000  0.5864180000000  0.4700760000000 1.0
C      1  0.4495070000000  0.5275770000000  0.4966870000000 1.0
C      1  0.4753740000000  0.4905550000000  0.5067260000000 1.0
C      1  0.5875400000000  0.4430160000000  0.5491840000000 1.0
C      1  0.5765340000000  0.4342580000000  0.5224240000000 1.0
C      1  0.5896730000000  0.5386470000000  0.4893940000000 1.0
C      1  0.5843220000000  0.4823890000000  0.4538290000000 1.0
C      1  0.5723390000000  0.5373970000000  0.5172050000000 1.0
C      1  0.5468270000000  0.5071320000000  0.5695970000000 1.0
C      1  0.5377520000000  0.4707020000000  0.4588850000000 1.0
C      1  0.5704020000000  0.5420780000000  0.4674410000000 1.0
C      1  0.5584380000000  0.5671850000000  0.4573520000000 1.0
C      1  0.4192350000000  0.5117370000000  0.5731890000000 1.0
C      1  0.4429170000000  0.4819510000000  0.4216080000000 1.0
C      1  0.4181160000000  0.5419740000000  0.4336990000000 1.0
C      1  0.5118670000000  0.5043960000000  0.4414410000000 1.0
C      1  0.6009310000000  0.5149990000000  0.5540520000000 1.0
C      1  0.5285230000000  0.4897440000000  0.5512520000000 1.0
C      1  0.4922400000000  0.6011120000000  0.4764650000000 1.0
C      1  0.5742670000000  0.5515260000000  0.5666980000000 1.0
C      1  0.4711570000000  0.4876960000000  0.4674450000000 1.0
C      1  0.4393020000000  0.5479060000000  0.4513660000000 1.0
C      1  0.4894900000000  0.4630510000000  0.6099830000000 1.0
C      1  0.4977980000000  0.4239300000000  0.4271450000000 1.0
C      1  0.4974630000000  0.5519540000000  0.4926600000000 1.0
C      1  0.5509530000000  0.4462710000000  0.5152040000000 1.0
C      1  0.4573870000000  0.5057710000000  0.4301550000000 1.0
C      1  0.5279500000000  0.4255600000000  0.5641750000000 1.0
C      1  0.4707980000000  0.5543500000000  0.5333020000000 1.0
C      1  0.4507690000000  0.5362240000000  0.5245640000000 1.0
C      1  0.5477170000000  0.5575740000000  0.4318610000000 1.0
C      1  0.4061430000000  0.4508430000000  0.5299410000000 1.0
C      1  0.4895460000000  0.4140820000000  0.5496920000000 1.0
C      1  0.5013910000000  0.4409990000000  0.5645660000000 1.0
C      1  0.4972870000000  0.5994270000000  0.5305020000000 1.0
C      1  0.6083370000000  0.4873450000000  0.4942280000000 1.0
C      1  0.5411390000000  0.4107290000000  0.4542280000000 1.0
C      1  0.4509280000000  0.5552050000000  0.4889600000000 1.0
C      1  0.3899300000000  0.5371850000000  0.5323020000000 1.0
C      1  0.5323870000000  0.4697740000000  0.5906200000000 1.0
C      1  0.5447430000000  0.4403740000000  0.5825990000000 1.0
C      1  0.5798470000000  0.4174390000000  0.4846680000000 1.0
C      1  0.4994510000000  0.4174390000000  0.4709050000000 1.0
C      1  0.5382510000000  0.4344340000000  0.4936960000000 1.0
C      1  0.4396290000000  0.5090030000000  0.4082490000000 1.0
C      1  0.5438440000000  0.5785600000000  0.5184660000000 1.0
C      1  0.4107480000000  0.4475960000000  0.5006730000000 1.0
C      1  0.5166330000000  0.4691840000000  0.5674170000000 1.0
C      1  0.4635840000000  0.4704710000000  0.4883280000000 1.0
C      1  0.4948760000000  0.4993540000000  0.4020110000000 1.0
C      1  0.5889050000000  0.4896110000000  0.4252240000000 1.0
C      1  0.4841480000000  0.5181250000000  0.5560840000000 1.0
C      1  0.5441970000000  0.5823710000000  0.4928790000000 1.0
C      1  0.4481350000000  0.5223420000000  0.5844660000000 1.0
C      1  0.4297070000000  0.5717910000000  0.4741310000000 1.0
C      1  0.5983630000000  0.4394520000000  0.4780270000000 1.0
C      1  0.4378230000000  0.5383740000000  0.4114680000000 1.0
C      1  0.6015230000000  0.4677200000000  0.4728300000000 1.0
END
