TITL C-884138-6203-241 66.3485417503406 125000 -12322.3900874081 0 0 82 (C1) n - 1
REM
REM in /home/nfs/bkarasulu/CARBON/AIRSS/Generating-Clusters/ReaxFF-fromJPCA2015/Units_Real/with-SteepDescent/Only-C1/SD-CG/Try1-3A/FIRE-CG
REM
REM
REM
REM
REM
REM ./C.cell (11c1c37f851c82e70ff6c80c92926a4b)
REM
REM compiler GCC version 9.2.1 20190827 (Red Hat 9.2.1-1)
REM options -cpp -mtune=generic -march=x86-64 -g -O0 -fpre-include=/usr/include/finclude/math-vector-fortran.h
REM seed 1905817524 383253805 1085365531 1341341771 1427680709 -1514563968 -48337793 -706404978 1893499795 985148023 288044655 902555612 1086270509 -1075270390 -1945579547 -1740541725 -513183926 -1963216220 1191042380 1603710090 1094216440 -691326482 -2137160461 590913376 -902333899 -1056386287 936227630 1470866266 -258855375 1661492541 1657128226 -139138573 719898030
REM
CELL 1.54180   50.00000   50.00000   50.00000   90.00000   90.00000   90.00000
LATT -1
SFAC C  
C      1  0.4464780000000  0.4993290000000  0.5316340000000 1.0
C      1  0.5489380000000  0.4353730000000  0.5424150000000 1.0
C      1  0.5137420000000  0.4857520000000  0.5061390000000 1.0
C      1  0.5741040000000  0.4931070000000  0.5233980000000 1.0
C      1  0.4552160000000  0.5448410000000  0.5353730000000 1.0
C      1  0.4215360000000  0.5093900000000  0.4767250000000 1.0
C      1  0.5099940000000  0.4293820000000  0.4858920000000 1.0
C      1  0.5456710000000  0.5594920000000  0.5431300000000 1.0
C      1  0.4947040000000  0.5571720000000  0.5537160000000 1.0
C      1  0.4916390000000  0.4646770000000  0.5657020000000 1.0
C      1  0.4707740000000  0.4165770000000  0.4857670000000 1.0
C      1  0.4394180000000  0.5402430000000  0.4488820000000 1.0
C      1  0.4680030000000  0.4825230000000  0.5652320000000 1.0
C      1  0.5297230000000  0.5274420000000  0.5737650000000 1.0
C      1  0.5573200000000  0.5220330000000  0.5655520000000 1.0
C      1  0.5249330000000  0.4985080000000  0.5273730000000 1.0
C      1  0.5121010000000  0.5771100000000  0.4784810000000 1.0
C      1  0.5363390000000  0.4283860000000  0.4973300000000 1.0
C      1  0.5154460000000  0.4801690000000  0.5708410000000 1.0
C      1  0.4660570000000  0.4562190000000  0.5234180000000 1.0
C      1  0.5526280000000  0.4926500000000  0.4691860000000 1.0
C      1  0.5533620000000  0.4740560000000  0.4445370000000 1.0
C      1  0.5550700000000  0.4518700000000  0.4615140000000 1.0
C      1  0.4646700000000  0.5490640000000  0.4401420000000 1.0
C      1  0.5242130000000  0.4249990000000  0.5493560000000 1.0
C      1  0.4910660000000  0.5560920000000  0.4407640000000 1.0
C      1  0.4520810000000  0.4290990000000  0.4748400000000 1.0
C      1  0.4372380000000  0.4581740000000  0.5273270000000 1.0
C      1  0.5378230000000  0.4175550000000  0.5245370000000 1.0
C      1  0.5631510000000  0.4699630000000  0.5096810000000 1.0
C      1  0.4416380000000  0.4775490000000  0.5506600000000 1.0
C      1  0.4320440000000  0.5111450000000  0.4495940000000 1.0
C      1  0.4957590000000  0.4892540000000  0.4113310000000 1.0
C      1  0.5133930000000  0.5319080000000  0.4385120000000 1.0
C      1  0.5131620000000  0.5126600000000  0.4145580000000 1.0
C      1  0.4985150000000  0.4388990000000  0.5514280000000 1.0
C      1  0.4818250000000  0.5391560000000  0.4893770000000 1.0
C      1  0.4911330000000  0.4162660000000  0.5044950000000 1.0
C      1  0.4533410000000  0.4625730000000  0.4496290000000 1.0
C      1  0.5048260000000  0.5425580000000  0.5054930000000 1.0
C      1  0.4263980000000  0.5317400000000  0.4957830000000 1.0
C      1  0.5580250000000  0.4476400000000  0.4891450000000 1.0
C      1  0.5414520000000  0.5719600000000  0.5176270000000 1.0
C      1  0.4895210000000  0.5746270000000  0.5306850000000 1.0
C      1  0.5058320000000  0.4791720000000  0.4633940000000 1.0
C      1  0.5686640000000  0.4940400000000  0.5554990000000 1.0
C      1  0.5146150000000  0.5227920000000  0.5210610000000 1.0
C      1  0.4384510000000  0.5500500000000  0.4771030000000 1.0
C      1  0.5373970000000  0.4825780000000  0.5496590000000 1.0
C      1  0.4713690000000  0.4856960000000  0.5253320000000 1.0
C      1  0.5267490000000  0.4868470000000  0.4817010000000 1.0
C      1  0.5028200000000  0.4621500000000  0.4244480000000 1.0
C      1  0.4654570000000  0.5665580000000  0.5184720000000 1.0
C      1  0.4677650000000  0.4945740000000  0.4863390000000 1.0
C      1  0.5565830000000  0.5215830000000  0.4691950000000 1.0
C      1  0.5655680000000  0.5378630000000  0.5432560000000 1.0
C      1  0.5376210000000  0.5388950000000  0.4555550000000 1.0
C      1  0.4640600000000  0.5635410000000  0.4871620000000 1.0
C      1  0.5668480000000  0.5350120000000  0.4935890000000 1.0
C      1  0.5730660000000  0.5220850000000  0.5187620000000 1.0
C      1  0.4810030000000  0.4522390000000  0.4439300000000 1.0
C      1  0.5505090000000  0.4618480000000  0.5340380000000 1.0
C      1  0.4360110000000  0.4510360000000  0.4717210000000 1.0
C      1  0.5229150000000  0.5523240000000  0.5607960000000 1.0
C      1  0.5124760000000  0.5749300000000  0.5096520000000 1.0
C      1  0.4981960000000  0.4519750000000  0.4675390000000 1.0
C      1  0.5079990000000  0.5071330000000  0.5768590000000 1.0
C      1  0.5296580000000  0.4627880000000  0.4326020000000 1.0
C      1  0.5369720000000  0.5637220000000  0.4706520000000 1.0
C      1  0.5548570000000  0.5616600000000  0.4940490000000 1.0
C      1  0.4798130000000  0.5096550000000  0.5683770000000 1.0
C      1  0.4488160000000  0.4894870000000  0.4384620000000 1.0
C      1  0.4368600000000  0.5259820000000  0.5231520000000 1.0
C      1  0.4742460000000  0.4999750000000  0.4280720000000 1.0
C      1  0.4769830000000  0.5170870000000  0.4718250000000 1.0
C      1  0.4880210000000  0.5726210000000  0.4644770000000 1.0
C      1  0.4831890000000  0.4326490000000  0.5285380000000 1.0
C      1  0.4293090000000  0.4628060000000  0.4994310000000 1.0
C      1  0.4937160000000  0.5056950000000  0.4508200000000 1.0
C      1  0.4386030000000  0.4889200000000  0.4903610000000 1.0
C      1  0.4881280000000  0.4966360000000  0.5067880000000 1.0
C      1  0.4743850000000  0.5362140000000  0.5563670000000 1.0
END
