TITL C-883733-4178-392 108.240432549752 125000 -26588.2609543001 0 0 178 (C1) n - 1
REM
REM in /home/nfs/bkarasulu/CARBON/AIRSS/Generating-Clusters/ReaxFF-fromJPCA2015/Units_Real/with-SteepDescent/Only-C1/SD-CG/Try1-3A/FIRE-CG
REM
REM
REM
REM
REM
REM ./C.cell (11c1c37f851c82e70ff6c80c92926a4b)
REM
REM compiler GCC version 9.2.1 20190827 (Red Hat 9.2.1-1)
REM options -cpp -mtune=generic -march=x86-64 -g -O0 -fpre-include=/usr/include/finclude/math-vector-fortran.h
REM seed -1042136470 1337284769 1139799819 137885018 1400323835 -330849188 -316950066 -1145029239 -119881944 1971415436 1396183781 1938031212 -871633252 1035322127 1643624629 -682222114 1170280216 -1542149459 1105098633 42198083 977200448 1430252841 797044634 -1587590815 -2105386268 813048775 548149330 -664291866 167354837 794959677 731142355 -802851538 -320212712
REM
CELL 1.54180   50.00000   50.00000   50.00000   90.00000   90.00000   90.00000
LATT -1
SFAC C  
C      1  0.4643390000000  0.4931030000000  0.4877990000000 1.0
C      1  0.4603670000000  0.4717910000000  0.4314230000000 1.0
C      1  0.5197080000000  0.5697370000000  0.4516340000000 1.0
C      1  0.5785440000000  0.4194140000000  0.4946690000000 1.0
C      1  0.4083330000000  0.5373370000000  0.5525840000000 1.0
C      1  0.5325030000000  0.4430790000000  0.5843300000000 1.0
C      1  0.6052950000000  0.4859800000000  0.5266820000000 1.0
C      1  0.4584120000000  0.5509510000000  0.4868440000000 1.0
C      1  0.5024830000000  0.5010490000000  0.3804870000000 1.0
C      1  0.5588960000000  0.5388810000000  0.4670950000000 1.0
C      1  0.5215470000000  0.5371000000000  0.6018540000000 1.0
C      1  0.4884070000000  0.4086780000000  0.5590970000000 1.0
C      1  0.4288770000000  0.5102970000000  0.5780610000000 1.0
C      1  0.5978290000000  0.5020540000000  0.5497080000000 1.0
C      1  0.3988650000000  0.5490280000000  0.4728480000000 1.0
C      1  0.4042150000000  0.4623930000000  0.5256720000000 1.0
C      1  0.4423090000000  0.4930230000000  0.4189190000000 1.0
C      1  0.4216430000000  0.5639240000000  0.5457770000000 1.0
C      1  0.5952220000000  0.5331160000000  0.5199300000000 1.0
C      1  0.4623930000000  0.4743100000000  0.5974360000000 1.0
C      1  0.5110670000000  0.5249940000000  0.5145650000000 1.0
C      1  0.5181450000000  0.5052090000000  0.5329010000000 1.0
C      1  0.4416280000000  0.4605040000000  0.5014300000000 1.0
C      1  0.4250180000000  0.5030660000000  0.4712610000000 1.0
C      1  0.4084990000000  0.4503260000000  0.4978660000000 1.0
C      1  0.3869250000000  0.5069610000000  0.5090080000000 1.0
C      1  0.4646280000000  0.4170620000000  0.4997340000000 1.0
C      1  0.5853850000000  0.4367960000000  0.4507640000000 1.0
C      1  0.4924460000000  0.5805290000000  0.4965120000000 1.0
C      1  0.4618710000000  0.5880730000000  0.5335770000000 1.0
C      1  0.5502410000000  0.5714400000000  0.5573470000000 1.0
C      1  0.3973850000000  0.5330710000000  0.4984310000000 1.0
C      1  0.4840110000000  0.5261430000000  0.5086100000000 1.0
C      1  0.5382830000000  0.3917150000000  0.5086110000000 1.0
C      1  0.5993770000000  0.4559460000000  0.4682570000000 1.0
C      1  0.3964460000000  0.5307260000000  0.4502670000000 1.0
C      1  0.4936510000000  0.5108200000000  0.4198710000000 1.0
C      1  0.5128630000000  0.4419650000000  0.4802530000000 1.0
C      1  0.4171860000000  0.4455840000000  0.5463240000000 1.0
C      1  0.3935330000000  0.5013850000000  0.4603750000000 1.0
C      1  0.4919850000000  0.5383910000000  0.4688410000000 1.0
C      1  0.4320070000000  0.5820550000000  0.4944080000000 1.0
C      1  0.3798720000000  0.4910380000000  0.4854590000000 1.0
C      1  0.5153340000000  0.4646830000000  0.4146850000000 1.0
C      1  0.4865930000000  0.4641730000000  0.5543800000000 1.0
C      1  0.4604330000000  0.5808870000000  0.4837560000000 1.0
C      1  0.5192930000000  0.6106290000000  0.4781670000000 1.0
C      1  0.5687160000000  0.5434380000000  0.5164760000000 1.0
C      1  0.5693520000000  0.4561750000000  0.5675530000000 1.0
C      1  0.4613070000000  0.5743390000000  0.5782550000000 1.0
C      1  0.5385080000000  0.4726720000000  0.3983470000000 1.0
C      1  0.5992280000000  0.5610990000000  0.4767170000000 1.0
C      1  0.3938130000000  0.4716700000000  0.4508800000000 1.0
C      1  0.4688520000000  0.4348240000000  0.4194780000000 1.0
C      1  0.4699380000000  0.5247240000000  0.6027540000000 1.0
C      1  0.4523370000000  0.5022610000000  0.5940190000000 1.0
C      1  0.5685150000000  0.5899280000000  0.4772000000000 1.0
C      1  0.4976880000000  0.4848580000000  0.4039880000000 1.0
C      1  0.5487860000000  0.5525510000000  0.5357240000000 1.0
C      1  0.5781740000000  0.5762390000000  0.5516100000000 1.0
C      1  0.5316610000000  0.4991690000000  0.3871900000000 1.0
C      1  0.5630860000000  0.4211760000000  0.5437030000000 1.0
C      1  0.4359240000000  0.4099580000000  0.5084070000000 1.0
C      1  0.5699540000000  0.5063580000000  0.5550620000000 1.0
C      1  0.6121780000000  0.5049540000000  0.4784750000000 1.0
C      1  0.4242870000000  0.5226630000000  0.4971740000000 1.0
C      1  0.5663000000000  0.4510390000000  0.4339000000000 1.0
C      1  0.4818460000000  0.5199690000000  0.3925790000000 1.0
C      1  0.4635830000000  0.5238400000000  0.5270160000000 1.0
C      1  0.4869670000000  0.5409060000000  0.5633390000000 1.0
C      1  0.4669980000000  0.4452370000000  0.4931030000000 1.0
C      1  0.4753610000000  0.5506710000000  0.5886770000000 1.0
C      1  0.5675920000000  0.4654780000000  0.5089240000000 1.0
C      1  0.4250000000000  0.4251230000000  0.4854540000000 1.0
C      1  0.4736810000000  0.4846930000000  0.5141230000000 1.0
C      1  0.4836370000000  0.5721050000000  0.5229310000000 1.0
C      1  0.5471450000000  0.4987560000000  0.5328150000000 1.0
C      1  0.5485890000000  0.5042420000000  0.5034220000000 1.0
C      1  0.5139200000000  0.4208740000000  0.5532580000000 1.0
C      1  0.5545440000000  0.5300810000000  0.4944270000000 1.0
C      1  0.4542340000000  0.5609960000000  0.4274970000000 1.0
C      1  0.5309990000000  0.3899470000000  0.4804180000000 1.0
C      1  0.4820880000000  0.4378170000000  0.5718440000000 1.0
C      1  0.4155080000000  0.4599330000000  0.4353120000000 1.0
C      1  0.5041780000000  0.4841580000000  0.5174340000000 1.0
C      1  0.4883150000000  0.4568710000000  0.4775660000000 1.0
C      1  0.5981070000000  0.4419040000000  0.4942310000000 1.0
C      1  0.5023180000000  0.3847120000000  0.4870810000000 1.0
C      1  0.5822980000000  0.4427400000000  0.5471250000000 1.0
C      1  0.5050750000000  0.4606550000000  0.5335960000000 1.0
C      1  0.4168080000000  0.5295570000000  0.4294140000000 1.0
C      1  0.4146860000000  0.5084280000000  0.5507860000000 1.0
C      1  0.5505110000000  0.4703360000000  0.5310700000000 1.0
C      1  0.5688020000000  0.4984290000000  0.4163230000000 1.0
C      1  0.4539550000000  0.4546410000000  0.4079040000000 1.0
C      1  0.4762960000000  0.5912230000000  0.5586460000000 1.0
C      1  0.4553630000000  0.4523980000000  0.5793220000000 1.0
C      1  0.5363510000000  0.4931920000000  0.5900890000000 1.0
C      1  0.4204530000000  0.5386960000000  0.5796610000000 1.0
C      1  0.5100960000000  0.5542210000000  0.4281140000000 1.0
C      1  0.4341460000000  0.5648840000000  0.5721300000000 1.0
C      1  0.4835160000000  0.5677680000000  0.4258260000000 1.0
C      1  0.4751140000000  0.5153990000000  0.5537000000000 1.0
C      1  0.4274610000000  0.4674260000000  0.4101130000000 1.0
C      1  0.5500070000000  0.4672770000000  0.5854750000000 1.0
C      1  0.5867420000000  0.5820740000000  0.4981180000000 1.0
C      1  0.4403980000000  0.5396030000000  0.4131640000000 1.0
C      1  0.4398690000000  0.4565950000000  0.4532770000000 1.0
C      1  0.4779160000000  0.4000290000000  0.4799010000000 1.0
C      1  0.4412410000000  0.4789220000000  0.4789170000000 1.0
C      1  0.4437850000000  0.5402420000000  0.5106310000000 1.0
C      1  0.4671240000000  0.4118590000000  0.4550890000000 1.0
C      1  0.4014490000000  0.4913600000000  0.5303290000000 1.0
C      1  0.4839410000000  0.4890980000000  0.4695550000000 1.0
C      1  0.4592600000000  0.5931370000000  0.4553260000000 1.0
C      1  0.5434850000000  0.5147240000000  0.4087380000000 1.0
C      1  0.5608300000000  0.4091280000000  0.5166550000000 1.0
C      1  0.5451980000000  0.6037350000000  0.4897190000000 1.0
C      1  0.4377130000000  0.5761170000000  0.4472110000000 1.0
C      1  0.4845600000000  0.5927850000000  0.4403540000000 1.0
C      1  0.4319090000000  0.5095780000000  0.4429710000000 1.0
C      1  0.4980130000000  0.5196120000000  0.6065190000000 1.0
C      1  0.5950170000000  0.4574000000000  0.5205480000000 1.0
C      1  0.6017060000000  0.4846600000000  0.4597150000000 1.0
C      1  0.5306610000000  0.4840320000000  0.4922450000000 1.0
C      1  0.4830130000000  0.4848080000000  0.4409870000000 1.0
C      1  0.5723160000000  0.5853460000000  0.5234680000000 1.0
C      1  0.3900440000000  0.4642860000000  0.4789270000000 1.0
C      1  0.5067380000000  0.5625560000000  0.4762990000000 1.0
C      1  0.6057130000000  0.5073290000000  0.5077040000000 1.0
C      1  0.5640160000000  0.5129790000000  0.4548840000000 1.0
C      1  0.5055080000000  0.4935800000000  0.5917780000000 1.0
C      1  0.5263660000000  0.5835510000000  0.5716050000000 1.0
C      1  0.5057390000000  0.6057880000000  0.5031550000000 1.0
C      1  0.5664850000000  0.5285760000000  0.5729390000000 1.0
C      1  0.4982050000000  0.5575640000000  0.5422630000000 1.0
C      1  0.4546250000000  0.5174800000000  0.4012980000000 1.0
C      1  0.4719990000000  0.5296010000000  0.4826120000000 1.0
C      1  0.5856070000000  0.5498610000000  0.5635060000000 1.0
C      1  0.5201710000000  0.5654900000000  0.5942400000000 1.0
C      1  0.5407620000000  0.4231750000000  0.5640780000000 1.0
C      1  0.5036980000000  0.4456650000000  0.5918490000000 1.0
C      1  0.4529630000000  0.4703310000000  0.5282340000000 1.0
C      1  0.4842170000000  0.4159610000000  0.4322540000000 1.0
C      1  0.5051050000000  0.4217720000000  0.5260250000000 1.0
C      1  0.4195050000000  0.5703310000000  0.4708870000000 1.0
C      1  0.5076210000000  0.4689050000000  0.4427450000000 1.0
C      1  0.5446190000000  0.5203610000000  0.5914300000000 1.0
C      1  0.5093620000000  0.3838880000000  0.5154840000000 1.0
C      1  0.5708870000000  0.4168630000000  0.4669300000000 1.0
C      1  0.4908610000000  0.4688370000000  0.6029560000000 1.0
C      1  0.5216460000000  0.5457310000000  0.5304820000000 1.0
C      1  0.5031470000000  0.5117650000000  0.4683010000000 1.0
C      1  0.6111210000000  0.5343710000000  0.4755270000000 1.0
C      1  0.4348690000000  0.5787030000000  0.5237000000000 1.0
C      1  0.4875660000000  0.4914940000000  0.5637800000000 1.0
C      1  0.5113270000000  0.5977650000000  0.4526940000000 1.0
C      1  0.5865330000000  0.5011580000000  0.4398630000000 1.0
C      1  0.5426530000000  0.4089450000000  0.4604560000000 1.0
C      1  0.6030270000000  0.5320660000000  0.5479890000000 1.0
C      1  0.5733990000000  0.5639880000000  0.4627600000000 1.0
C      1  0.4251230000000  0.4243730000000  0.5297750000000 1.0
C      1  0.5645910000000  0.4699960000000  0.4110990000000 1.0
C      1  0.5193850000000  0.5270330000000  0.4214130000000 1.0
C      1  0.5255590000000  0.4305860000000  0.4552860000000 1.0
C      1  0.5307930000000  0.4514100000000  0.5288630000000 1.0
C      1  0.4429860000000  0.4597920000000  0.5540130000000 1.0
C      1  0.5220620000000  0.4912300000000  0.4605940000000 1.0
C      1  0.5468350000000  0.5996830000000  0.5184420000000 1.0
C      1  0.5193670000000  0.6036650000000  0.5290650000000 1.0
C      1  0.5504580000000  0.4628340000000  0.4860820000000 1.0
C      1  0.5067120000000  0.4189200000000  0.4429060000000 1.0
C      1  0.5062050000000  0.5963670000000  0.5544480000000 1.0
C      1  0.4889080000000  0.3979510000000  0.5317380000000 1.0
C      1  0.5467800000000  0.4909770000000  0.4523540000000 1.0
C      1  0.4413140000000  0.4280890000000  0.4617670000000 1.0
C      1  0.5219480000000  0.4342430000000  0.5068910000000 1.0
C      1  0.5502830000000  0.4622010000000  0.4560290000000 1.0
END
