TITL C-884132-5695-182 -45.4536395319891 125000 -12184.3670403234 0 0 80 (C1) n - 1
REM
REM in /home/nfs/bkarasulu/CARBON/AIRSS/Generating-Clusters/ReaxFF-fromJPCA2015/Units_Real/with-SteepDescent/Only-C1/SD-CG/Try1-3A/FIRE-CG
REM
REM
REM
REM
REM
REM ./C.cell (11c1c37f851c82e70ff6c80c92926a4b)
REM
REM compiler GCC version 9.2.1 20190827 (Red Hat 9.2.1-1)
REM options -cpp -mtune=generic -march=x86-64 -g -O0 -fpre-include=/usr/include/finclude/math-vector-fortran.h
REM seed -1301666990 -48073783 -123867485 -2030445146 -1247274721 989540979 1147260881 -1896128874 1977610476 -920404955 1052484939 -415904421 -1940456782 971160770 996736168 -518844437 665100845 -675589919 -21438577 1501316774 -1227576525 923869098 -608911351 -1923550589 -1367776288 910548977 2073108017 1205011017 -713264355 389630327 -536376873 -1141789568 -1653476306
REM
CELL 1.54180   50.00000   50.00000   50.00000   90.00000   90.00000   90.00000
LATT -1
SFAC C  
C      1  0.5292780000000  0.5426130000000  0.4272990000000 1.0
C      1  0.4175970000000  0.5101160000000  0.5339770000000 1.0
C      1  0.5602860000000  0.5187550000000  0.5462650000000 1.0
C      1  0.5622180000000  0.4820260000000  0.5635200000000 1.0
C      1  0.5035700000000  0.5079850000000  0.5434750000000 1.0
C      1  0.4226780000000  0.4820700000000  0.5421740000000 1.0
C      1  0.4908910000000  0.4306530000000  0.4646520000000 1.0
C      1  0.5618310000000  0.4903550000000  0.4417240000000 1.0
C      1  0.5102720000000  0.5767030000000  0.4680940000000 1.0
C      1  0.5259010000000  0.4241230000000  0.5259240000000 1.0
C      1  0.4722520000000  0.5463680000000  0.4616100000000 1.0
C      1  0.4873550000000  0.4469840000000  0.5438330000000 1.0
C      1  0.5000580000000  0.4770510000000  0.4697080000000 1.0
C      1  0.5446000000000  0.4415540000000  0.5409170000000 1.0
C      1  0.4588440000000  0.4522170000000  0.5448220000000 1.0
C      1  0.4307850000000  0.5319260000000  0.4876360000000 1.0
C      1  0.4689990000000  0.4614980000000  0.4272560000000 1.0
C      1  0.5635770000000  0.4535330000000  0.4753950000000 1.0
C      1  0.4586350000000  0.5701220000000  0.5468390000000 1.0
C      1  0.4204170000000  0.5100590000000  0.5049800000000 1.0
C      1  0.4940650000000  0.5789550000000  0.5067410000000 1.0
C      1  0.4435360000000  0.4448110000000  0.5209600000000 1.0
C      1  0.5629920000000  0.5573990000000  0.4743450000000 1.0
C      1  0.4565810000000  0.4382740000000  0.4956640000000 1.0
C      1  0.4460930000000  0.5487900000000  0.5063700000000 1.0
C      1  0.5289630000000  0.4848950000000  0.5042590000000 1.0
C      1  0.5750970000000  0.4620890000000  0.5013810000000 1.0
C      1  0.5378430000000  0.5007980000000  0.4557500000000 1.0
C      1  0.4468380000000  0.5014920000000  0.4494930000000 1.0
C      1  0.4470070000000  0.4754960000000  0.5576810000000 1.0
C      1  0.5759540000000  0.4960560000000  0.5421430000000 1.0
C      1  0.5162920000000  0.5349120000000  0.5524990000000 1.0
C      1  0.4453000000000  0.5275330000000  0.4629940000000 1.0
C      1  0.5213860000000  0.5851840000000  0.4939140000000 1.0
C      1  0.4472260000000  0.4489500000000  0.4689650000000 1.0
C      1  0.5338260000000  0.4676510000000  0.5525780000000 1.0
C      1  0.4257390000000  0.4660580000000  0.5195720000000 1.0
C      1  0.4854440000000  0.5741990000000  0.5351920000000 1.0
C      1  0.5373430000000  0.4406130000000  0.4830690000000 1.0
C      1  0.5462470000000  0.5483080000000  0.4484160000000 1.0
C      1  0.4886860000000  0.5418680000000  0.4379290000000 1.0
C      1  0.4441580000000  0.4757900000000  0.4600930000000 1.0
C      1  0.5413230000000  0.5487980000000  0.5138400000000 1.0
C      1  0.5355800000000  0.5062110000000  0.4853600000000 1.0
C      1  0.4953840000000  0.5018730000000  0.4253720000000 1.0
C      1  0.4842580000000  0.5727760000000  0.4799660000000 1.0
C      1  0.4980280000000  0.4320770000000  0.5203690000000 1.0
C      1  0.4693780000000  0.5501390000000  0.5660890000000 1.0
C      1  0.4365650000000  0.4858240000000  0.5035620000000 1.0
C      1  0.4309330000000  0.5312690000000  0.5487290000000 1.0
C      1  0.5621590000000  0.4602940000000  0.4469730000000 1.0
C      1  0.4832550000000  0.5257760000000  0.4829220000000 1.0
C      1  0.5240040000000  0.4880530000000  0.5326840000000 1.0
C      1  0.5143450000000  0.4354800000000  0.4497440000000 1.0
C      1  0.4631140000000  0.4969100000000  0.5691150000000 1.0
C      1  0.4539200000000  0.5252050000000  0.5658160000000 1.0
C      1  0.4664950000000  0.4902900000000  0.5071470000000 1.0
C      1  0.4732560000000  0.5357980000000  0.5083780000000 1.0
C      1  0.5476280000000  0.5714000000000  0.4966930000000 1.0
C      1  0.4813490000000  0.4963740000000  0.4825280000000 1.0
C      1  0.4369160000000  0.5556430000000  0.5329230000000 1.0
C      1  0.5042570000000  0.5308520000000  0.4178120000000 1.0
C      1  0.5814890000000  0.5118490000000  0.4960260000000 1.0
C      1  0.5434130000000  0.5409420000000  0.5432600000000 1.0
C      1  0.4839230000000  0.4304230000000  0.4944610000000 1.0
C      1  0.5756410000000  0.5345840000000  0.4843050000000 1.0
C      1  0.4675270000000  0.4407880000000  0.4492280000000 1.0
C      1  0.5282860000000  0.5333020000000  0.4926930000000 1.0
C      1  0.5464020000000  0.4220560000000  0.5047770000000 1.0
C      1  0.5030650000000  0.4646360000000  0.5614730000000 1.0
C      1  0.5383000000000  0.4446240000000  0.4422740000000 1.0
C      1  0.4778970000000  0.5112660000000  0.5235590000000 1.0
C      1  0.5644960000000  0.4406270000000  0.5192520000000 1.0
C      1  0.5175880000000  0.4629540000000  0.4882580000000 1.0
C      1  0.5116850000000  0.4897880000000  0.4458090000000 1.0
C      1  0.4679580000000  0.4909450000000  0.4277620000000 1.0
C      1  0.4912970000000  0.4901880000000  0.5665110000000 1.0
C      1  0.4972790000000  0.5560820000000  0.5561740000000 1.0
C      1  0.5820770000000  0.4885000000000  0.5110850000000 1.0
C      1  0.5228680000000  0.5485730000000  0.4669630000000 1.0
END
