TITL C-883737-113-318 4.28961568613026 125000 -2420.94594157968 0 0 18 (C1) n - 1
REM
REM in /home/nfs/bkarasulu/CARBON/AIRSS/Generating-Clusters/ReaxFF-fromJPCA2015/Units_Real/with-SteepDescent/Only-C1/SD-CG/Try1-3A/FIRE-CG
REM
REM
REM
REM
REM
REM ./C.cell (11c1c37f851c82e70ff6c80c92926a4b)
REM
REM compiler GCC version 9.2.1 20190827 (Red Hat 9.2.1-1)
REM options -cpp -mtune=generic -march=x86-64 -g -O0 -fpre-include=/usr/include/finclude/math-vector-fortran.h
REM seed 951622558 -2099263749 1456257338 292585236 2066583922 414299085 -1624717572 -731748012 1264465394 495237872 -1569028054 2118553578 1304515256 1051338379 -1548401447 -2057276420 -1220446913 -1485804060 -1072018929 -848327173 -1487703007 -1660705827 2094204420 -711208553 -643347580 -1526735894 1000649363 1562836705 -1005641553 -1422163567 1953906481 1528115357 -963912144
REM
CELL 1.54180   50.00000   50.00000   50.00000   90.00000   90.00000   90.00000
LATT -1
SFAC C  
C      1  0.4740800000000  0.4839310000000  0.4798850000000 1.0
C      1  0.4782570000000  0.4543090000000  0.4779920000000 1.0
C      1  0.4865420000000  0.5229950000000  0.4838250000000 1.0
C      1  0.4683520000000  0.4345280000000  0.4976730000000 1.0
C      1  0.5405140000000  0.5106780000000  0.4426900000000 1.0
C      1  0.4660030000000  0.4952260000000  0.5069000000000 1.0
C      1  0.5405730000000  0.5093230000000  0.5649920000000 1.0
C      1  0.5007850000000  0.5443010000000  0.4948810000000 1.0
C      1  0.5334970000000  0.5189280000000  0.5429010000000 1.0
C      1  0.5038930000000  0.5042590000000  0.5456550000000 1.0
C      1  0.5124410000000  0.5017860000000  0.4471860000000 1.0
C      1  0.4520090000000  0.4453910000000  0.5208570000000 1.0
C      1  0.5411180000000  0.5249470000000  0.4695500000000 1.0
C      1  0.5327270000000  0.5378730000000  0.4934990000000 1.0
C      1  0.5461680000000  0.5332400000000  0.5184080000000 1.0
C      1  0.4877330000000  0.5037880000000  0.4632870000000 1.0
C      1  0.4848780000000  0.4997260000000  0.5262060000000 1.0
C      1  0.4504290000000  0.4747730000000  0.5236130000000 1.0
END
