TITL C-883726-8501-311 -4.78587612982584 125000 -7313.68923585774 0 0 50 (C1) n - 1
REM
REM in /home/nfs/bkarasulu/CARBON/AIRSS/Generating-Clusters/ReaxFF-fromJPCA2015/Units_Real/with-SteepDescent/Only-C1/SD-CG/Try1-3A/FIRE-CG
REM
REM
REM
REM
REM
REM ./C.cell (11c1c37f851c82e70ff6c80c92926a4b)
REM
REM compiler GCC version 9.2.1 20190827 (Red Hat 9.2.1-1)
REM options -cpp -mtune=generic -march=x86-64 -g -O0 -fpre-include=/usr/include/finclude/math-vector-fortran.h
REM seed -2058565868 -1047045189 507904620 610632114 1009143027 648749816 196650313 106099129 1133756919 -232429294 -1120319715 219747724 1528745883 -1461505828 2100171846 1266397056 2127789060 1894185901 -2060030872 -394522910 -2145602010 -1026789147 2127346892 517024276 -901904534 403320241 1591663790 -487502683 -376567305 -88773611 627198059 -1190398843 -433947837
REM
CELL 1.54180   50.00000   50.00000   50.00000   90.00000   90.00000   90.00000
LATT -1
SFAC C  
C      1  0.4951000000000  0.4524400000000  0.4647230000000 1.0
C      1  0.5363410000000  0.4672750000000  0.4841250000000 1.0
C      1  0.5307180000000  0.4802900000000  0.4389150000000 1.0
C      1  0.5165770000000  0.4454620000000  0.4841960000000 1.0
C      1  0.5166740000000  0.5068600000000  0.5111930000000 1.0
C      1  0.4734570000000  0.5597830000000  0.4989010000000 1.0
C      1  0.5417710000000  0.5572540000000  0.4829310000000 1.0
C      1  0.5174370000000  0.5264690000000  0.5391070000000 1.0
C      1  0.5577350000000  0.4594840000000  0.4373650000000 1.0
C      1  0.5520230000000  0.4554120000000  0.4637200000000 1.0
C      1  0.5357880000000  0.5461670000000  0.5282360000000 1.0
C      1  0.4742670000000  0.5617020000000  0.5269470000000 1.0
C      1  0.4569390000000  0.4802740000000  0.5771320000000 1.0
C      1  0.5030340000000  0.4698450000000  0.4429170000000 1.0
C      1  0.5049280000000  0.4723870000000  0.5604810000000 1.0
C      1  0.5463730000000  0.5133800000000  0.4578020000000 1.0
C      1  0.4896770000000  0.5361770000000  0.4470960000000 1.0
C      1  0.4687170000000  0.4456630000000  0.5435700000000 1.0
C      1  0.5009990000000  0.5630220000000  0.4900330000000 1.0
C      1  0.4746170000000  0.4996780000000  0.4961490000000 1.0
C      1  0.4623330000000  0.4440380000000  0.5022850000000 1.0
C      1  0.5577840000000  0.5349300000000  0.4704530000000 1.0
C      1  0.4781460000000  0.5592560000000  0.5510450000000 1.0
C      1  0.4706600000000  0.5134370000000  0.5460690000000 1.0
C      1  0.5268800000000  0.5640680000000  0.5060340000000 1.0
C      1  0.4493650000000  0.5151150000000  0.4987430000000 1.0
C      1  0.5308610000000  0.5067440000000  0.4386130000000 1.0
C      1  0.4632810000000  0.5290030000000  0.4567210000000 1.0
C      1  0.4861400000000  0.4921610000000  0.4353560000000 1.0
C      1  0.5350820000000  0.4838700000000  0.5085460000000 1.0
C      1  0.4796940000000  0.4621780000000  0.5665860000000 1.0
C      1  0.5114920000000  0.4440910000000  0.5131980000000 1.0
C      1  0.4470610000000  0.4979830000000  0.5560790000000 1.0
C      1  0.4487010000000  0.4571870000000  0.5251210000000 1.0
C      1  0.5055520000000  0.5396520000000  0.4720480000000 1.0
C      1  0.5391030000000  0.5092200000000  0.5462620000000 1.0
C      1  0.5037330000000  0.5151010000000  0.4328930000000 1.0
C      1  0.4580690000000  0.4834050000000  0.4739280000000 1.0
C      1  0.4556680000000  0.5386260000000  0.4841500000000 1.0
C      1  0.5550950000000  0.5239940000000  0.5237910000000 1.0
C      1  0.5586380000000  0.5213480000000  0.4958250000000 1.0
C      1  0.4718120000000  0.4947080000000  0.5246880000000 1.0
C      1  0.4622050000000  0.5000520000000  0.4506960000000 1.0
C      1  0.5023120000000  0.5150620000000  0.4881820000000 1.0
C      1  0.5297340000000  0.4811770000000  0.5516280000000 1.0
C      1  0.5293730000000  0.4626970000000  0.5278590000000 1.0
C      1  0.4844630000000  0.4354660000000  0.5206810000000 1.0
C      1  0.4899440000000  0.5337050000000  0.5537210000000 1.0
C      1  0.4681120000000  0.4561390000000  0.4759340000000 1.0
C      1  0.4455340000000  0.4865620000000  0.5273200000000 1.0
END
