TITL C-883737-113-112 -0.509359389887211 125000 -9187.83665640852 0 0 62 (C1) n - 1
REM
REM in /home/nfs/bkarasulu/CARBON/AIRSS/Generating-Clusters/ReaxFF-fromJPCA2015/Units_Real/with-SteepDescent/Only-C1/SD-CG/Try1-3A/FIRE-CG
REM
REM
REM
REM
REM
REM ./C.cell (11c1c37f851c82e70ff6c80c92926a4b)
REM
REM compiler GCC version 9.2.1 20190827 (Red Hat 9.2.1-1)
REM options -cpp -mtune=generic -march=x86-64 -g -O0 -fpre-include=/usr/include/finclude/math-vector-fortran.h
REM seed -48715696 -1779466255 1121922251 63667943 558515987 -165654549 -464953578 1097168407 1487023376 70051439 199874699 1039921855 -1039240121 -978490907 -1370218982 1999943966 -1313083861 1442489694 380953863 980803510 -1890502542 -618509571 1408364914 2107673572 -1869863932 -1521640035 -307880843 1522564720 406587085 1347147265 -1210822135 -740793435 525835658
REM
CELL 1.54180   50.00000   50.00000   50.00000   90.00000   90.00000   90.00000
LATT -1
SFAC C  
C      1  0.4893370000000  0.5763050000000  0.5348560000000 1.0
C      1  0.4564610000000  0.4688810000000  0.4690940000000 1.0
C      1  0.5194660000000  0.4964210000000  0.5786060000000 1.0
C      1  0.5393620000000  0.4628210000000  0.5278230000000 1.0
C      1  0.5209000000000  0.5600640000000  0.4549150000000 1.0
C      1  0.5630430000000  0.4677370000000  0.5103570000000 1.0
C      1  0.5606400000000  0.4781080000000  0.4713850000000 1.0
C      1  0.4883270000000  0.4712090000000  0.4961490000000 1.0
C      1  0.5204550000000  0.4383800000000  0.4593230000000 1.0
C      1  0.4848850000000  0.4502280000000  0.5555820000000 1.0
C      1  0.5017900000000  0.4918120000000  0.5087060000000 1.0
C      1  0.5480840000000  0.5246370000000  0.4702120000000 1.0
C      1  0.4783320000000  0.5860780000000  0.4950760000000 1.0
C      1  0.5602230000000  0.4566990000000  0.4837390000000 1.0
C      1  0.4611630000000  0.4680350000000  0.5528680000000 1.0
C      1  0.4202220000000  0.5127010000000  0.5209040000000 1.0
C      1  0.4304600000000  0.4834000000000  0.5116140000000 1.0
C      1  0.4459570000000  0.4741110000000  0.5310030000000 1.0
C      1  0.4963050000000  0.4271130000000  0.4707690000000 1.0
C      1  0.4870010000000  0.5395410000000  0.4955510000000 1.0
C      1  0.5267950000000  0.5063750000000  0.5516930000000 1.0
C      1  0.4925870000000  0.5668880000000  0.4493780000000 1.0
C      1  0.5414160000000  0.5505980000000  0.5013370000000 1.0
C      1  0.5158970000000  0.4650100000000  0.4474720000000 1.0
C      1  0.4660870000000  0.5721240000000  0.5184750000000 1.0
C      1  0.4763130000000  0.4475690000000  0.4855800000000 1.0
C      1  0.5068240000000  0.5183530000000  0.4966780000000 1.0
C      1  0.5217620000000  0.4857720000000  0.5318230000000 1.0
C      1  0.5132280000000  0.5665380000000  0.5371890000000 1.0
C      1  0.5257810000000  0.4371520000000  0.5259800000000 1.0
C      1  0.4089200000000  0.5189350000000  0.5433070000000 1.0
C      1  0.4618750000000  0.5436510000000  0.5119180000000 1.0
C      1  0.5370490000000  0.5538510000000  0.5306270000000 1.0
C      1  0.5463090000000  0.5284190000000  0.5441980000000 1.0
C      1  0.5264410000000  0.5677080000000  0.4828790000000 1.0
C      1  0.5338260000000  0.5245190000000  0.4943020000000 1.0
C      1  0.5152920000000  0.5160370000000  0.4307590000000 1.0
C      1  0.4913340000000  0.4695290000000  0.4318160000000 1.0
C      1  0.5321190000000  0.5344320000000  0.4473750000000 1.0
C      1  0.5715650000000  0.4961600000000  0.5063260000000 1.0
C      1  0.5417510000000  0.4347300000000  0.4788970000000 1.0
C      1  0.4968030000000  0.4349250000000  0.5336520000000 1.0
C      1  0.4878010000000  0.5168670000000  0.4332070000000 1.0
C      1  0.4830380000000  0.4258660000000  0.5099160000000 1.0
C      1  0.4654140000000  0.4775250000000  0.4433800000000 1.0
C      1  0.5010240000000  0.5673780000000  0.4973540000000 1.0
C      1  0.5672640000000  0.5154320000000  0.5287740000000 1.0
C      1  0.5154490000000  0.4855490000000  0.4266690000000 1.0
C      1  0.4649990000000  0.4927390000000  0.5719420000000 1.0
C      1  0.4738050000000  0.5479630000000  0.4641780000000 1.0
C      1  0.4530420000000  0.5275040000000  0.4545440000000 1.0
C      1  0.4991080000000  0.4594360000000  0.5796470000000 1.0
C      1  0.5284280000000  0.4679890000000  0.5835020000000 1.0
C      1  0.4901400000000  0.4877340000000  0.5853700000000 1.0
C      1  0.4391400000000  0.4868420000000  0.4835230000000 1.0
C      1  0.5630510000000  0.5018240000000  0.4784060000000 1.0
C      1  0.4620130000000  0.5070120000000  0.4355920000000 1.0
C      1  0.5030570000000  0.4118540000000  0.4944540000000 1.0
C      1  0.5303060000000  0.4215170000000  0.5019670000000 1.0
C      1  0.4380040000000  0.5307080000000  0.5027900000000 1.0
C      1  0.4730700000000  0.5785820000000  0.4670540000000 1.0
C      1  0.4394610000000  0.5161250000000  0.4775380000000 1.0
END
