TITL C-884134-5972-295 8.6926930604863 125000 -22635.5556784698 0 0 151 (C1) n - 1
REM
REM in /home/nfs/bkarasulu/CARBON/AIRSS/Generating-Clusters/ReaxFF-fromJPCA2015/Units_Real/with-SteepDescent/Only-C1/SD-CG/Try1-3A/FIRE-CG
REM
REM
REM
REM
REM
REM ./C.cell (11c1c37f851c82e70ff6c80c92926a4b)
REM
REM compiler GCC version 9.2.1 20190827 (Red Hat 9.2.1-1)
REM options -cpp -mtune=generic -march=x86-64 -g -O0 -fpre-include=/usr/include/finclude/math-vector-fortran.h
REM seed -1432276191 1106854196 1746280921 -2031382388 -1690250066 2000631002 -651208077 -1400830367 1982329526 -1949132451 2115699619 274792796 -1722252480 -548565126 -796781509 -32058385 88460653 -911470847 507579189 -301993586 645162704 871389696 299402395 -174176625 1215939617 -1289214626 -1243945478 -86978322 559597069 1817692392 -70945288 300599692 -353300952
REM
CELL 1.54180   50.00000   50.00000   50.00000   90.00000   90.00000   90.00000
LATT -1
SFAC C  
C      1  0.5550830000000  0.4539890000000  0.5699330000000 1.0
C      1  0.4232190000000  0.5193260000000  0.4550890000000 1.0
C      1  0.4464380000000  0.4367460000000  0.4673980000000 1.0
C      1  0.4943170000000  0.5081900000000  0.4943310000000 1.0
C      1  0.4109550000000  0.5503130000000  0.5187210000000 1.0
C      1  0.5075360000000  0.5525530000000  0.4752190000000 1.0
C      1  0.4588540000000  0.5816730000000  0.4717010000000 1.0
C      1  0.4356610000000  0.5645440000000  0.4815380000000 1.0
C      1  0.4333680000000  0.4576010000000  0.4850330000000 1.0
C      1  0.5359280000000  0.4125270000000  0.5465520000000 1.0
C      1  0.4839050000000  0.5717940000000  0.5180730000000 1.0
C      1  0.5966090000000  0.5446750000000  0.4891660000000 1.0
C      1  0.5083330000000  0.4267750000000  0.5768450000000 1.0
C      1  0.5184890000000  0.4456850000000  0.4628760000000 1.0
C      1  0.5678370000000  0.4398410000000  0.4488820000000 1.0
C      1  0.4947510000000  0.4955350000000  0.5507610000000 1.0
C      1  0.5146010000000  0.4644770000000  0.4841630000000 1.0
C      1  0.4683620000000  0.5293490000000  0.5859880000000 1.0
C      1  0.4721040000000  0.4560670000000  0.3980660000000 1.0
C      1  0.5256700000000  0.5456310000000  0.5006840000000 1.0
C      1  0.5688910000000  0.4403120000000  0.5254920000000 1.0
C      1  0.5401970000000  0.4300740000000  0.4475380000000 1.0
C      1  0.4729660000000  0.4750520000000  0.5020120000000 1.0
C      1  0.5662310000000  0.4282320000000  0.4989280000000 1.0
C      1  0.4817110000000  0.5445660000000  0.4114820000000 1.0
C      1  0.5648700000000  0.4653780000000  0.4314980000000 1.0
C      1  0.4337360000000  0.5514310000000  0.5623580000000 1.0
C      1  0.4743240000000  0.4830930000000  0.5683670000000 1.0
C      1  0.5715740000000  0.5557280000000  0.4773880000000 1.0
C      1  0.5152040000000  0.4701750000000  0.5442790000000 1.0
C      1  0.4535660000000  0.4786900000000  0.4042210000000 1.0
C      1  0.5248240000000  0.4327620000000  0.4233800000000 1.0
C      1  0.5958410000000  0.5593580000000  0.5154410000000 1.0
C      1  0.4655380000000  0.5476060000000  0.4365830000000 1.0
C      1  0.4506830000000  0.5106120000000  0.4844360000000 1.0
C      1  0.4185470000000  0.4167020000000  0.5197040000000 1.0
C      1  0.5182060000000  0.5083700000000  0.4062450000000 1.0
C      1  0.4931600000000  0.4551190000000  0.5004090000000 1.0
C      1  0.5074810000000  0.4497370000000  0.5256150000000 1.0
C      1  0.4246560000000  0.4413580000000  0.5569930000000 1.0
C      1  0.5282070000000  0.4373030000000  0.5124860000000 1.0
C      1  0.5550890000000  0.5942220000000  0.5039760000000 1.0
C      1  0.4842960000000  0.4823770000000  0.5966740000000 1.0
C      1  0.5242280000000  0.4561070000000  0.5737850000000 1.0
C      1  0.4498090000000  0.4602450000000  0.5123760000000 1.0
C      1  0.5800800000000  0.5400480000000  0.4163500000000 1.0
C      1  0.4527910000000  0.5091560000000  0.5136740000000 1.0
C      1  0.5598940000000  0.5837010000000  0.4764190000000 1.0
C      1  0.5348970000000  0.5073770000000  0.5207170000000 1.0
C      1  0.5616700000000  0.4683910000000  0.5235410000000 1.0
C      1  0.4666050000000  0.5257040000000  0.4577640000000 1.0
C      1  0.5000190000000  0.5973190000000  0.5198990000000 1.0
C      1  0.5256710000000  0.5207770000000  0.5902590000000 1.0
C      1  0.5287590000000  0.5929740000000  0.5201190000000 1.0
C      1  0.5787950000000  0.4849200000000  0.5044510000000 1.0
C      1  0.4875670000000  0.6143460000000  0.4970040000000 1.0
C      1  0.4347970000000  0.4057240000000  0.4622290000000 1.0
C      1  0.5371860000000  0.4562500000000  0.4122180000000 1.0
C      1  0.4940810000000  0.5851910000000  0.4326650000000 1.0
C      1  0.4472660000000  0.4865700000000  0.5591470000000 1.0
C      1  0.3930860000000  0.4861000000000  0.5081770000000 1.0
C      1  0.4792360000000  0.5021020000000  0.4370310000000 1.0
C      1  0.3953840000000  0.5102910000000  0.4989480000000 1.0
C      1  0.5200600000000  0.5047930000000  0.4559890000000 1.0
C      1  0.4326820000000  0.5674950000000  0.5099520000000 1.0
C      1  0.5034510000000  0.5645020000000  0.4145350000000 1.0
C      1  0.4481010000000  0.4476420000000  0.4390430000000 1.0
C      1  0.4930380000000  0.4259970000000  0.4324890000000 1.0
C      1  0.4084050000000  0.5112000000000  0.5526940000000 1.0
C      1  0.5291690000000  0.5513640000000  0.4229430000000 1.0
C      1  0.5414860000000  0.5271560000000  0.4121550000000 1.0
C      1  0.4617470000000  0.6104350000000  0.4853820000000 1.0
C      1  0.5477470000000  0.5417440000000  0.5890210000000 1.0
C      1  0.4689630000000  0.4136080000000  0.5686440000000 1.0
C      1  0.5969780000000  0.5139500000000  0.5406460000000 1.0
C      1  0.6012630000000  0.5159860000000  0.4871870000000 1.0
C      1  0.4891240000000  0.5194110000000  0.3982310000000 1.0
C      1  0.4044040000000  0.4561690000000  0.5454170000000 1.0
C      1  0.4885060000000  0.5297770000000  0.4763450000000 1.0
C      1  0.5557110000000  0.5088870000000  0.4942080000000 1.0
C      1  0.4669850000000  0.4365090000000  0.4201070000000 1.0
C      1  0.4292310000000  0.5062150000000  0.5716650000000 1.0
C      1  0.4395070000000  0.4072040000000  0.5169810000000 1.0
C      1  0.4735050000000  0.4290550000000  0.4894520000000 1.0
C      1  0.5368890000000  0.5230540000000  0.5455530000000 1.0
C      1  0.5086130000000  0.5737520000000  0.5743300000000 1.0
C      1  0.5044570000000  0.5981010000000  0.4782160000000 1.0
C      1  0.4885990000000  0.5403700000000  0.5344230000000 1.0
C      1  0.5108760000000  0.5228420000000  0.5133350000000 1.0
C      1  0.5180550000000  0.5114280000000  0.5631190000000 1.0
C      1  0.5696760000000  0.5176430000000  0.4222530000000 1.0
C      1  0.4952680000000  0.4128270000000  0.5541080000000 1.0
C      1  0.4134240000000  0.5389180000000  0.5451300000000 1.0
C      1  0.4574750000000  0.4827040000000  0.4777480000000 1.0
C      1  0.4767150000000  0.5105910000000  0.6072850000000 1.0
C      1  0.5776720000000  0.4439500000000  0.4761790000000 1.0
C      1  0.5945050000000  0.4943220000000  0.4642580000000 1.0
C      1  0.5488810000000  0.4763470000000  0.4530540000000 1.0
C      1  0.4854970000000  0.5424240000000  0.5648970000000 1.0
C      1  0.5895190000000  0.4702940000000  0.4801060000000 1.0
C      1  0.4537760000000  0.5713580000000  0.5555250000000 1.0
C      1  0.5721090000000  0.5270090000000  0.5823890000000 1.0
C      1  0.4576500000000  0.4284710000000  0.5141450000000 1.0
C      1  0.5040860000000  0.4882840000000  0.4738580000000 1.0
C      1  0.4011330000000  0.4395260000000  0.5221620000000 1.0
C      1  0.4002940000000  0.5368430000000  0.4943370000000 1.0
C      1  0.5401900000000  0.5852190000000  0.4544640000000 1.0
C      1  0.4068870000000  0.4860660000000  0.5358270000000 1.0
C      1  0.5118840000000  0.4723250000000  0.5961240000000 1.0
C      1  0.5286210000000  0.5588890000000  0.4513500000000 1.0
C      1  0.4685220000000  0.5751850000000  0.4433640000000 1.0
C      1  0.5577020000000  0.4303140000000  0.5511110000000 1.0
C      1  0.5828190000000  0.4927670000000  0.4379550000000 1.0
C      1  0.5029520000000  0.5187030000000  0.6064280000000 1.0
C      1  0.4410600000000  0.5306870000000  0.5799010000000 1.0
C      1  0.5315260000000  0.5644910000000  0.5235570000000 1.0
C      1  0.4460790000000  0.4279340000000  0.5626810000000 1.0
C      1  0.4940570000000  0.4515320000000  0.4484000000000 1.0
C      1  0.4186890000000  0.5430170000000  0.4713430000000 1.0
C      1  0.5767650000000  0.5793450000000  0.5138490000000 1.0
C      1  0.4914500000000  0.4057540000000  0.4836830000000 1.0
C      1  0.5358150000000  0.5643980000000  0.5736920000000 1.0
C      1  0.5818010000000  0.5448690000000  0.5646470000000 1.0
C      1  0.4755950000000  0.5149380000000  0.5311990000000 1.0
C      1  0.5374460000000  0.4180290000000  0.4957100000000 1.0
C      1  0.4806420000000  0.5708940000000  0.5713610000000 1.0
C      1  0.4668750000000  0.5040350000000  0.4081860000000 1.0
C      1  0.4990380000000  0.4638440000000  0.3969600000000 1.0
C      1  0.5138290000000  0.4013250000000  0.5329190000000 1.0
C      1  0.4370970000000  0.4730820000000  0.4280430000000 1.0
C      1  0.5476100000000  0.5017720000000  0.4655090000000 1.0
C      1  0.5535960000000  0.5375140000000  0.4903310000000 1.0
C      1  0.4607690000000  0.3980640000000  0.4563080000000 1.0
C      1  0.4797560000000  0.4773250000000  0.4546200000000 1.0
C      1  0.5225240000000  0.4762900000000  0.3976670000000 1.0
C      1  0.5394500000000  0.5517520000000  0.5468510000000 1.0
C      1  0.4888700000000  0.5738030000000  0.4863960000000 1.0
C      1  0.5066970000000  0.5072270000000  0.4324150000000 1.0
C      1  0.4398500000000  0.4852730000000  0.5302510000000 1.0
C      1  0.4034120000000  0.4582210000000  0.4960710000000 1.0
C      1  0.6007610000000  0.5040270000000  0.5133970000000 1.0
C      1  0.5976570000000  0.5432350000000  0.5417010000000 1.0
C      1  0.5137400000000  0.5986740000000  0.4505730000000 1.0
C      1  0.5140000000000  0.4000140000000  0.5026050000000 1.0
C      1  0.4287610000000  0.4969740000000  0.4418800000000 1.0
C      1  0.4554870000000  0.5754260000000  0.5275900000000 1.0
C      1  0.5688070000000  0.4778010000000  0.5670700000000 1.0
C      1  0.5374520000000  0.4803790000000  0.5302690000000 1.0
C      1  0.5814350000000  0.5024910000000  0.5643390000000 1.0
C      1  0.4849150000000  0.4239260000000  0.5942790000000 1.0
C      1  0.4882410000000  0.4031670000000  0.4543310000000 1.0
END
