TITL C-883740-3686-74 19.5038835079819 125000 -21922.7860688253 0 0 146 (C1) n - 1
REM
REM in /home/nfs/bkarasulu/CARBON/AIRSS/Generating-Clusters/ReaxFF-fromJPCA2015/Units_Real/with-SteepDescent/Only-C1/SD-CG/Try1-3A/FIRE-CG
REM
REM
REM
REM
REM
REM ./C.cell (11c1c37f851c82e70ff6c80c92926a4b)
REM
REM compiler GCC version 9.2.1 20190827 (Red Hat 9.2.1-1)
REM options -cpp -mtune=generic -march=x86-64 -g -O0 -fpre-include=/usr/include/finclude/math-vector-fortran.h
REM seed 2083240574 622515459 828519190 -746940379 -812262346 -1200300405 116995298 1722726178 1468609279 -130777148 -1950855383 1866340577 287770038 -7797663 217836800 -402841082 913602527 -237549228 2123041330 1096427202 604317991 -991016601 -24427741 -1849186736 873653940 -2036153041 -238866414 383354608 -1542516382 1588176904 -1106470177 -1641547034 1939052154
REM
CELL 1.54180   50.00000   50.00000   50.00000   90.00000   90.00000   90.00000
LATT -1
SFAC C  
C      1  0.4339080000000  0.4320640000000  0.5232190000000 1.0
C      1  0.4948800000000  0.5904640000000  0.4861820000000 1.0
C      1  0.4934590000000  0.4555180000000  0.5560490000000 1.0
C      1  0.4587190000000  0.5662340000000  0.4664960000000 1.0
C      1  0.4706450000000  0.5958230000000  0.5046640000000 1.0
C      1  0.5951240000000  0.5324400000000  0.5170670000000 1.0
C      1  0.4850590000000  0.4002280000000  0.4802350000000 1.0
C      1  0.5124850000000  0.4571680000000  0.5345900000000 1.0
C      1  0.4704400000000  0.5707250000000  0.4226830000000 1.0
C      1  0.5512740000000  0.5386260000000  0.4137550000000 1.0
C      1  0.4534190000000  0.4584420000000  0.4119860000000 1.0
C      1  0.5867240000000  0.4978290000000  0.5528450000000 1.0
C      1  0.5962470000000  0.4846110000000  0.5052310000000 1.0
C      1  0.4673410000000  0.5420690000000  0.5941830000000 1.0
C      1  0.5814790000000  0.5591630000000  0.5163000000000 1.0
C      1  0.5244090000000  0.5798150000000  0.5242480000000 1.0
C      1  0.4719860000000  0.4678010000000  0.5083830000000 1.0
C      1  0.4524050000000  0.5757860000000  0.4950670000000 1.0
C      1  0.4461530000000  0.5320340000000  0.5750240000000 1.0
C      1  0.5097500000000  0.5554430000000  0.5166070000000 1.0
C      1  0.4196510000000  0.4702510000000  0.5010130000000 1.0
C      1  0.4160880000000  0.5077870000000  0.5421110000000 1.0
C      1  0.4201560000000  0.4590800000000  0.5265720000000 1.0
C      1  0.5453160000000  0.4346320000000  0.5630720000000 1.0
C      1  0.5498070000000  0.5128260000000  0.4729450000000 1.0
C      1  0.4972120000000  0.5630960000000  0.4161270000000 1.0
C      1  0.4818960000000  0.5514320000000  0.5251500000000 1.0
C      1  0.5056000000000  0.3973410000000  0.4703310000000 1.0
C      1  0.5640030000000  0.5003580000000  0.5700370000000 1.0
C      1  0.5175680000000  0.4963560000000  0.5515330000000 1.0
C      1  0.5085740000000  0.5124030000000  0.4733590000000 1.0
C      1  0.5844480000000  0.5075660000000  0.4442680000000 1.0
C      1  0.3952100000000  0.5395390000000  0.5070860000000 1.0
C      1  0.5309690000000  0.4089470000000  0.4665610000000 1.0
C      1  0.4772140000000  0.5961820000000  0.5321490000000 1.0
C      1  0.4856350000000  0.5189100000000  0.6036240000000 1.0
C      1  0.5410510000000  0.5727270000000  0.5480740000000 1.0
C      1  0.5259680000000  0.4798680000000  0.4019000000000 1.0
C      1  0.5673400000000  0.5627330000000  0.5423120000000 1.0
C      1  0.4715840000000  0.4724630000000  0.5570300000000 1.0
C      1  0.5582590000000  0.5273930000000  0.5762810000000 1.0
C      1  0.4644920000000  0.4878040000000  0.4885990000000 1.0
C      1  0.5190890000000  0.4123510000000  0.5373990000000 1.0
C      1  0.5034490000000  0.5418730000000  0.3968370000000 1.0
C      1  0.4830710000000  0.4407000000000  0.5062890000000 1.0
C      1  0.4242980000000  0.5346950000000  0.5570090000000 1.0
C      1  0.5106590000000  0.4849070000000  0.4825950000000 1.0
C      1  0.4279070000000  0.4231110000000  0.4679940000000 1.0
C      1  0.4104130000000  0.4999690000000  0.4603310000000 1.0
C      1  0.4040720000000  0.5363960000000  0.4806800000000 1.0
C      1  0.5310480000000  0.4507140000000  0.4066060000000 1.0
C      1  0.4581500000000  0.5217210000000  0.4072950000000 1.0
C      1  0.4968870000000  0.4357060000000  0.5776720000000 1.0
C      1  0.5388220000000  0.5944770000000  0.4756860000000 1.0
C      1  0.5750750000000  0.4336550000000  0.5613320000000 1.0
C      1  0.5409820000000  0.4198560000000  0.4411720000000 1.0
C      1  0.5314150000000  0.5360990000000  0.5841500000000 1.0
C      1  0.4634690000000  0.4800520000000  0.5320000000000 1.0
C      1  0.4691430000000  0.4950880000000  0.6064580000000 1.0
C      1  0.5800050000000  0.5497390000000  0.4667910000000 1.0
C      1  0.5383860000000  0.4604580000000  0.5455950000000 1.0
C      1  0.4495840000000  0.5056990000000  0.5351760000000 1.0
C      1  0.4270650000000  0.5575380000000  0.5386150000000 1.0
C      1  0.4862500000000  0.4737170000000  0.6104290000000 1.0
C      1  0.5473670000000  0.4588210000000  0.4294750000000 1.0
C      1  0.5063760000000  0.4605840000000  0.5979150000000 1.0
C      1  0.5265850000000  0.5617870000000  0.5713260000000 1.0
C      1  0.4808220000000  0.5278290000000  0.5090890000000 1.0
C      1  0.4411240000000  0.4432100000000  0.5819800000000 1.0
C      1  0.4627050000000  0.4327950000000  0.4254500000000 1.0
C      1  0.5723300000000  0.4463560000000  0.5134580000000 1.0
C      1  0.5870090000000  0.4616050000000  0.4913590000000 1.0
C      1  0.4441070000000  0.5074900000000  0.4915910000000 1.0
C      1  0.4563310000000  0.4864590000000  0.5790010000000 1.0
C      1  0.4349470000000  0.4613570000000  0.4777380000000 1.0
C      1  0.5004830000000  0.4921320000000  0.4565900000000 1.0
C      1  0.5413020000000  0.5113410000000  0.5001030000000 1.0
C      1  0.4167540000000  0.5289200000000  0.4565280000000 1.0
C      1  0.4765780000000  0.4756540000000  0.4144890000000 1.0
C      1  0.4941000000000  0.5346750000000  0.4839060000000 1.0
C      1  0.5277170000000  0.5310160000000  0.5162100000000 1.0
C      1  0.5593150000000  0.5792040000000  0.4874690000000 1.0
C      1  0.4027270000000  0.5133550000000  0.5162160000000 1.0
C      1  0.5926340000000  0.5247570000000  0.5446740000000 1.0
C      1  0.5384930000000  0.5482750000000  0.4384050000000 1.0
C      1  0.5715830000000  0.5592590000000  0.4909700000000 1.0
C      1  0.4298760000000  0.4755710000000  0.4193440000000 1.0
C      1  0.4696320000000  0.5873530000000  0.4468470000000 1.0
C      1  0.4412720000000  0.5458280000000  0.4498180000000 1.0
C      1  0.5947510000000  0.4769260000000  0.5343690000000 1.0
C      1  0.4800770000000  0.5640210000000  0.5843010000000 1.0
C      1  0.5709360000000  0.4607650000000  0.4663190000000 1.0
C      1  0.4679690000000  0.4175870000000  0.4964080000000 1.0
C      1  0.5198710000000  0.4278460000000  0.4208270000000 1.0
C      1  0.4456960000000  0.4262180000000  0.4463700000000 1.0
C      1  0.4143250000000  0.4493450000000  0.4606590000000 1.0
C      1  0.5199320000000  0.4201790000000  0.5652870000000 1.0
C      1  0.4914250000000  0.5593010000000  0.4699460000000 1.0
C      1  0.4416910000000  0.4996730000000  0.4123560000000 1.0
C      1  0.5125910000000  0.5643350000000  0.4427710000000 1.0
C      1  0.4998170000000  0.4525290000000  0.4491690000000 1.0
C      1  0.4300880000000  0.4706140000000  0.5743540000000 1.0
C      1  0.4391070000000  0.4207140000000  0.4964440000000 1.0
C      1  0.4511630000000  0.4272330000000  0.5454620000000 1.0
C      1  0.5136220000000  0.5148160000000  0.5969250000000 1.0
C      1  0.5891470000000  0.4489140000000  0.5399130000000 1.0
C      1  0.4792090000000  0.4754150000000  0.4471860000000 1.0
C      1  0.4928920000000  0.4310890000000  0.4318430000000 1.0
C      1  0.5203080000000  0.5920120000000  0.4523340000000 1.0
C      1  0.4947950000000  0.5123460000000  0.5549450000000 1.0
C      1  0.5014590000000  0.5789710000000  0.5762670000000 1.0
C      1  0.4851520000000  0.5920810000000  0.5561520000000 1.0
C      1  0.4863400000000  0.5172630000000  0.3983230000000 1.0
C      1  0.5347130000000  0.4285120000000  0.4899580000000 1.0
C      1  0.5448550000000  0.4008810000000  0.5261490000000 1.0
C      1  0.4536820000000  0.5226670000000  0.5125370000000 1.0
C      1  0.5500850000000  0.4650120000000  0.5209280000000 1.0
C      1  0.5939890000000  0.5232200000000  0.4676810000000 1.0
C      1  0.5970090000000  0.5131310000000  0.4955500000000 1.0
C      1  0.4525550000000  0.5466640000000  0.4241470000000 1.0
C      1  0.5183840000000  0.5241690000000  0.5430190000000 1.0
C      1  0.5211740000000  0.4858490000000  0.5938320000000 1.0
C      1  0.5571730000000  0.4191140000000  0.5065160000000 1.0
C      1  0.5219300000000  0.5953210000000  0.4995040000000 1.0
C      1  0.5272550000000  0.4617210000000  0.4528080000000 1.0
C      1  0.4529280000000  0.5588740000000  0.5189850000000 1.0
C      1  0.4579890000000  0.4723750000000  0.4664700000000 1.0
C      1  0.4158530000000  0.4977150000000  0.4933200000000 1.0
C      1  0.4175400000000  0.4773050000000  0.5493400000000 1.0
C      1  0.5326100000000  0.5400080000000  0.3903920000000 1.0
C      1  0.5395040000000  0.4845140000000  0.5691580000000 1.0
C      1  0.4964960000000  0.4905120000000  0.3997670000000 1.0
C      1  0.5673820000000  0.5128800000000  0.4191110000000 1.0
C      1  0.5353750000000  0.4809150000000  0.5005420000000 1.0
C      1  0.5523970000000  0.5402460000000  0.4620610000000 1.0
C      1  0.5469740000000  0.4966120000000  0.4106300000000 1.0
C      1  0.4143320000000  0.4754970000000  0.4458870000000 1.0
C      1  0.5105290000000  0.4338910000000  0.5155840000000 1.0
C      1  0.4024670000000  0.5644470000000  0.5254220000000 1.0
C      1  0.5416250000000  0.4572640000000  0.4779140000000 1.0
C      1  0.4645830000000  0.4288960000000  0.5698920000000 1.0
C      1  0.4623630000000  0.5118530000000  0.5602160000000 1.0
C      1  0.4934600000000  0.6004720000000  0.4576570000000 1.0
C      1  0.5760290000000  0.5421560000000  0.5592910000000 1.0
C      1  0.5626110000000  0.4391360000000  0.4437670000000 1.0
C      1  0.5664320000000  0.4918470000000  0.4600170000000 1.0
END
