TITL C-884142-5251-77 42.9066638200357 125000 -19608.6790869494 0 0 133 (C1) n - 1
REM
REM in /home/nfs/bkarasulu/CARBON/AIRSS/Generating-Clusters/ReaxFF-fromJPCA2015/Units_Real/with-SteepDescent/Only-C1/SD-CG/Try1-3A/FIRE-CG
REM
REM
REM
REM
REM
REM ./C.cell (11c1c37f851c82e70ff6c80c92926a4b)
REM
REM compiler GCC version 9.2.1 20190827 (Red Hat 9.2.1-1)
REM options -cpp -mtune=generic -march=x86-64 -g -O0 -fpre-include=/usr/include/finclude/math-vector-fortran.h
REM seed -128165310 322892724 828377228 2019157491 -1418297202 783357972 849642250 1794594503 -250588891 1178488814 -1400203552 -1405666896 900238269 -721501697 -1553223789 -1852211163 536596147 -2081432746 -80200293 -1843220111 -1992731270 203055476 -444039282 -1599068616 -779966023 1781850722 10114068 -2085049217 1999163224 825512516 877946923 -2125091466 -655976262
REM
CELL 1.54180   50.00000   50.00000   50.00000   90.00000   90.00000   90.00000
LATT -1
SFAC C  
C      1  0.4900080000000  0.4572350000000  0.5217110000000 1.0
C      1  0.4908050000000  0.5726340000000  0.4334420000000 1.0
C      1  0.4713180000000  0.5015800000000  0.5132870000000 1.0
C      1  0.4803320000000  0.4036850000000  0.5038040000000 1.0
C      1  0.5270740000000  0.3944500000000  0.4815600000000 1.0
C      1  0.4537110000000  0.5504050000000  0.4047240000000 1.0
C      1  0.5619280000000  0.4354280000000  0.5406030000000 1.0
C      1  0.4541100000000  0.4518510000000  0.5584320000000 1.0
C      1  0.4563640000000  0.5822120000000  0.5125930000000 1.0
C      1  0.3980590000000  0.5169580000000  0.4647160000000 1.0
C      1  0.5624660000000  0.5436490000000  0.4336910000000 1.0
C      1  0.5535900000000  0.4402590000000  0.5678290000000 1.0
C      1  0.4771310000000  0.4001620000000  0.4708100000000 1.0
C      1  0.5717960000000  0.5317720000000  0.5508630000000 1.0
C      1  0.4251450000000  0.5489250000000  0.4854730000000 1.0
C      1  0.5238610000000  0.4920430000000  0.4809330000000 1.0
C      1  0.5435820000000  0.5278400000000  0.5384020000000 1.0
C      1  0.5417110000000  0.4715010000000  0.5119430000000 1.0
C      1  0.5022070000000  0.5069740000000  0.4689180000000 1.0
C      1  0.5154810000000  0.4671510000000  0.4654670000000 1.0
C      1  0.5054960000000  0.6062440000000  0.4727560000000 1.0
C      1  0.5318830000000  0.5948450000000  0.4725610000000 1.0
C      1  0.5392200000000  0.5065420000000  0.4424430000000 1.0
C      1  0.5879180000000  0.4951100000000  0.5070030000000 1.0
C      1  0.4244300000000  0.5184710000000  0.5379300000000 1.0
C      1  0.5261500000000  0.5819190000000  0.4993210000000 1.0
C      1  0.5432200000000  0.4645560000000  0.5794450000000 1.0
C      1  0.4179850000000  0.4743590000000  0.5494350000000 1.0
C      1  0.5436280000000  0.4972640000000  0.4992740000000 1.0
C      1  0.5471840000000  0.4320100000000  0.4542320000000 1.0
C      1  0.4020540000000  0.5187340000000  0.4923770000000 1.0
C      1  0.4132910000000  0.4713820000000  0.5073820000000 1.0
C      1  0.4427950000000  0.4773890000000  0.5653460000000 1.0
C      1  0.5665680000000  0.5022460000000  0.4544290000000 1.0
C      1  0.4937580000000  0.5319570000000  0.5972650000000 1.0
C      1  0.4862770000000  0.4808690000000  0.5719860000000 1.0
C      1  0.4797450000000  0.5230780000000  0.4879130000000 1.0
C      1  0.5906710000000  0.4529570000000  0.5039530000000 1.0
C      1  0.4852640000000  0.4342030000000  0.4987550000000 1.0
C      1  0.4498940000000  0.3997120000000  0.4608630000000 1.0
C      1  0.4148600000000  0.5412740000000  0.4602890000000 1.0
C      1  0.5826810000000  0.4536470000000  0.5324240000000 1.0
C      1  0.4501340000000  0.4315020000000  0.4629200000000 1.0
C      1  0.4881710000000  0.5022290000000  0.4103110000000 1.0
C      1  0.5235250000000  0.4141490000000  0.4576930000000 1.0
C      1  0.4441540000000  0.5430890000000  0.5764380000000 1.0
C      1  0.5618200000000  0.4550070000000  0.4978800000000 1.0
C      1  0.5652230000000  0.5607680000000  0.5098170000000 1.0
C      1  0.4994750000000  0.4344040000000  0.5651580000000 1.0
C      1  0.5186010000000  0.5515370000000  0.4963060000000 1.0
C      1  0.5936440000000  0.4760540000000  0.4855070000000 1.0
C      1  0.4900020000000  0.4831170000000  0.5997130000000 1.0
C      1  0.5089330000000  0.4916090000000  0.5437630000000 1.0
C      1  0.4363090000000  0.5637800000000  0.5583290000000 1.0
C      1  0.5608280000000  0.5429560000000  0.5781910000000 1.0
C      1  0.5334220000000  0.5713230000000  0.4528880000000 1.0
C      1  0.4927830000000  0.5427570000000  0.5057850000000 1.0
C      1  0.5320260000000  0.5061400000000  0.5511870000000 1.0
C      1  0.4726770000000  0.4730310000000  0.5032970000000 1.0
C      1  0.5155140000000  0.4028200000000  0.5314160000000 1.0
C      1  0.4338370000000  0.4897700000000  0.4977670000000 1.0
C      1  0.5475240000000  0.4715560000000  0.4211390000000 1.0
C      1  0.4935220000000  0.5052270000000  0.6052700000000 1.0
C      1  0.5461230000000  0.5218680000000  0.5904960000000 1.0
C      1  0.3956280000000  0.4969070000000  0.5107180000000 1.0
C      1  0.5301250000000  0.4308430000000  0.4978780000000 1.0
C      1  0.4468190000000  0.4898500000000  0.4705720000000 1.0
C      1  0.4687640000000  0.5280500000000  0.5758440000000 1.0
C      1  0.5603590000000  0.4570490000000  0.4441480000000 1.0
C      1  0.4949430000000  0.4177230000000  0.4540770000000 1.0
C      1  0.4919790000000  0.4140720000000  0.5455570000000 1.0
C      1  0.4821990000000  0.4559410000000  0.5572770000000 1.0
C      1  0.5615180000000  0.5693360000000  0.4813170000000 1.0
C      1  0.4668950000000  0.4152650000000  0.5303460000000 1.0
C      1  0.4455500000000  0.4346340000000  0.5369220000000 1.0
C      1  0.5198330000000  0.5702620000000  0.4272970000000 1.0
C      1  0.5005310000000  0.5289880000000  0.4179540000000 1.0
C      1  0.5093500000000  0.4433170000000  0.4850360000000 1.0
C      1  0.4897800000000  0.5078110000000  0.5325980000000 1.0
C      1  0.5159500000000  0.5234500000000  0.4490810000000 1.0
C      1  0.4535770000000  0.4386300000000  0.4907590000000 1.0
C      1  0.5078030000000  0.3924480000000  0.5058820000000 1.0
C      1  0.5765060000000  0.4757290000000  0.4604740000000 1.0
C      1  0.5257710000000  0.5460720000000  0.4122340000000 1.0
C      1  0.4700790000000  0.4721540000000  0.4740660000000 1.0
C      1  0.5530020000000  0.4335610000000  0.4822240000000 1.0
C      1  0.4866530000000  0.5583450000000  0.4560720000000 1.0
C      1  0.4732930000000  0.4595580000000  0.4266180000000 1.0
C      1  0.5057000000000  0.5893520000000  0.5452570000000 1.0
C      1  0.5167830000000  0.4683540000000  0.5262640000000 1.0
C      1  0.4633590000000  0.4965090000000  0.5720890000000 1.0
C      1  0.4561880000000  0.5769040000000  0.5413000000000 1.0
C      1  0.5235990000000  0.5768490000000  0.5622040000000 1.0
C      1  0.5062350000000  0.5955280000000  0.5153440000000 1.0
C      1  0.4970090000000  0.4750820000000  0.4175280000000 1.0
C      1  0.4911510000000  0.4823150000000  0.4596510000000 1.0
C      1  0.4819850000000  0.5738220000000  0.5548180000000 1.0
C      1  0.4497060000000  0.4761780000000  0.4232800000000 1.0
C      1  0.4424500000000  0.5338320000000  0.4493350000000 1.0
C      1  0.4242010000000  0.5385090000000  0.5583160000000 1.0
C      1  0.5724590000000  0.5527820000000  0.4594580000000 1.0
C      1  0.4416820000000  0.5095010000000  0.5167860000000 1.0
C      1  0.4032510000000  0.4981890000000  0.5390640000000 1.0
C      1  0.5753100000000  0.5015300000000  0.5550750000000 1.0
C      1  0.5408780000000  0.4170050000000  0.5234150000000 1.0
C      1  0.4041550000000  0.4926150000000  0.4461660000000 1.0
C      1  0.5511440000000  0.5307840000000  0.4111450000000 1.0
C      1  0.5211970000000  0.4670410000000  0.4316650000000 1.0
C      1  0.4788600000000  0.5992250000000  0.5045790000000 1.0
C      1  0.5505340000000  0.4953910000000  0.5714080000000 1.0
C      1  0.5848160000000  0.5523620000000  0.5284780000000 1.0
C      1  0.4775570000000  0.6021200000000  0.4745740000000 1.0
C      1  0.5440360000000  0.5002850000000  0.4147580000000 1.0
C      1  0.5674900000000  0.5156310000000  0.4971590000000 1.0
C      1  0.4574910000000  0.5187640000000  0.4688110000000 1.0
C      1  0.4226600000000  0.4538300000000  0.5293810000000 1.0
C      1  0.4867420000000  0.5447860000000  0.5583840000000 1.0
C      1  0.4759350000000  0.4410180000000  0.4492390000000 1.0
C      1  0.5760090000000  0.5250090000000  0.4696760000000 1.0
C      1  0.4595840000000  0.5014150000000  0.4123340000000 1.0
C      1  0.4817190000000  0.5528360000000  0.4151770000000 1.0
C      1  0.4464810000000  0.5673080000000  0.4884480000000 1.0
C      1  0.4446550000000  0.5263000000000  0.4202260000000 1.0
C      1  0.5379480000000  0.5622190000000  0.5812370000000 1.0
C      1  0.5244480000000  0.4427670000000  0.5776210000000 1.0
C      1  0.4659820000000  0.5760480000000  0.4654470000000 1.0
C      1  0.5494820000000  0.3958310000000  0.4992950000000 1.0
C      1  0.4920950000000  0.5340900000000  0.5327570000000 1.0
C      1  0.5436050000000  0.5377850000000  0.5112990000000 1.0
C      1  0.5161200000000  0.5496110000000  0.4650390000000 1.0
C      1  0.5223510000000  0.5381150000000  0.5943770000000 1.0
C      1  0.5844370000000  0.4843750000000  0.5343890000000 1.0
C      1  0.4297150000000  0.4800240000000  0.4449440000000 1.0
END
