TITL C-884129-4740-202 5.67177605980533 125000 -27945.8351904982 0 0 186 (C1) n - 1
REM
REM in /home/nfs/bkarasulu/CARBON/AIRSS/Generating-Clusters/ReaxFF-fromJPCA2015/Units_Real/with-SteepDescent/Only-C1/SD-CG/Try1-3A/FIRE-CG
REM
REM
REM
REM
REM
REM ./C.cell (11c1c37f851c82e70ff6c80c92926a4b)
REM
REM compiler GCC version 9.2.1 20190827 (Red Hat 9.2.1-1)
REM options -cpp -mtune=generic -march=x86-64 -g -O0 -fpre-include=/usr/include/finclude/math-vector-fortran.h
REM seed -529207858 -1525709068 1077524562 1867926201 1033717409 1910108259 1764704053 -5830170 -710386380 -841371170 -506722043 362694393 509690259 785722801 134081368 447856536 1102531882 -1253928711 -1103787514 85686402 -14981252 -1759214696 -1339905770 -839424193 -1066074306 -528372374 1658100153 -1043329169 -53708576 -1947188415 388247941 735328932 1813312862
REM
CELL 1.54180   50.00000   50.00000   50.00000   90.00000   90.00000   90.00000
LATT -1
SFAC C  
C      1  0.5165090000000  0.5968280000000  0.4959260000000 1.0
C      1  0.4047220000000  0.4627120000000  0.4740330000000 1.0
C      1  0.4843670000000  0.4601830000000  0.4850200000000 1.0
C      1  0.5742510000000  0.5735310000000  0.5180840000000 1.0
C      1  0.4755240000000  0.5083210000000  0.5351270000000 1.0
C      1  0.4079070000000  0.4387930000000  0.4911310000000 1.0
C      1  0.5287080000000  0.3725060000000  0.4971190000000 1.0
C      1  0.5960830000000  0.5586490000000  0.5263390000000 1.0
C      1  0.5592590000000  0.4883790000000  0.4009180000000 1.0
C      1  0.5841150000000  0.4368910000000  0.5092870000000 1.0
C      1  0.5420040000000  0.4240550000000  0.5469810000000 1.0
C      1  0.5426600000000  0.4691830000000  0.5337460000000 1.0
C      1  0.5140050000000  0.4214780000000  0.5093620000000 1.0
C      1  0.5685460000000  0.4576950000000  0.5426020000000 1.0
C      1  0.5322620000000  0.5323960000000  0.3855780000000 1.0
C      1  0.5207560000000  0.4645240000000  0.4200100000000 1.0
C      1  0.5811520000000  0.4271230000000  0.4812050000000 1.0
C      1  0.5426620000000  0.5980650000000  0.4834580000000 1.0
C      1  0.5000010000000  0.4687850000000  0.4617420000000 1.0
C      1  0.4799130000000  0.4071720000000  0.4744700000000 1.0
C      1  0.5141100000000  0.4982690000000  0.4684550000000 1.0
C      1  0.4638590000000  0.4205110000000  0.4525690000000 1.0
C      1  0.5022010000000  0.3869870000000  0.5369750000000 1.0
C      1  0.4550180000000  0.5385650000000  0.5592540000000 1.0
C      1  0.4921550000000  0.4278050000000  0.5290170000000 1.0
C      1  0.5443030000000  0.4580140000000  0.4347220000000 1.0
C      1  0.5434260000000  0.5189740000000  0.4367290000000 1.0
C      1  0.4790170000000  0.3837140000000  0.4901680000000 1.0
C      1  0.5967920000000  0.5361430000000  0.5608490000000 1.0
C      1  0.5205190000000  0.5950540000000  0.4313830000000 1.0
C      1  0.4410430000000  0.5312490000000  0.4072830000000 1.0
C      1  0.4722700000000  0.5182410000000  0.4477270000000 1.0
C      1  0.5618570000000  0.4075160000000  0.4686350000000 1.0
C      1  0.3918810000000  0.4956540000000  0.5121190000000 1.0
C      1  0.4194750000000  0.4578420000000  0.4475760000000 1.0
C      1  0.5322720000000  0.5248230000000  0.6081060000000 1.0
C      1  0.4801890000000  0.4795620000000  0.3921540000000 1.0
C      1  0.4572140000000  0.5229870000000  0.4697730000000 1.0
C      1  0.4843060000000  0.5696480000000  0.4638590000000 1.0
C      1  0.5072640000000  0.5107760000000  0.6124240000000 1.0
C      1  0.4601220000000  0.5036600000000  0.4923150000000 1.0
C      1  0.4560340000000  0.4594550000000  0.4838590000000 1.0
C      1  0.4839140000000  0.5649640000000  0.4121890000000 1.0
C      1  0.5802770000000  0.4793410000000  0.4211820000000 1.0
C      1  0.4301150000000  0.5063240000000  0.4274900000000 1.0
C      1  0.5245340000000  0.5035180000000  0.4959830000000 1.0
C      1  0.4165050000000  0.5633650000000  0.5317980000000 1.0
C      1  0.5615860000000  0.4348160000000  0.4276100000000 1.0
C      1  0.5756260000000  0.5131530000000  0.5523100000000 1.0
C      1  0.4221570000000  0.5768620000000  0.5780460000000 1.0
C      1  0.3916710000000  0.4785510000000  0.5343680000000 1.0
C      1  0.4403400000000  0.4780100000000  0.5288880000000 1.0
C      1  0.4289830000000  0.4350120000000  0.5098070000000 1.0
C      1  0.4945380000000  0.4622990000000  0.4334560000000 1.0
C      1  0.5010820000000  0.3769160000000  0.5095230000000 1.0
C      1  0.4924130000000  0.4284170000000  0.4331380000000 1.0
C      1  0.5068170000000  0.4099890000000  0.5723050000000 1.0
C      1  0.5762160000000  0.4702410000000  0.5683430000000 1.0
C      1  0.4138850000000  0.5640730000000  0.5022240000000 1.0
C      1  0.5502770000000  0.4713580000000  0.4604730000000 1.0
C      1  0.5286900000000  0.4767040000000  0.5077890000000 1.0
C      1  0.4495600000000  0.5753670000000  0.4338180000000 1.0
C      1  0.4231200000000  0.5298710000000  0.5670460000000 1.0
C      1  0.5053640000000  0.5489890000000  0.4695630000000 1.0
C      1  0.5689870000000  0.4292120000000  0.5341120000000 1.0
C      1  0.5711390000000  0.5385390000000  0.3949020000000 1.0
C      1  0.5423740000000  0.4989900000000  0.4579330000000 1.0
C      1  0.6127370000000  0.5237590000000  0.4869490000000 1.0
C      1  0.4649250000000  0.4109270000000  0.5661840000000 1.0
C      1  0.4320350000000  0.5565510000000  0.4189700000000 1.0
C      1  0.4585440000000  0.6224490000000  0.5135890000000 1.0
C      1  0.5848580000000  0.4513430000000  0.4334430000000 1.0
C      1  0.4691500000000  0.5490380000000  0.5065420000000 1.0
C      1  0.6019120000000  0.5497320000000  0.4809530000000 1.0
C      1  0.4375510000000  0.4343430000000  0.4495040000000 1.0
C      1  0.5923050000000  0.4455500000000  0.4619210000000 1.0
C      1  0.5360110000000  0.5507110000000  0.4738860000000 1.0
C      1  0.5535650000000  0.5074570000000  0.5966090000000 1.0
C      1  0.5579590000000  0.5606700000000  0.4607150000000 1.0
C      1  0.4878830000000  0.4528690000000  0.3906810000000 1.0
C      1  0.4438400000000  0.4808080000000  0.4991340000000 1.0
C      1  0.4371290000000  0.4198200000000  0.5632210000000 1.0
C      1  0.4678750000000  0.6160970000000  0.4870940000000 1.0
C      1  0.4943020000000  0.4731070000000  0.5099070000000 1.0
C      1  0.5098620000000  0.4815350000000  0.6119930000000 1.0
C      1  0.4900710000000  0.4265070000000  0.4020200000000 1.0
C      1  0.4320330000000  0.4414690000000  0.5785840000000 1.0
C      1  0.4471740000000  0.4350820000000  0.4743420000000 1.0
C      1  0.5538150000000  0.5503930000000  0.5238630000000 1.0
C      1  0.4500260000000  0.3736960000000  0.4885990000000 1.0
C      1  0.5091930000000  0.5640020000000  0.5842670000000 1.0
C      1  0.5821860000000  0.5706210000000  0.4736140000000 1.0
C      1  0.5612990000000  0.5584940000000  0.4121350000000 1.0
C      1  0.5138530000000  0.5259580000000  0.5111260000000 1.0
C      1  0.5185870000000  0.4227430000000  0.4458230000000 1.0
C      1  0.5324580000000  0.5526530000000  0.5988210000000 1.0
C      1  0.4766580000000  0.5277290000000  0.5757720000000 1.0
C      1  0.5403140000000  0.4573130000000  0.4848110000000 1.0
C      1  0.4129010000000  0.5236270000000  0.4480170000000 1.0
C      1  0.5074250000000  0.4897010000000  0.3867480000000 1.0
C      1  0.4839150000000  0.4999530000000  0.5089250000000 1.0
C      1  0.5468400000000  0.4151610000000  0.4436010000000 1.0
C      1  0.5011120000000  0.5193670000000  0.5577770000000 1.0
C      1  0.4164960000000  0.5517260000000  0.4434130000000 1.0
C      1  0.5166210000000  0.4683090000000  0.5713450000000 1.0
C      1  0.4768840000000  0.6003310000000  0.5635240000000 1.0
C      1  0.5583140000000  0.5146570000000  0.3876210000000 1.0
C      1  0.4588480000000  0.4977750000000  0.4368420000000 1.0
C      1  0.4187560000000  0.5010010000000  0.5768900000000 1.0
C      1  0.4725620000000  0.4779950000000  0.4205040000000 1.0
C      1  0.5002790000000  0.5223590000000  0.4508160000000 1.0
C      1  0.4355490000000  0.5691340000000  0.4609260000000 1.0
C      1  0.5248280000000  0.4000860000000  0.5529210000000 1.0
C      1  0.4594560000000  0.4883310000000  0.5460840000000 1.0
C      1  0.4787450000000  0.5866020000000  0.5254620000000 1.0
C      1  0.4156070000000  0.5507240000000  0.5894730000000 1.0
C      1  0.4038930000000  0.5165180000000  0.4739830000000 1.0
C      1  0.5163780000000  0.4441130000000  0.4670570000000 1.0
C      1  0.3986310000000  0.4891030000000  0.4848000000000 1.0
C      1  0.4669670000000  0.5412710000000  0.4006220000000 1.0
C      1  0.5937350000000  0.4882890000000  0.5536170000000 1.0
C      1  0.4193440000000  0.4777640000000  0.4264000000000 1.0
C      1  0.5319910000000  0.4684420000000  0.5972990000000 1.0
C      1  0.4852550000000  0.4255920000000  0.5816620000000 1.0
C      1  0.4251990000000  0.4188120000000  0.5336780000000 1.0
C      1  0.4338630000000  0.5785660000000  0.5500680000000 1.0
C      1  0.5689070000000  0.5877760000000  0.4928220000000 1.0
C      1  0.5365980000000  0.5614670000000  0.5506790000000 1.0
C      1  0.5988120000000  0.4658160000000  0.4821160000000 1.0
C      1  0.4953030000000  0.5432520000000  0.4972580000000 1.0
C      1  0.6040100000000  0.5059180000000  0.4630480000000 1.0
C      1  0.4927650000000  0.5994180000000  0.4765980000000 1.0
C      1  0.6114810000000  0.5370540000000  0.5342290000000 1.0
C      1  0.4037950000000  0.4069960000000  0.4921030000000 1.0
C      1  0.5524890000000  0.5615090000000  0.5791680000000 1.0
C      1  0.4786620000000  0.4043800000000  0.5405710000000 1.0
C      1  0.4082010000000  0.5379250000000  0.5417420000000 1.0
C      1  0.4343690000000  0.4894470000000  0.5985810000000 1.0
C      1  0.4631020000000  0.4937700000000  0.6069350000000 1.0
C      1  0.4828490000000  0.4727250000000  0.6048260000000 1.0
C      1  0.4796170000000  0.5176440000000  0.6030760000000 1.0
C      1  0.5734710000000  0.5073790000000  0.5020850000000 1.0
C      1  0.5281960000000  0.4498210000000  0.5493770000000 1.0
C      1  0.5367700000000  0.6045460000000  0.4551070000000 1.0
C      1  0.4598440000000  0.5520550000000  0.4774560000000 1.0
C      1  0.4251720000000  0.3879690000000  0.4873910000000 1.0
C      1  0.5930640000000  0.4965050000000  0.4395850000000 1.0
C      1  0.5217370000000  0.4985730000000  0.5632050000000 1.0
C      1  0.4028260000000  0.5378640000000  0.4946830000000 1.0
C      1  0.5102810000000  0.5171980000000  0.3972010000000 1.0
C      1  0.5118960000000  0.5714450000000  0.4151740000000 1.0
C      1  0.5591630000000  0.4782980000000  0.5925520000000 1.0
C      1  0.4638010000000  0.5763590000000  0.5501100000000 1.0
C      1  0.5830660000000  0.4927220000000  0.4794630000000 1.0
C      1  0.4606600000000  0.5346410000000  0.5309170000000 1.0
C      1  0.5414010000000  0.4311040000000  0.5042430000000 1.0
C      1  0.4700820000000  0.4648970000000  0.5539300000000 1.0
C      1  0.6008240000000  0.4612950000000  0.5105040000000 1.0
C      1  0.5579010000000  0.5450240000000  0.4390730000000 1.0
C      1  0.5165290000000  0.5209470000000  0.4256980000000 1.0
C      1  0.4407640000000  0.6084110000000  0.4928390000000 1.0
C      1  0.4294080000000  0.4632030000000  0.5908870000000 1.0
C      1  0.5039120000000  0.5907030000000  0.5708890000000 1.0
C      1  0.6057440000000  0.4864380000000  0.5265740000000 1.0
C      1  0.5086020000000  0.6104460000000  0.4527800000000 1.0
C      1  0.4071460000000  0.4026700000000  0.5201010000000 1.0
C      1  0.5219990000000  0.5881090000000  0.5480630000000 1.0
C      1  0.4774750000000  0.5760830000000  0.4363180000000 1.0
C      1  0.5320100000000  0.4776190000000  0.3983050000000 1.0
C      1  0.5363840000000  0.5422970000000  0.5016220000000 1.0
C      1  0.5656040000000  0.5212850000000  0.5247170000000 1.0
C      1  0.5474580000000  0.5108510000000  0.5681610000000 1.0
C      1  0.5080050000000  0.5884290000000  0.5220310000000 1.0
C      1  0.4852770000000  0.4569640000000  0.5791090000000 1.0
C      1  0.4844930000000  0.4548130000000  0.5309480000000 1.0
C      1  0.4753080000000  0.6139410000000  0.5363630000000 1.0
C      1  0.4261710000000  0.5840220000000  0.4853950000000 1.0
C      1  0.5470680000000  0.3893960000000  0.4830680000000 1.0
C      1  0.6136110000000  0.5131250000000  0.5157940000000 1.0
C      1  0.5343160000000  0.5580840000000  0.3998200000000 1.0
C      1  0.4968280000000  0.4289460000000  0.4852660000000 1.0
C      1  0.5766840000000  0.5507180000000  0.5723090000000 1.0
C      1  0.4156740000000  0.4688630000000  0.5405460000000 1.0
C      1  0.4021080000000  0.4829610000000  0.5609400000000 1.0
C      1  0.3978210000000  0.5233970000000  0.5188580000000 1.0
C      1  0.5110800000000  0.5481450000000  0.5592610000000 1.0
END
