TITL C-883734-4173-477 -1.76796258287528 125000 -22211.4200000216 0 0 148 (C1) n - 1
REM
REM in /home/nfs/bkarasulu/CARBON/AIRSS/Generating-Clusters/ReaxFF-fromJPCA2015/Units_Real/with-SteepDescent/Only-C1/SD-CG/Try1-3A/FIRE-CG
REM
REM
REM
REM
REM
REM ./C.cell (11c1c37f851c82e70ff6c80c92926a4b)
REM
REM compiler GCC version 9.2.1 20190827 (Red Hat 9.2.1-1)
REM options -cpp -mtune=generic -march=x86-64 -g -O0 -fpre-include=/usr/include/finclude/math-vector-fortran.h
REM seed 907055621 -501291284 -1442656734 1578180213 -167642799 1799240995 -577371331 1253042635 1019728984 1783768896 126888477 -254626024 -1488470274 -861019551 -647643186 -1021706068 -248307621 -878861693 -1325819792 -70284945 1844224613 1552835826 -237819937 -1977943384 -378839710 508399034 1674113992 -2095616641 -858609096 -2050647257 -750351123 1015591665 -1829043738
REM
CELL 1.54180   50.00000   50.00000   50.00000   90.00000   90.00000   90.00000
LATT -1
SFAC C  
C      1  0.4863000000000  0.5240000000000  0.5480280000000 1.0
C      1  0.5192370000000  0.5204780000000  0.5992970000000 1.0
C      1  0.5036510000000  0.4990310000000  0.5545790000000 1.0
C      1  0.4983620000000  0.5591410000000  0.4062980000000 1.0
C      1  0.4114600000000  0.4709810000000  0.5423370000000 1.0
C      1  0.5417720000000  0.5396390000000  0.4857790000000 1.0
C      1  0.4915460000000  0.5812240000000  0.4780670000000 1.0
C      1  0.5702320000000  0.4977720000000  0.5062740000000 1.0
C      1  0.4031170000000  0.5208730000000  0.5106320000000 1.0
C      1  0.4451970000000  0.4152000000000  0.4762880000000 1.0
C      1  0.4834400000000  0.5307400000000  0.4658780000000 1.0
C      1  0.5881260000000  0.4616430000000  0.5218680000000 1.0
C      1  0.5710340000000  0.5679510000000  0.5443900000000 1.0
C      1  0.5510610000000  0.4731770000000  0.4224600000000 1.0
C      1  0.4871040000000  0.4366690000000  0.4628490000000 1.0
C      1  0.4925660000000  0.3943020000000  0.4721610000000 1.0
C      1  0.4790260000000  0.4185160000000  0.4407080000000 1.0
C      1  0.4351410000000  0.6050570000000  0.5064950000000 1.0
C      1  0.4726620000000  0.5179760000000  0.6040300000000 1.0
C      1  0.4952310000000  0.5923370000000  0.5304190000000 1.0
C      1  0.5583580000000  0.4997930000000  0.5375250000000 1.0
C      1  0.5279070000000  0.6063390000000  0.5075330000000 1.0
C      1  0.4707660000000  0.4534990000000  0.4799530000000 1.0
C      1  0.4987640000000  0.4298400000000  0.5163610000000 1.0
C      1  0.4339250000000  0.5753540000000  0.4698310000000 1.0
C      1  0.5335200000000  0.5187780000000  0.4002050000000 1.0
C      1  0.5921420000000  0.5320380000000  0.4359060000000 1.0
C      1  0.5530840000000  0.5875590000000  0.4463480000000 1.0
C      1  0.4595700000000  0.4087400000000  0.5299700000000 1.0
C      1  0.5286020000000  0.5152250000000  0.4892050000000 1.0
C      1  0.4599520000000  0.5265690000000  0.5251480000000 1.0
C      1  0.5860950000000  0.5529090000000  0.4524400000000 1.0
C      1  0.4821360000000  0.4985810000000  0.3957890000000 1.0
C      1  0.4766490000000  0.5396310000000  0.4163960000000 1.0
C      1  0.5826090000000  0.5824510000000  0.4461300000000 1.0
C      1  0.4974110000000  0.5320670000000  0.4411860000000 1.0
C      1  0.4363590000000  0.5307670000000  0.5762490000000 1.0
C      1  0.5228050000000  0.3935520000000  0.5003810000000 1.0
C      1  0.4693880000000  0.4307770000000  0.5754110000000 1.0
C      1  0.4471760000000  0.5720060000000  0.5426770000000 1.0
C      1  0.5336490000000  0.4667470000000  0.5174460000000 1.0
C      1  0.5835570000000  0.5214420000000  0.4914050000000 1.0
C      1  0.4411380000000  0.6033870000000  0.4765810000000 1.0
C      1  0.5468640000000  0.5184850000000  0.4467480000000 1.0
C      1  0.5664450000000  0.5351910000000  0.4685710000000 1.0
C      1  0.4322020000000  0.5301950000000  0.4456860000000 1.0
C      1  0.5260960000000  0.5638970000000  0.5655470000000 1.0
C      1  0.5082110000000  0.5306440000000  0.5298050000000 1.0
C      1  0.4618720000000  0.5646840000000  0.4269760000000 1.0
C      1  0.5629680000000  0.4293020000000  0.4534710000000 1.0
C      1  0.5519010000000  0.5533400000000  0.5596270000000 1.0
C      1  0.4656740000000  0.4378310000000  0.4240030000000 1.0
C      1  0.4521870000000  0.5529050000000  0.5634300000000 1.0
C      1  0.5681060000000  0.5053380000000  0.5801440000000 1.0
C      1  0.4605940000000  0.5084880000000  0.5035850000000 1.0
C      1  0.5974560000000  0.4935200000000  0.4489040000000 1.0
C      1  0.4599830000000  0.4806300000000  0.5774630000000 1.0
C      1  0.4383170000000  0.4787100000000  0.4322990000000 1.0
C      1  0.4788980000000  0.5453300000000  0.5665340000000 1.0
C      1  0.5168230000000  0.5881140000000  0.5503850000000 1.0
C      1  0.5511390000000  0.4765560000000  0.4973250000000 1.0
C      1  0.5001090000000  0.4000320000000  0.5193280000000 1.0
C      1  0.4201900000000  0.5233870000000  0.4712770000000 1.0
C      1  0.4763620000000  0.5519910000000  0.5107760000000 1.0
C      1  0.5872000000000  0.5431280000000  0.5400090000000 1.0
C      1  0.4582610000000  0.4860440000000  0.5478440000000 1.0
C      1  0.4942580000000  0.4846520000000  0.5783600000000 1.0
C      1  0.5475830000000  0.5852140000000  0.5013700000000 1.0
C      1  0.4726530000000  0.5745680000000  0.5284130000000 1.0
C      1  0.4968750000000  0.5023700000000  0.6029040000000 1.0
C      1  0.3956790000000  0.4685750000000  0.4940150000000 1.0
C      1  0.5136560000000  0.4586430000000  0.5833080000000 1.0
C      1  0.4492310000000  0.4507880000000  0.5685410000000 1.0
C      1  0.5066340000000  0.5546630000000  0.5162040000000 1.0
C      1  0.4330920000000  0.4373420000000  0.4645580000000 1.0
C      1  0.5253690000000  0.4151360000000  0.5585820000000 1.0
C      1  0.4312830000000  0.4379890000000  0.5182350000000 1.0
C      1  0.4428020000000  0.4144610000000  0.5080880000000 1.0
C      1  0.5421480000000  0.4155690000000  0.5047980000000 1.0
C      1  0.5817940000000  0.4369630000000  0.5071530000000 1.0
C      1  0.3890720000000  0.4957400000000  0.5043130000000 1.0
C      1  0.5455790000000  0.4730760000000  0.4700240000000 1.0
C      1  0.5197860000000  0.3980810000000  0.4715790000000 1.0
C      1  0.5774800000000  0.4348230000000  0.4779180000000 1.0
C      1  0.4209230000000  0.4521030000000  0.4894900000000 1.0
C      1  0.4126080000000  0.5293050000000  0.5597550000000 1.0
C      1  0.4666940000000  0.3999560000000  0.4618950000000 1.0
C      1  0.5085310000000  0.5093670000000  0.3938600000000 1.0
C      1  0.4917680000000  0.4478150000000  0.4127010000000 1.0
C      1  0.4861860000000  0.4891020000000  0.5073770000000 1.0
C      1  0.5962820000000  0.4823750000000  0.5032560000000 1.0
C      1  0.5354410000000  0.4222090000000  0.4581470000000 1.0
C      1  0.5367060000000  0.6045180000000  0.5363930000000 1.0
C      1  0.5677750000000  0.4758160000000  0.5733930000000 1.0
C      1  0.4612410000000  0.5150830000000  0.4074450000000 1.0
C      1  0.5548230000000  0.5019280000000  0.4200430000000 1.0
C      1  0.4258380000000  0.5209900000000  0.5320820000000 1.0
C      1  0.4774150000000  0.4723300000000  0.5309450000000 1.0
C      1  0.5244570000000  0.5456320000000  0.4071720000000 1.0
C      1  0.4875320000000  0.5786120000000  0.4259210000000 1.0
C      1  0.5500590000000  0.4144980000000  0.5447020000000 1.0
C      1  0.5136340000000  0.5469470000000  0.5873440000000 1.0
C      1  0.5205150000000  0.4433290000000  0.4180230000000 1.0
C      1  0.5434550000000  0.5018760000000  0.5962830000000 1.0
C      1  0.5021330000000  0.5855240000000  0.4507340000000 1.0
C      1  0.4285130000000  0.5797400000000  0.5208220000000 1.0
C      1  0.5865620000000  0.5062820000000  0.4265970000000 1.0
C      1  0.5360470000000  0.5000980000000  0.4664690000000 1.0
C      1  0.5308750000000  0.5606010000000  0.5002870000000 1.0
C      1  0.4933900000000  0.4669480000000  0.4895660000000 1.0
C      1  0.5664340000000  0.5233700000000  0.5564570000000 1.0
C      1  0.4757540000000  0.5007860000000  0.4593360000000 1.0
C      1  0.5872290000000  0.5343180000000  0.5146560000000 1.0
C      1  0.5141180000000  0.5082400000000  0.5135390000000 1.0
C      1  0.5024740000000  0.3984920000000  0.5484510000000 1.0
C      1  0.4903820000000  0.4777740000000  0.4160990000000 1.0
C      1  0.5255700000000  0.5425770000000  0.4382350000000 1.0
C      1  0.4354640000000  0.5045000000000  0.4891070000000 1.0
C      1  0.4329050000000  0.4777060000000  0.4792230000000 1.0
C      1  0.5252450000000  0.4398110000000  0.5105630000000 1.0
C      1  0.5483620000000  0.4460180000000  0.4261130000000 1.0
C      1  0.4945210000000  0.4855640000000  0.4435220000000 1.0
C      1  0.4303400000000  0.4923250000000  0.5394820000000 1.0
C      1  0.4428300000000  0.4508370000000  0.4384320000000 1.0
C      1  0.4218100000000  0.5662180000000  0.4949530000000 1.0
C      1  0.3897820000000  0.4723940000000  0.5221740000000 1.0
C      1  0.5725610000000  0.4748270000000  0.5440680000000 1.0
C      1  0.5610040000000  0.5899450000000  0.5273970000000 1.0
C      1  0.5665080000000  0.4153880000000  0.5221750000000 1.0
C      1  0.4792610000000  0.5554130000000  0.4812400000000 1.0
C      1  0.4592720000000  0.4780040000000  0.4699680000000 1.0
C      1  0.4749820000000  0.4073650000000  0.5532080000000 1.0
C      1  0.4854650000000  0.5434000000000  0.5931040000000 1.0
C      1  0.4299260000000  0.4479060000000  0.5456610000000 1.0
C      1  0.5054060000000  0.4624820000000  0.4624410000000 1.0
C      1  0.4409200000000  0.5074600000000  0.4266770000000 1.0
C      1  0.4911110000000  0.4382830000000  0.5932250000000 1.0
C      1  0.4920740000000  0.4482470000000  0.5382890000000 1.0
C      1  0.5257800000000  0.4906370000000  0.5356420000000 1.0
C      1  0.4410940000000  0.5579880000000  0.4462560000000 1.0
C      1  0.5007200000000  0.5973060000000  0.5020230000000 1.0
C      1  0.6046490000000  0.4817360000000  0.4741090000000 1.0
C      1  0.5300540000000  0.4506450000000  0.4619250000000 1.0
C      1  0.4068980000000  0.5413710000000  0.4905430000000 1.0
C      1  0.5281050000000  0.5727630000000  0.4478070000000 1.0
C      1  0.4506270000000  0.5068890000000  0.5892300000000 1.0
C      1  0.5136760000000  0.4430500000000  0.5581180000000 1.0
C      1  0.5426240000000  0.4738320000000  0.5888380000000 1.0
END
