TITL C-883734-4173-127 2.50917213646751 125000 -6184.42241489881 0 0 43 (C1) n - 1
REM
REM in /home/nfs/bkarasulu/CARBON/AIRSS/Generating-Clusters/ReaxFF-fromJPCA2015/Units_Real/with-SteepDescent/Only-C1/SD-CG/Try1-3A/FIRE-CG
REM
REM
REM
REM
REM
REM ./C.cell (11c1c37f851c82e70ff6c80c92926a4b)
REM
REM compiler GCC version 9.2.1 20190827 (Red Hat 9.2.1-1)
REM options -cpp -mtune=generic -march=x86-64 -g -O0 -fpre-include=/usr/include/finclude/math-vector-fortran.h
REM seed 93811139 1261869438 -1055389749 1648422418 -1813203417 401820683 -1034088403 688240623 -268828214 -501583855 460746530 123974692 -536159877 -1474231822 -1739091441 306833579 -2034855 -67677059 108052397 274333148 -193559079 1592478561 388863143 -331611393 1766092281 1025917795 1609081874 1434378618 530429701 -921477838 595928606 254090550 1469964947
REM
CELL 1.54180   50.00000   50.00000   50.00000   90.00000   90.00000   90.00000
LATT -1
SFAC C  
C      1  0.4602080000000  0.4686620000000  0.4589460000000 1.0
C      1  0.5004410000000  0.4318950000000  0.5050560000000 1.0
C      1  0.4570750000000  0.5530140000000  0.5065170000000 1.0
C      1  0.5376890000000  0.4606980000000  0.5228250000000 1.0
C      1  0.5021740000000  0.4663100000000  0.4434960000000 1.0
C      1  0.4995650000000  0.4732120000000  0.5580110000000 1.0
C      1  0.4480170000000  0.5255000000000  0.5061210000000 1.0
C      1  0.4782120000000  0.4771790000000  0.4366590000000 1.0
C      1  0.5531580000000  0.4809600000000  0.5097990000000 1.0
C      1  0.5208370000000  0.5333980000000  0.4729150000000 1.0
C      1  0.4979870000000  0.5176680000000  0.4785510000000 1.0
C      1  0.4743050000000  0.4462150000000  0.5032650000000 1.0
C      1  0.5587290000000  0.5020500000000  0.5288610000000 1.0
C      1  0.4592940000000  0.4550720000000  0.5277000000000 1.0
C      1  0.4954910000000  0.5451380000000  0.4766390000000 1.0
C      1  0.4524280000000  0.4818990000000  0.5370890000000 1.0
C      1  0.4762190000000  0.4684470000000  0.4840480000000 1.0
C      1  0.5226050000000  0.4582570000000  0.4558370000000 1.0
C      1  0.5431200000000  0.5217850000000  0.5448200000000 1.0
C      1  0.4427650000000  0.5155070000000  0.4774560000000 1.0
C      1  0.4780950000000  0.5220640000000  0.5455830000000 1.0
C      1  0.4795170000000  0.5625330000000  0.5209190000000 1.0
C      1  0.5443290000000  0.4937430000000  0.5532720000000 1.0
C      1  0.4811450000000  0.5623140000000  0.4933970000000 1.0
C      1  0.4787150000000  0.5078970000000  0.4345950000000 1.0
C      1  0.4985260000000  0.4943700000000  0.5209810000000 1.0
C      1  0.5058660000000  0.5175750000000  0.4297670000000 1.0
C      1  0.5281730000000  0.4414950000000  0.5023360000000 1.0
C      1  0.5230400000000  0.5426170000000  0.5369020000000 1.0
C      1  0.4586830000000  0.5214380000000  0.4524650000000 1.0
C      1  0.4719290000000  0.4650030000000  0.5519530000000 1.0
C      1  0.5399080000000  0.5575590000000  0.5212660000000 1.0
C      1  0.5423550000000  0.4999580000000  0.4627450000000 1.0
C      1  0.4935480000000  0.5450980000000  0.5379200000000 1.0
C      1  0.4930960000000  0.4926530000000  0.4936220000000 1.0
C      1  0.5001210000000  0.5015770000000  0.5481940000000 1.0
C      1  0.4559520000000  0.5104840000000  0.5295470000000 1.0
C      1  0.5302170000000  0.5204930000000  0.4474050000000 1.0
C      1  0.4429090000000  0.4879670000000  0.4704900000000 1.0
C      1  0.5276100000000  0.4694670000000  0.5494260000000 1.0
C      1  0.5393720000000  0.4514160000000  0.4760880000000 1.0
C      1  0.5516700000000  0.4785550000000  0.4791660000000 1.0
C      1  0.5549030000000  0.5708600000000  0.5073510000000 1.0
END
