TITL C-883741-3679-125 107.851271695678 125000 -26627.613381999 0 0 181 (C1) n - 1
REM
REM in /home/nfs/bkarasulu/CARBON/AIRSS/Generating-Clusters/ReaxFF-fromJPCA2015/Units_Real/with-SteepDescent/Only-C1/SD-CG/Try1-3A/FIRE-CG
REM
REM
REM
REM
REM
REM ./C.cell (11c1c37f851c82e70ff6c80c92926a4b)
REM
REM compiler GCC version 9.2.1 20190827 (Red Hat 9.2.1-1)
REM options -cpp -mtune=generic -march=x86-64 -g -O0 -fpre-include=/usr/include/finclude/math-vector-fortran.h
REM seed 2098063265 -1828114925 1113750591 451858216 1592677162 247065136 -286636710 -83814224 583694180 319172704 -946585358 -1712722884 -1411801003 -2015633175 -1702975339 393987941 -1971687068 1268802279 -1358947550 20909301 -1548419235 2133888693 934548076 203809288 1470959934 1297909353 -1393865855 293374458 33786094 2074915234 -82803001 385380413 813183081
REM
CELL 1.54180   50.00000   50.00000   50.00000   90.00000   90.00000   90.00000
LATT -1
SFAC C  
C      1  0.5205240000000  0.5304330000000  0.4892090000000 1.0
C      1  0.5238670000000  0.5447040000000  0.3988410000000 1.0
C      1  0.4979800000000  0.5011610000000  0.3956300000000 1.0
C      1  0.5181650000000  0.4639270000000  0.6116330000000 1.0
C      1  0.4482190000000  0.5841170000000  0.5378940000000 1.0
C      1  0.5535960000000  0.4949590000000  0.5943150000000 1.0
C      1  0.4091430000000  0.5490040000000  0.5216660000000 1.0
C      1  0.4711130000000  0.3865260000000  0.5250040000000 1.0
C      1  0.4382860000000  0.5633700000000  0.4506620000000 1.0
C      1  0.5666900000000  0.4705150000000  0.5831930000000 1.0
C      1  0.5995950000000  0.4774850000000  0.5427250000000 1.0
C      1  0.5806790000000  0.4992850000000  0.4177800000000 1.0
C      1  0.6174910000000  0.4977190000000  0.4852520000000 1.0
C      1  0.4091440000000  0.5133940000000  0.5562230000000 1.0
C      1  0.6011300000000  0.4583610000000  0.4656030000000 1.0
C      1  0.5483930000000  0.4910810000000  0.3921490000000 1.0
C      1  0.4802350000000  0.4385360000000  0.5321100000000 1.0
C      1  0.4769270000000  0.5758190000000  0.4231020000000 1.0
C      1  0.4613630000000  0.4043950000000  0.4842670000000 1.0
C      1  0.4717920000000  0.5040030000000  0.6065170000000 1.0
C      1  0.4909270000000  0.4775640000000  0.4769800000000 1.0
C      1  0.5512350000000  0.4468030000000  0.5826410000000 1.0
C      1  0.4505720000000  0.4547090000000  0.5008870000000 1.0
C      1  0.3921810000000  0.4646380000000  0.4836230000000 1.0
C      1  0.4250110000000  0.5676800000000  0.5446050000000 1.0
C      1  0.4790570000000  0.6086090000000  0.5114860000000 1.0
C      1  0.4607380000000  0.3982690000000  0.5473850000000 1.0
C      1  0.5623520000000  0.5223550000000  0.5875460000000 1.0
C      1  0.4360530000000  0.5430710000000  0.4301000000000 1.0
C      1  0.5201590000000  0.6001750000000  0.5194120000000 1.0
C      1  0.5530270000000  0.5151180000000  0.4557760000000 1.0
C      1  0.4081490000000  0.5475790000000  0.4924610000000 1.0
C      1  0.5548950000000  0.4711930000000  0.5198810000000 1.0
C      1  0.4919010000000  0.4701130000000  0.6189840000000 1.0
C      1  0.5209470000000  0.4237950000000  0.4138680000000 1.0
C      1  0.6005010000000  0.5303730000000  0.5450230000000 1.0
C      1  0.5312080000000  0.4229650000000  0.5499840000000 1.0
C      1  0.3987560000000  0.5220250000000  0.4799800000000 1.0
C      1  0.4998660000000  0.5290690000000  0.4676850000000 1.0
C      1  0.4522190000000  0.4230350000000  0.4362250000000 1.0
C      1  0.4609530000000  0.5304700000000  0.5226570000000 1.0
C      1  0.5962210000000  0.5010130000000  0.5063690000000 1.0
C      1  0.4697190000000  0.4754210000000  0.6022750000000 1.0
C      1  0.5857140000000  0.4604660000000  0.5612610000000 1.0
C      1  0.4637680000000  0.5176830000000  0.4459080000000 1.0
C      1  0.5598840000000  0.4649490000000  0.4652360000000 1.0
C      1  0.5219550000000  0.5354110000000  0.5640720000000 1.0
C      1  0.5290040000000  0.5832340000000  0.5650610000000 1.0
C      1  0.5158110000000  0.4613660000000  0.5127870000000 1.0
C      1  0.5802540000000  0.4445460000000  0.4790250000000 1.0
C      1  0.4239660000000  0.4126210000000  0.5122490000000 1.0
C      1  0.5384400000000  0.4481690000000  0.5246070000000 1.0
C      1  0.4654820000000  0.5896320000000  0.4908860000000 1.0
C      1  0.4200980000000  0.4522040000000  0.4467950000000 1.0
C      1  0.5102880000000  0.4496350000000  0.4183210000000 1.0
C      1  0.5833270000000  0.5808970000000  0.4935070000000 1.0
C      1  0.5096480000000  0.4247910000000  0.5680550000000 1.0
C      1  0.4751180000000  0.4690400000000  0.5722640000000 1.0
C      1  0.5456450000000  0.5607160000000  0.4591450000000 1.0
C      1  0.5799020000000  0.4352700000000  0.5465470000000 1.0
C      1  0.5530550000000  0.4067590000000  0.4471010000000 1.0
C      1  0.5262950000000  0.4916070000000  0.6088770000000 1.0
C      1  0.4796720000000  0.3863040000000  0.4985650000000 1.0
C      1  0.4903380000000  0.4252510000000  0.5092430000000 1.0
C      1  0.5038930000000  0.5017900000000  0.4579640000000 1.0
C      1  0.5200900000000  0.5009220000000  0.4352290000000 1.0
C      1  0.5641700000000  0.5169490000000  0.3996730000000 1.0
C      1  0.4316180000000  0.5012120000000  0.5196030000000 1.0
C      1  0.4835530000000  0.4888760000000  0.5032670000000 1.0
C      1  0.3975400000000  0.5251310000000  0.5325970000000 1.0
C      1  0.5190880000000  0.6056890000000  0.5480540000000 1.0
C      1  0.4466940000000  0.4960890000000  0.3928820000000 1.0
C      1  0.5472230000000  0.5664050000000  0.4854400000000 1.0
C      1  0.4307660000000  0.4804880000000  0.5636020000000 1.0
C      1  0.5930690000000  0.4473190000000  0.5035080000000 1.0
C      1  0.6013260000000  0.5431910000000  0.4882220000000 1.0
C      1  0.4251060000000  0.5041820000000  0.5784670000000 1.0
C      1  0.5473020000000  0.5898980000000  0.4532450000000 1.0
C      1  0.4225420000000  0.5163190000000  0.4335180000000 1.0
C      1  0.4607040000000  0.5831600000000  0.4447900000000 1.0
C      1  0.4797640000000  0.4215880000000  0.5602780000000 1.0
C      1  0.3891690000000  0.5110590000000  0.5049190000000 1.0
C      1  0.4125070000000  0.4766090000000  0.4639210000000 1.0
C      1  0.5106670000000  0.4580860000000  0.4850590000000 1.0
C      1  0.5023810000000  0.5804380000000  0.5777560000000 1.0
C      1  0.4434200000000  0.4766990000000  0.4789370000000 1.0
C      1  0.5496140000000  0.4226040000000  0.4212070000000 1.0
C      1  0.4953370000000  0.5254090000000  0.5576840000000 1.0
C      1  0.5837320000000  0.4715850000000  0.5161290000000 1.0
C      1  0.4335690000000  0.4116550000000  0.4832120000000 1.0
C      1  0.4366600000000  0.4130260000000  0.5395120000000 1.0
C      1  0.5222650000000  0.5607660000000  0.4922970000000 1.0
C      1  0.5055300000000  0.4002000000000  0.5070250000000 1.0
C      1  0.4980220000000  0.4808460000000  0.5267600000000 1.0
C      1  0.4318000000000  0.4272040000000  0.4571810000000 1.0
C      1  0.5051190000000  0.5223260000000  0.4147540000000 1.0
C      1  0.4673000000000  0.4910080000000  0.4376770000000 1.0
C      1  0.5619210000000  0.5927070000000  0.4794070000000 1.0
C      1  0.4625210000000  0.5507550000000  0.4183260000000 1.0
C      1  0.4500590000000  0.5111050000000  0.5396460000000 1.0
C      1  0.5664380000000  0.4751860000000  0.4085280000000 1.0
C      1  0.4510610000000  0.5287360000000  0.4700430000000 1.0
C      1  0.5362240000000  0.5365500000000  0.5902300000000 1.0
C      1  0.4906940000000  0.5549080000000  0.5867680000000 1.0
C      1  0.4730780000000  0.4309160000000  0.4863550000000 1.0
C      1  0.5689910000000  0.4915890000000  0.4577840000000 1.0
C      1  0.5495710000000  0.4227740000000  0.5137560000000 1.0
C      1  0.5013930000000  0.6059740000000  0.4687220000000 1.0
C      1  0.6052120000000  0.5468100000000  0.5176500000000 1.0
C      1  0.4481000000000  0.5148830000000  0.5938890000000 1.0
C      1  0.5043820000000  0.6122360000000  0.4983770000000 1.0
C      1  0.5200090000000  0.4846670000000  0.3873720000000 1.0
C      1  0.5550870000000  0.4511990000000  0.4236950000000 1.0
C      1  0.5923800000000  0.5347740000000  0.4621850000000 1.0
C      1  0.4920410000000  0.6016890000000  0.5596270000000 1.0
C      1  0.5647060000000  0.5418640000000  0.5199170000000 1.0
C      1  0.3894120000000  0.4823090000000  0.5074370000000 1.0
C      1  0.5249230000000  0.5695860000000  0.4097630000000 1.0
C      1  0.5575970000000  0.4261820000000  0.5623350000000 1.0
C      1  0.4716870000000  0.6006140000000  0.5383020000000 1.0
C      1  0.4823140000000  0.5342490000000  0.4308340000000 1.0
C      1  0.5171750000000  0.5689220000000  0.5208250000000 1.0
C      1  0.5008110000000  0.5096540000000  0.5333370000000 1.0
C      1  0.4264120000000  0.5863710000000  0.5210760000000 1.0
C      1  0.4617350000000  0.4599510000000  0.5271050000000 1.0
C      1  0.4045080000000  0.4404590000000  0.4907630000000 1.0
C      1  0.4549630000000  0.4445370000000  0.4177630000000 1.0
C      1  0.4692550000000  0.5134060000000  0.5017310000000 1.0
C      1  0.4230410000000  0.4418790000000  0.5122680000000 1.0
C      1  0.4616160000000  0.5586640000000  0.5880170000000 1.0
C      1  0.5327290000000  0.5590290000000  0.5484810000000 1.0
C      1  0.4360150000000  0.4381670000000  0.5543300000000 1.0
C      1  0.4742060000000  0.5983980000000  0.4646790000000 1.0
C      1  0.5788360000000  0.4277990000000  0.5172180000000 1.0
C      1  0.5250800000000  0.4955250000000  0.5629610000000 1.0
C      1  0.5459040000000  0.5068070000000  0.5482840000000 1.0
C      1  0.5196560000000  0.5981640000000  0.4478150000000 1.0
C      1  0.4746970000000  0.4869760000000  0.4080640000000 1.0
C      1  0.5093460000000  0.5367550000000  0.6024580000000 1.0
C      1  0.5334230000000  0.4040840000000  0.4978500000000 1.0
C      1  0.5457470000000  0.4991360000000  0.5203660000000 1.0
C      1  0.5203660000000  0.4497090000000  0.5829950000000 1.0
C      1  0.5006870000000  0.4030150000000  0.4228640000000 1.0
C      1  0.4560930000000  0.4821760000000  0.5501810000000 1.0
C      1  0.4175120000000  0.4606320000000  0.5481040000000 1.0
C      1  0.4391410000000  0.5403870000000  0.5907490000000 1.0
C      1  0.5509120000000  0.5417720000000  0.4007370000000 1.0
C      1  0.4888670000000  0.5591660000000  0.5225120000000 1.0
C      1  0.4085890000000  0.5065430000000  0.4566020000000 1.0
C      1  0.5458570000000  0.5177390000000  0.4825830000000 1.0
C      1  0.5180840000000  0.4390420000000  0.4650090000000 1.0
C      1  0.5383490000000  0.4573440000000  0.4465510000000 1.0
C      1  0.5803860000000  0.5330530000000  0.5660530000000 1.0
C      1  0.4296760000000  0.4925070000000  0.4151390000000 1.0
C      1  0.4329110000000  0.4619350000000  0.4229310000000 1.0
C      1  0.4765780000000  0.5416000000000  0.4774140000000 1.0
C      1  0.4808230000000  0.4124360000000  0.4425060000000 1.0
C      1  0.4903280000000  0.4307250000000  0.4626200000000 1.0
C      1  0.6125460000000  0.4839170000000  0.4595890000000 1.0
C      1  0.5927950000000  0.5047450000000  0.4455350000000 1.0
C      1  0.4831410000000  0.4563510000000  0.4075620000000 1.0
C      1  0.5358880000000  0.4126360000000  0.4699180000000 1.0
C      1  0.5659820000000  0.5174920000000  0.5039210000000 1.0
C      1  0.5826990000000  0.5658600000000  0.5181720000000 1.0
C      1  0.4348840000000  0.5856900000000  0.4936290000000 1.0
C      1  0.4230620000000  0.5672750000000  0.4758630000000 1.0
C      1  0.4402530000000  0.5586360000000  0.5690070000000 1.0
C      1  0.5071610000000  0.4731810000000  0.5656220000000 1.0
C      1  0.5207350000000  0.5144680000000  0.5140320000000 1.0
C      1  0.4656300000000  0.4738690000000  0.4602500000000 1.0
C      1  0.5098930000000  0.4572570000000  0.3922310000000 1.0
C      1  0.4606560000000  0.4422950000000  0.5696900000000 1.0
C      1  0.4126870000000  0.4801570000000  0.5257280000000 1.0
C      1  0.4432610000000  0.5061610000000  0.4902220000000 1.0
C      1  0.5578640000000  0.5343840000000  0.5460840000000 1.0
C      1  0.5021890000000  0.5098680000000  0.6090350000000 1.0
C      1  0.4819190000000  0.5628200000000  0.4948590000000 1.0
C      1  0.6071470000000  0.5042570000000  0.5356600000000 1.0
C      1  0.5064790000000  0.5846830000000  0.4240140000000 1.0
C      1  0.4763550000000  0.5422890000000  0.5428050000000 1.0
C      1  0.5664750000000  0.5408630000000  0.4511990000000 1.0
END
