TITL C-883732-77-379 9.31848674454271 125000 -16839.1078577796 0 0 113 (C1) n - 1
REM
REM in /home/nfs/bkarasulu/CARBON/AIRSS/Generating-Clusters/ReaxFF-fromJPCA2015/Units_Real/with-SteepDescent/Only-C1/SD-CG/Try1-3A/FIRE-CG
REM
REM
REM
REM
REM
REM ./C.cell (11c1c37f851c82e70ff6c80c92926a4b)
REM
REM compiler GCC version 9.2.1 20190827 (Red Hat 9.2.1-1)
REM options -cpp -mtune=generic -march=x86-64 -g -O0 -fpre-include=/usr/include/finclude/math-vector-fortran.h
REM seed -1294498307 -506674823 242945244 1437274347 -1786984759 -1876444136 1565867693 652707783 -381195463 -599925853 -1110120098 -1890657201 -296326838 1897751523 -1025790117 1857394688 788592690 -2072166550 1989994799 2145677637 -562822288 691507757 472214598 -675577117 1371493935 -1858957003 1886247434 891349908 40098582 -552789107 -1110189161 781563449 -1876859622
REM
CELL 1.54180   50.00000   50.00000   50.00000   90.00000   90.00000   90.00000
LATT -1
SFAC C  
C      1  0.4313500000000  0.5029420000000  0.4377700000000 1.0
C      1  0.4736430000000  0.5774280000000  0.5374290000000 1.0
C      1  0.4465510000000  0.5664940000000  0.5383230000000 1.0
C      1  0.4361060000000  0.4324750000000  0.4603690000000 1.0
C      1  0.5484730000000  0.4505900000000  0.5582470000000 1.0
C      1  0.5993010000000  0.5005100000000  0.5378970000000 1.0
C      1  0.5200460000000  0.4531950000000  0.5703950000000 1.0
C      1  0.4669820000000  0.5405660000000  0.4741950000000 1.0
C      1  0.5192490000000  0.5381650000000  0.4822930000000 1.0
C      1  0.5098980000000  0.4311700000000  0.5271730000000 1.0
C      1  0.4369420000000  0.5298240000000  0.5119220000000 1.0
C      1  0.4299560000000  0.5694880000000  0.4855580000000 1.0
C      1  0.5491510000000  0.4902050000000  0.5831140000000 1.0
C      1  0.4270880000000  0.4871760000000  0.5327780000000 1.0
C      1  0.5384340000000  0.4784700000000  0.4455150000000 1.0
C      1  0.3911170000000  0.5094790000000  0.5048320000000 1.0
C      1  0.4413190000000  0.4426200000000  0.5748070000000 1.0
C      1  0.5297520000000  0.4306130000000  0.4438230000000 1.0
C      1  0.5376800000000  0.4238320000000  0.5200590000000 1.0
C      1  0.4748290000000  0.5466650000000  0.4452300000000 1.0
C      1  0.5842200000000  0.4755900000000  0.5440400000000 1.0
C      1  0.4852990000000  0.5806720000000  0.5091480000000 1.0
C      1  0.4225240000000  0.5199060000000  0.4646690000000 1.0
C      1  0.4453920000000  0.5498600000000  0.5632110000000 1.0
C      1  0.4366690000000  0.4328590000000  0.5518470000000 1.0
C      1  0.4980930000000  0.5015740000000  0.5373130000000 1.0
C      1  0.5080940000000  0.5235480000000  0.5050560000000 1.0
C      1  0.5553060000000  0.5042920000000  0.5137720000000 1.0
C      1  0.5776810000000  0.4647770000000  0.4905930000000 1.0
C      1  0.5478530000000  0.5637690000000  0.4625240000000 1.0
C      1  0.4186890000000  0.5502450000000  0.4671440000000 1.0
C      1  0.5145640000000  0.5061360000000  0.5611210000000 1.0
C      1  0.5579500000000  0.5620090000000  0.4893830000000 1.0
C      1  0.4505970000000  0.5902760000000  0.4747190000000 1.0
C      1  0.5014070000000  0.4601610000000  0.4145900000000 1.0
C      1  0.5410780000000  0.4306230000000  0.4906220000000 1.0
C      1  0.5685080000000  0.5172290000000  0.5588910000000 1.0
C      1  0.5175710000000  0.5315500000000  0.4217210000000 1.0
C      1  0.4053000000000  0.4992060000000  0.4832410000000 1.0
C      1  0.4457830000000  0.5202820000000  0.5738770000000 1.0
C      1  0.4481640000000  0.5186630000000  0.4819900000000 1.0
C      1  0.4221310000000  0.4736440000000  0.4876170000000 1.0
C      1  0.4453220000000  0.4930090000000  0.5614710000000 1.0
C      1  0.5150660000000  0.5896710000000  0.5005780000000 1.0
C      1  0.5832460000000  0.5464030000000  0.5251200000000 1.0
C      1  0.5772320000000  0.4583910000000  0.5204590000000 1.0
C      1  0.5469860000000  0.5167010000000  0.5383000000000 1.0
C      1  0.5633250000000  0.4455060000000  0.4750870000000 1.0
C      1  0.5363750000000  0.5665380000000  0.5375550000000 1.0
C      1  0.4676370000000  0.5285310000000  0.5927660000000 1.0
C      1  0.4534870000000  0.4872460000000  0.5189970000000 1.0
C      1  0.4513340000000  0.4580810000000  0.4235610000000 1.0
C      1  0.5403920000000  0.4869040000000  0.4963810000000 1.0
C      1  0.5218930000000  0.4815220000000  0.5772770000000 1.0
C      1  0.5604520000000  0.4375350000000  0.5326810000000 1.0
C      1  0.5194820000000  0.4816450000000  0.4211470000000 1.0
C      1  0.4550800000000  0.4329990000000  0.4377410000000 1.0
C      1  0.5057040000000  0.4340950000000  0.4269830000000 1.0
C      1  0.4895840000000  0.5672380000000  0.5591310000000 1.0
C      1  0.4995680000000  0.4385060000000  0.5543780000000 1.0
C      1  0.4231680000000  0.4580300000000  0.4616110000000 1.0
C      1  0.4465490000000  0.4218120000000  0.4861780000000 1.0
C      1  0.4809590000000  0.5539380000000  0.4957710000000 1.0
C      1  0.4690240000000  0.5559640000000  0.5781830000000 1.0
C      1  0.4736390000000  0.4518890000000  0.5509470000000 1.0
C      1  0.5207550000000  0.4213320000000  0.4696080000000 1.0
C      1  0.4771090000000  0.5968250000000  0.4819260000000 1.0
C      1  0.4375240000000  0.4256730000000  0.5121010000000 1.0
C      1  0.5169240000000  0.5632820000000  0.4623840000000 1.0
C      1  0.4919650000000  0.4201390000000  0.4686190000000 1.0
C      1  0.5392380000000  0.4614270000000  0.5065350000000 1.0
C      1  0.4300520000000  0.4734500000000  0.4376500000000 1.0
C      1  0.5873900000000  0.5156780000000  0.4870610000000 1.0
C      1  0.4124550000000  0.5121970000000  0.5224020000000 1.0
C      1  0.4573560000000  0.4665700000000  0.5707020000000 1.0
C      1  0.5668060000000  0.4726830000000  0.5672250000000 1.0
C      1  0.4982990000000  0.4539440000000  0.5118990000000 1.0
C      1  0.4215900000000  0.4622010000000  0.5164570000000 1.0
C      1  0.5496450000000  0.5197580000000  0.5808960000000 1.0
C      1  0.5082770000000  0.5127190000000  0.4780620000000 1.0
C      1  0.4855410000000  0.5368970000000  0.5178190000000 1.0
C      1  0.5844730000000  0.5016380000000  0.5123280000000 1.0
C      1  0.5205000000000  0.4873110000000  0.4750300000000 1.0
C      1  0.4425800000000  0.4444300000000  0.5272870000000 1.0
C      1  0.5869590000000  0.5370800000000  0.4360190000000 1.0
C      1  0.5613540000000  0.5543100000000  0.4379360000000 1.0
C      1  0.5014390000000  0.4667030000000  0.4854810000000 1.0
C      1  0.5050240000000  0.5898290000000  0.4739610000000 1.0
C      1  0.4536650000000  0.5056100000000  0.4232360000000 1.0
C      1  0.4620690000000  0.5260990000000  0.5271070000000 1.0
C      1  0.5926580000000  0.5278490000000  0.5459400000000 1.0
C      1  0.4729020000000  0.4362330000000  0.4855550000000 1.0
C      1  0.5798370000000  0.5431580000000  0.4961860000000 1.0
C      1  0.4324820000000  0.5595110000000  0.5136530000000 1.0
C      1  0.5028370000000  0.4735860000000  0.5334340000000 1.0
C      1  0.5504470000000  0.4508850000000  0.4494230000000 1.0
C      1  0.4826380000000  0.4229380000000  0.4409950000000 1.0
C      1  0.5022370000000  0.5515720000000  0.4371200000000 1.0
C      1  0.4739390000000  0.4706630000000  0.4097240000000 1.0
C      1  0.5312620000000  0.4666700000000  0.5331200000000 1.0
C      1  0.5689950000000  0.5138270000000  0.4283930000000 1.0
C      1  0.5058050000000  0.5058280000000  0.4147630000000 1.0
C      1  0.5793220000000  0.4903460000000  0.4735810000000 1.0
C      1  0.5172370000000  0.5572050000000  0.5580300000000 1.0
C      1  0.5656560000000  0.4914180000000  0.4476240000000 1.0
C      1  0.5542840000000  0.5447060000000  0.5317010000000 1.0
C      1  0.5387470000000  0.5753180000000  0.5093030000000 1.0
C      1  0.4684850000000  0.5021480000000  0.5376280000000 1.0
C      1  0.5243310000000  0.5318440000000  0.5718450000000 1.0
C      1  0.4736150000000  0.4655950000000  0.4798740000000 1.0
C      1  0.4538530000000  0.4865020000000  0.4897040000000 1.0
C      1  0.4766380000000  0.4999760000000  0.4084690000000 1.0
C      1  0.5465600000000  0.5335100000000  0.4230880000000 1.0
END
