TITL C-884139-6216-163 7.06563223083245 125000 -6045.76017104682 0 0 42 (C1) n - 1
REM
REM in /home/nfs/bkarasulu/CARBON/AIRSS/Generating-Clusters/ReaxFF-fromJPCA2015/Units_Real/with-SteepDescent/Only-C1/SD-CG/Try1-3A/FIRE-CG
REM
REM
REM
REM
REM
REM ./C.cell (11c1c37f851c82e70ff6c80c92926a4b)
REM
REM compiler GCC version 9.2.1 20190827 (Red Hat 9.2.1-1)
REM options -cpp -mtune=generic -march=x86-64 -g -O0 -fpre-include=/usr/include/finclude/math-vector-fortran.h
REM seed -642539301 -2081859013 702324309 -525269404 1583059310 798527550 1373241500 1302652987 1661068059 -111144169 1980885395 920540540 -527225057 611986312 1730195406 -2022013604 701677713 74152961 -227331316 -462672673 -2001272777 -1536823625 -1675439979 87847280 2074456245 -1293048193 1518656142 457771413 -314122751 203756311 1871156342 -88360395 -579918944
REM
CELL 1.54180   50.00000   50.00000   50.00000   90.00000   90.00000   90.00000
LATT -1
SFAC C  
C      1  0.4712540000000  0.5035690000000  0.4685910000000 1.0
C      1  0.4866100000000  0.5394190000000  0.4368840000000 1.0
C      1  0.5138080000000  0.4719140000000  0.4388880000000 1.0
C      1  0.4820210000000  0.4990270000000  0.5677730000000 1.0
C      1  0.4542640000000  0.5440300000000  0.4756460000000 1.0
C      1  0.4846890000000  0.4534890000000  0.4777380000000 1.0
C      1  0.5135090000000  0.4870930000000  0.4875180000000 1.0
C      1  0.5290620000000  0.5508660000000  0.5439240000000 1.0
C      1  0.4570030000000  0.4858290000000  0.5550470000000 1.0
C      1  0.5121000000000  0.4492370000000  0.5278000000000 1.0
C      1  0.5352260000000  0.4517560000000  0.4817780000000 1.0
C      1  0.5604480000000  0.5218800000000  0.4944300000000 1.0
C      1  0.4457560000000  0.4958940000000  0.5292870000000 1.0
C      1  0.5287420000000  0.4662800000000  0.5077790000000 1.0
C      1  0.5524410000000  0.4729300000000  0.4704160000000 1.0
C      1  0.5282110000000  0.5235170000000  0.5574240000000 1.0
C      1  0.5118770000000  0.4403760000000  0.4412030000000 1.0
C      1  0.4867650000000  0.5165090000000  0.5244250000000 1.0
C      1  0.4452720000000  0.5247880000000  0.5217350000000 1.0
C      1  0.4501750000000  0.4790070000000  0.5054580000000 1.0
C      1  0.4691510000000  0.4562970000000  0.5018720000000 1.0
C      1  0.5172040000000  0.5151980000000  0.4852930000000 1.0
C      1  0.5345280000000  0.5357100000000  0.4971930000000 1.0
C      1  0.5104950000000  0.4396770000000  0.4704200000000 1.0
C      1  0.4659200000000  0.5294500000000  0.4524950000000 1.0
C      1  0.4666520000000  0.4621740000000  0.5436630000000 1.0
C      1  0.4804730000000  0.5496040000000  0.4868920000000 1.0
C      1  0.5638030000000  0.4920910000000  0.4921010000000 1.0
C      1  0.5017450000000  0.5089280000000  0.5488970000000 1.0
C      1  0.5436310000000  0.4812780000000  0.4444890000000 1.0
C      1  0.5184880000000  0.5536080000000  0.5167930000000 1.0
C      1  0.5046970000000  0.5481320000000  0.4232390000000 1.0
C      1  0.5551250000000  0.4950930000000  0.5409590000000 1.0
C      1  0.5520280000000  0.5082920000000  0.5596700000000 1.0
C      1  0.4940050000000  0.4796150000000  0.4664820000000 1.0
C      1  0.5559230000000  0.4804160000000  0.5170440000000 1.0
C      1  0.4885040000000  0.5575150000000  0.5138030000000 1.0
C      1  0.4700830000000  0.5396580000000  0.5291610000000 1.0
C      1  0.4395730000000  0.5253970000000  0.4927850000000 1.0
C      1  0.4465570000000  0.4982910000000  0.4839480000000 1.0
C      1  0.4885940000000  0.5205890000000  0.4916860000000 1.0
C      1  0.4835900000000  0.4455750000000  0.5273720000000 1.0
END
