TITL C-884136-4169-129 -20.4715368148019 125000 -16842.1247116327 0 0 111 (C1) n - 1
REM
REM in /home/nfs/bkarasulu/CARBON/AIRSS/Generating-Clusters/ReaxFF-fromJPCA2015/Units_Real/with-SteepDescent/Only-C1/SD-CG/Try1-3A/FIRE-CG
REM
REM
REM
REM
REM
REM ./C.cell (11c1c37f851c82e70ff6c80c92926a4b)
REM
REM compiler GCC version 9.2.1 20190827 (Red Hat 9.2.1-1)
REM options -cpp -mtune=generic -march=x86-64 -g -O0 -fpre-include=/usr/include/finclude/math-vector-fortran.h
REM seed -442871728 755385481 -2018757109 -1115244420 -824406865 2091481333 -212206143 -491747088 -459940260 2144497991 254781713 235671952 -1118416181 1558229427 1426917650 1176627068 1768411251 1417676451 -255592139 1130336099 2102521033 -1599982318 1547486927 835562074 -328968876 1764255073 1975094032 -1419198277 1501290782 717848178 1476062073 1101168992 1065099671
REM
CELL 1.54180   50.00000   50.00000   50.00000   90.00000   90.00000   90.00000
LATT -1
SFAC C  
C      1  0.4123620000000  0.4417430000000  0.4800350000000 1.0
C      1  0.4151050000000  0.5391080000000  0.5053310000000 1.0
C      1  0.5789070000000  0.4905400000000  0.4543210000000 1.0
C      1  0.5179260000000  0.5681720000000  0.5493450000000 1.0
C      1  0.5104240000000  0.4674800000000  0.5884430000000 1.0
C      1  0.4953160000000  0.5156890000000  0.5955240000000 1.0
C      1  0.5569300000000  0.4318810000000  0.5135590000000 1.0
C      1  0.4782520000000  0.5807850000000  0.4612520000000 1.0
C      1  0.4285640000000  0.4462630000000  0.5027020000000 1.0
C      1  0.5112840000000  0.5894860000000  0.5029310000000 1.0
C      1  0.5801810000000  0.5043250000000  0.5272580000000 1.0
C      1  0.5138840000000  0.4354530000000  0.4503270000000 1.0
C      1  0.4786050000000  0.4682540000000  0.5142380000000 1.0
C      1  0.4737000000000  0.5023730000000  0.4042470000000 1.0
C      1  0.4847270000000  0.4752510000000  0.4859710000000 1.0
C      1  0.4412150000000  0.5416930000000  0.4898870000000 1.0
C      1  0.4594330000000  0.5286220000000  0.5564930000000 1.0
C      1  0.4230830000000  0.4514950000000  0.4619440000000 1.0
C      1  0.5758760000000  0.5191070000000  0.4559140000000 1.0
C      1  0.5252160000000  0.4475730000000  0.4237750000000 1.0
C      1  0.4703840000000  0.5600820000000  0.4440110000000 1.0
C      1  0.5138900000000  0.4438650000000  0.5717720000000 1.0
C      1  0.4497140000000  0.5387430000000  0.4379650000000 1.0
C      1  0.4537730000000  0.4322420000000  0.5060980000000 1.0
C      1  0.5394970000000  0.5357880000000  0.5047150000000 1.0
C      1  0.4562900000000  0.4251530000000  0.5345320000000 1.0
C      1  0.4930230000000  0.5175780000000  0.4415050000000 1.0
C      1  0.5071530000000  0.4924510000000  0.4486920000000 1.0
C      1  0.4597490000000  0.4655590000000  0.5726020000000 1.0
C      1  0.5867740000000  0.5580020000000  0.4810430000000 1.0
C      1  0.4816600000000  0.4736160000000  0.5905780000000 1.0
C      1  0.4411920000000  0.4883320000000  0.5705310000000 1.0
C      1  0.4854410000000  0.4346760000000  0.4619490000000 1.0
C      1  0.4313240000000  0.4768880000000  0.5163590000000 1.0
C      1  0.5295210000000  0.4880400000000  0.5760990000000 1.0
C      1  0.5006690000000  0.5550710000000  0.5675410000000 1.0
C      1  0.5639720000000  0.5640710000000  0.4635750000000 1.0
C      1  0.5349800000000  0.5170300000000  0.5814260000000 1.0
C      1  0.5158490000000  0.4696660000000  0.4043510000000 1.0
C      1  0.4733410000000  0.4017140000000  0.5295080000000 1.0
C      1  0.5730010000000  0.4768620000000  0.5363250000000 1.0
C      1  0.4970010000000  0.5207210000000  0.5174680000000 1.0
C      1  0.5142080000000  0.4087410000000  0.5249940000000 1.0
C      1  0.4746010000000  0.5536390000000  0.5558090000000 1.0
C      1  0.5344500000000  0.4925810000000  0.4369410000000 1.0
C      1  0.4730350000000  0.5669610000000  0.5300250000000 1.0
C      1  0.4564070000000  0.5101650000000  0.5819490000000 1.0
C      1  0.5763000000000  0.4535120000000  0.5183740000000 1.0
C      1  0.4962030000000  0.4043710000000  0.5478880000000 1.0
C      1  0.5116790000000  0.5344370000000  0.5874020000000 1.0
C      1  0.5010060000000  0.5769090000000  0.5262380000000 1.0
C      1  0.4873000000000  0.4761780000000  0.4062770000000 1.0
C      1  0.5310200000000  0.4950010000000  0.4079610000000 1.0
C      1  0.4315630000000  0.5312140000000  0.5507160000000 1.0
C      1  0.4586450000000  0.4854340000000  0.5262780000000 1.0
C      1  0.4529670000000  0.5123020000000  0.4234130000000 1.0
C      1  0.4020910000000  0.5127400000000  0.5068370000000 1.0
C      1  0.4912600000000  0.4066150000000  0.5061630000000 1.0
C      1  0.5226780000000  0.5232620000000  0.4080710000000 1.0
C      1  0.5546970000000  0.4484850000000  0.4262170000000 1.0
C      1  0.4223820000000  0.5037000000000  0.5528580000000 1.0
C      1  0.5050000000000  0.4918790000000  0.5550310000000 1.0
C      1  0.5351630000000  0.5422960000000  0.4264960000000 1.0
C      1  0.4360420000000  0.4939200000000  0.4383260000000 1.0
C      1  0.4904210000000  0.4272020000000  0.5655480000000 1.0
C      1  0.5463140000000  0.5601560000000  0.5542510000000 1.0
C      1  0.5171660000000  0.5623050000000  0.4370200000000 1.0
C      1  0.5902110000000  0.5053400000000  0.4993840000000 1.0
C      1  0.4881830000000  0.4726470000000  0.4355620000000 1.0
C      1  0.4493410000000  0.5617090000000  0.5138830000000 1.0
C      1  0.5899900000000  0.5274160000000  0.4797620000000 1.0
C      1  0.4361060000000  0.4932000000000  0.4921670000000 1.0
C      1  0.4095170000000  0.4951020000000  0.5285970000000 1.0
C      1  0.4570980000000  0.5133770000000  0.4950180000000 1.0
C      1  0.5362500000000  0.4928430000000  0.5248260000000 1.0
C      1  0.4969850000000  0.4753300000000  0.5338350000000 1.0
C      1  0.5135640000000  0.4651960000000  0.4866720000000 1.0
C      1  0.4689260000000  0.4539810000000  0.4477230000000 1.0
C      1  0.4769170000000  0.4246050000000  0.4880600000000 1.0
C      1  0.4699950000000  0.5130750000000  0.5266200000000 1.0
C      1  0.5346740000000  0.4282940000000  0.5296860000000 1.0
C      1  0.4194140000000  0.5109740000000  0.4557860000000 1.0
C      1  0.5408230000000  0.5906110000000  0.4989890000000 1.0
C      1  0.4272230000000  0.5505220000000  0.5292700000000 1.0
C      1  0.5715300000000  0.5281740000000  0.5417790000000 1.0
C      1  0.4761940000000  0.5001880000000  0.5986940000000 1.0
C      1  0.4930200000000  0.5226310000000  0.4116370000000 1.0
C      1  0.5336320000000  0.4466450000000  0.5509540000000 1.0
C      1  0.5457580000000  0.4740940000000  0.5487360000000 1.0
C      1  0.5589910000000  0.4349760000000  0.4843020000000 1.0
C      1  0.4961590000000  0.5457580000000  0.4497770000000 1.0
C      1  0.4324910000000  0.5365950000000  0.4602630000000 1.0
C      1  0.5073490000000  0.5143100000000  0.4893630000000 1.0
C      1  0.4102700000000  0.4996600000000  0.4813520000000 1.0
C      1  0.4990770000000  0.5931900000000  0.4755900000000 1.0
C      1  0.5363200000000  0.4348980000000  0.4668620000000 1.0
C      1  0.4416430000000  0.4653350000000  0.4452630000000 1.0
C      1  0.5455870000000  0.5857990000000  0.4695820000000 1.0
C      1  0.5691050000000  0.5595840000000  0.5352330000000 1.0
C      1  0.5507530000000  0.5368820000000  0.4528190000000 1.0
C      1  0.5308800000000  0.5325910000000  0.4779530000000 1.0
C      1  0.5274800000000  0.4894460000000  0.4979420000000 1.0
C      1  0.5567900000000  0.5760500000000  0.5167880000000 1.0
C      1  0.5530200000000  0.5322380000000  0.5637560000000 1.0
C      1  0.5813640000000  0.4555120000000  0.4898740000000 1.0
C      1  0.4808610000000  0.5033720000000  0.4781530000000 1.0
C      1  0.5876940000000  0.4824270000000  0.4813350000000 1.0
C      1  0.5575510000000  0.4751750000000  0.4412460000000 1.0
C      1  0.5201880000000  0.5854180000000  0.4556430000000 1.0
C      1  0.4650190000000  0.4400470000000  0.5588500000000 1.0
C      1  0.5242720000000  0.5193310000000  0.5271860000000 1.0
END
