TITL C-884139-6216-48 1289681.61661114 125000 -15998.4449578234 0 0 108 (C1) n - 1
REM
REM in /home/nfs/bkarasulu/CARBON/AIRSS/Generating-Clusters/ReaxFF-fromJPCA2015/Units_Real/with-SteepDescent/Only-C1/SD-CG/Try1-3A/FIRE-CG
REM
REM
REM
REM
REM
REM ./C.cell (11c1c37f851c82e70ff6c80c92926a4b)
REM
REM compiler GCC version 9.2.1 20190827 (Red Hat 9.2.1-1)
REM options -cpp -mtune=generic -march=x86-64 -g -O0 -fpre-include=/usr/include/finclude/math-vector-fortran.h
REM seed 288617833 2002479870 -1042322918 1095106820 -1361162868 1116401339 859611375 -237865800 950941244 -1511786913 -736090590 -761230130 -312451964 520479891 1428260545 273051000 1566743653 744780403 -1257790068 -602245423 1963058190 -229486308 -1394858751 28169443 1079991133 1626142011 -58386313 -1881949409 588444732 -936841752 -1643217960 -1452508049 2045100619
REM
CELL 1.54180   50.00000   50.00000   50.00000   90.00000   90.00000   90.00000
LATT -1
SFAC C  
C      1  0.4675930000000  0.4604710000000  0.5767960000000 1.0
C      1  0.5111820000000  0.5004790000000  0.5888810000000 1.0
C      1  0.5073120000000  0.5282800000000  0.5841400000000 1.0
C      1  0.5953810000000  0.4807130000000  0.5155030000000 1.0
C      1  0.5857160000000  0.4255960000000  0.5057850000000 1.0
C      1  0.5375140000000  0.5833510000000  0.4840140000000 1.0
C      1  0.4828910000000  0.5065690000000  0.5569500000000 1.0
C      1  0.4307400000000  0.4923830000000  0.5562580000000 1.0
C      1  0.4218230000000  0.4586700000000  0.4789440000000 1.0
C      1  0.5724870000000  0.4464610000000  0.4995440000000 1.0
C      1  0.4714160000000  0.5916570000000  0.4951050000000 1.0
C      1  0.4718770000000  0.5039410000000  0.4182170000000 1.0
C      1  0.5122720000000  0.4213630000000  0.5411040000000 1.0
C      1  0.4684090000000  0.4749980000000  0.4209180000000 1.0
C      1  0.5328500000000  0.5327500000000  0.5073000000000 1.0
C      1  0.4506990000000  0.5435350000000  0.4684110000000 1.0
C      1  0.5093180000000  0.4216800000000  0.4631860000000 1.0
C      1  0.5309110000000  0.5894450000000  0.5145160000000 1.0
C      1  0.4391390000000  0.4434180000000  0.4971030000000 1.0
C      1  0.5463160000000  0.4571250000000  0.5135620000000 1.0
C      1  0.5574460000000  0.5659110000000  0.4698130000000 1.0
C      1  0.4688880000000  0.5541090000000  0.5501080000000 1.0
C      1  0.4631740000000  0.4935120000000  0.4694570000000 1.0
C      1  0.4512150000000  0.4590240000000  0.4385030000000 1.0
C      1  0.5100480000000  0.4640910000000  0.5412240000000 1.0
C      1  0.5526240000000  0.4466400000000  0.5647740000000 1.0
C      1  0.4611850000000  0.5338890000000  0.5138010000000 1.0
C      1  0.5649600000000  0.5662410000000  0.5453030000000 1.0
C      1  0.4917640000000  0.4294740000000  0.5600400000000 1.0
C      1  0.4540560000000  0.5262000000000  0.4259080000000 1.0
C      1  0.4934400000000  0.4528960000000  0.5798890000000 1.0
C      1  0.5216270000000  0.5851220000000  0.4623510000000 1.0
C      1  0.5477410000000  0.4632280000000  0.4471180000000 1.0
C      1  0.4866980000000  0.5760110000000  0.5405350000000 1.0
C      1  0.4444610000000  0.4429190000000  0.5462620000000 1.0
C      1  0.4597520000000  0.4318980000000  0.4450690000000 1.0
C      1  0.5625660000000  0.5114400000000  0.4454870000000 1.0
C      1  0.4209690000000  0.5035420000000  0.5303970000000 1.0
C      1  0.5352470000000  0.5589140000000  0.5527230000000 1.0
C      1  0.4836480000000  0.5430250000000  0.4992140000000 1.0
C      1  0.4596560000000  0.4141170000000  0.4669290000000 1.0
C      1  0.5761320000000  0.5174500000000  0.5507640000000 1.0
C      1  0.5106550000000  0.4667690000000  0.4684360000000 1.0
C      1  0.5841730000000  0.4752980000000  0.4890670000000 1.0
C      1  0.5202280000000  0.4534390000000  0.4950180000000 1.0
C      1  0.4292830000000  0.5220680000000  0.4426810000000 1.0
C      1  0.4154520000000  0.4822120000000  0.4954560000000 1.0
C      1  0.4836360000000  0.4158260000000  0.4517810000000 1.0
C      1  0.5138180000000  0.4228740000000  0.4908470000000 1.0
C      1  0.5132150000000  0.4803240000000  0.4062500000000 1.0
C      1  0.5011830000000  0.5061080000000  0.4122420000000 1.0
C      1  0.4482290000000  0.4576150000000  0.5211870000000 1.0
C      1  0.4048940000000  0.5046270000000  0.4791880000000 1.0
C      1  0.4127890000000  0.5294350000000  0.4924160000000 1.0
C      1  0.5516440000000  0.4866190000000  0.5186170000000 1.0
C      1  0.5159820000000  0.4731350000000  0.5886070000000 1.0
C      1  0.5454260000000  0.4671210000000  0.5842260000000 1.0
C      1  0.4553820000000  0.4199340000000  0.4943410000000 1.0
C      1  0.5675100000000  0.4704830000000  0.5651030000000 1.0
C      1  0.5013690000000  0.4122040000000  0.5155790000000 1.0
C      1  0.5154510000000  0.5771560000000  0.5365030000000 1.0
C      1  0.4875520000000  0.4909380000000  0.5095680000000 1.0
C      1  0.5507210000000  0.5161980000000  0.5643030000000 1.0
C      1  0.5625090000000  0.4946150000000  0.4921800000000 1.0
C      1  0.5830010000000  0.5434380000000  0.5375560000000 1.0
C      1  0.4420110000000  0.4930150000000  0.4903230000000 1.0
C      1  0.4681260000000  0.5217870000000  0.4640820000000 1.0
C      1  0.4954590000000  0.5164540000000  0.4974540000000 1.0
C      1  0.4999180000000  0.5491130000000  0.4299320000000 1.0
C      1  0.5551970000000  0.5840820000000  0.5262070000000 1.0
C      1  0.4204560000000  0.5314850000000  0.5217260000000 1.0
C      1  0.4477670000000  0.5040540000000  0.5144890000000 1.0
C      1  0.4638870000000  0.4825490000000  0.5221350000000 1.0
C      1  0.5809060000000  0.5464640000000  0.5100320000000 1.0
C      1  0.4175070000000  0.4978490000000  0.4525760000000 1.0
C      1  0.5023380000000  0.4673540000000  0.5147900000000 1.0
C      1  0.5369870000000  0.5310530000000  0.4815050000000 1.0
C      1  0.4280780000000  0.4700230000000  0.4527200000000 1.0
C      1  0.4450790000000  0.5479410000000  0.5322140000000 1.0
C      1  0.5288480000000  0.5336810000000  0.5316110000000 1.0
C      1  0.5335290000000  0.5375190000000  0.5746810000000 1.0
C      1  0.4637370000000  0.5641250000000  0.4557170000000 1.0
C      1  0.5779050000000  0.4890420000000  0.5397030000000 1.0
C      1  0.4690300000000  0.5512420000000  0.4302080000000 1.0
C      1  0.5449030000000  0.5302730000000  0.4314430000000 1.0
C      1  0.4413970000000  0.4642990000000  0.5666020000000 1.0
C      1  0.4237680000000  0.5390740000000  0.4666700000000 1.0
C      1  0.5209720000000  0.5712380000000  0.4383540000000 1.0
C      1  0.5123640000000  0.5175410000000  0.4735360000000 1.0
C      1  0.5769650000000  0.5482350000000  0.4832690000000 1.0
C      1  0.4823960000000  0.5343030000000  0.5670830000000 1.0
C      1  0.5330330000000  0.5040670000000  0.5408730000000 1.0
C      1  0.5335180000000  0.4430600000000  0.5405990000000 1.0
C      1  0.5647740000000  0.5194610000000  0.4747770000000 1.0
C      1  0.4671980000000  0.4239560000000  0.5445790000000 1.0
C      1  0.5463950000000  0.5578340000000  0.4430860000000 1.0
C      1  0.5075160000000  0.4912840000000  0.5481100000000 1.0
C      1  0.5238680000000  0.4463260000000  0.4461330000000 1.0
C      1  0.4923560000000  0.4617740000000  0.4104890000000 1.0
C      1  0.5189050000000  0.4556040000000  0.4190730000000 1.0
C      1  0.4877930000000  0.4793700000000  0.4684980000000 1.0
C      1  0.4797290000000  0.5673700000000  0.4802810000000 1.0
C      1  0.5646460000000  0.4839850000000  0.4539180000000 1.0
C      1  0.4944630000000  0.5290960000000  0.4551460000000 1.0
C      1  0.4722190000000  0.4138550000000  0.5176980000000 1.0
C      1  0.4723890000000  0.5971470000000  0.5243530000000 1.0
C      1  0.5186750000000  0.5279640000000  0.4186120000000 1.0
C      1  0.4557530000000  0.5030800000000  0.5616520000000 1.0
END
