TITL C-883727-9645-264 21.5451136329108 125000 -20506.0000607421 0 0 138 (C1) n - 1
REM
REM in /home/nfs/bkarasulu/CARBON/AIRSS/Generating-Clusters/ReaxFF-fromJPCA2015/Units_Real/with-SteepDescent/Only-C1/SD-CG/Try1-3A/FIRE-CG
REM
REM
REM
REM
REM
REM ./C.cell (11c1c37f851c82e70ff6c80c92926a4b)
REM
REM compiler GCC version 9.2.1 20190827 (Red Hat 9.2.1-1)
REM options -cpp -mtune=generic -march=x86-64 -g -O0 -fpre-include=/usr/include/finclude/math-vector-fortran.h
REM seed 1370471212 -2070945767 -1264191915 -1472618181 -1258501298 -1744875272 661837522 1233899553 -1017642339 711673281 -153406312 -701771428 812778184 390397695 464003746 1854075820 607344588 -1735166099 -797201238 -1826065360 -747571303 -8232686 963021030 -1050329174 -241228365 -721549191 -267176702 1286594534 -1691520024 -1498350365 279014092 1531364603 1221777057
REM
CELL 1.54180   50.00000   50.00000   50.00000   90.00000   90.00000   90.00000
LATT -1
SFAC C  
C      1  0.5431180000000  0.5480330000000  0.5621470000000 1.0
C      1  0.4013390000000  0.5195700000000  0.4778300000000 1.0
C      1  0.5779360000000  0.5334230000000  0.4808250000000 1.0
C      1  0.3955490000000  0.4460200000000  0.5233600000000 1.0
C      1  0.4600790000000  0.4323200000000  0.4417160000000 1.0
C      1  0.4773180000000  0.4875230000000  0.4872860000000 1.0
C      1  0.4388800000000  0.5135000000000  0.5767610000000 1.0
C      1  0.4084900000000  0.4982460000000  0.4574720000000 1.0
C      1  0.4608280000000  0.4782050000000  0.4211070000000 1.0
C      1  0.5721640000000  0.4514170000000  0.5523940000000 1.0
C      1  0.5355820000000  0.5242570000000  0.5938430000000 1.0
C      1  0.5799380000000  0.5637270000000  0.5336370000000 1.0
C      1  0.5259830000000  0.5836800000000  0.4484100000000 1.0
C      1  0.6024200000000  0.4932500000000  0.5041620000000 1.0
C      1  0.5199360000000  0.4869310000000  0.4958070000000 1.0
C      1  0.4287600000000  0.5523070000000  0.5607630000000 1.0
C      1  0.4485070000000  0.5828610000000  0.5131150000000 1.0
C      1  0.4373470000000  0.4707560000000  0.5150830000000 1.0
C      1  0.5401780000000  0.5440700000000  0.4231760000000 1.0
C      1  0.5498800000000  0.5260920000000  0.4895300000000 1.0
C      1  0.5738990000000  0.5048750000000  0.5715060000000 1.0
C      1  0.5110800000000  0.4979540000000  0.4509430000000 1.0
C      1  0.4217100000000  0.4608610000000  0.4418510000000 1.0
C      1  0.4649900000000  0.5262090000000  0.5787430000000 1.0
C      1  0.5930850000000  0.4776070000000  0.5276600000000 1.0
C      1  0.4169700000000  0.5680720000000  0.4654620000000 1.0
C      1  0.3994360000000  0.5362030000000  0.5360670000000 1.0
C      1  0.5716910000000  0.5551190000000  0.5604740000000 1.0
C      1  0.5327360000000  0.4794670000000  0.5223610000000 1.0
C      1  0.5950700000000  0.5217150000000  0.5011240000000 1.0
C      1  0.5921830000000  0.4461450000000  0.4790950000000 1.0
C      1  0.4715310000000  0.5536990000000  0.5773030000000 1.0
C      1  0.4866700000000  0.5095440000000  0.5595830000000 1.0
C      1  0.4389850000000  0.3966180000000  0.4713160000000 1.0
C      1  0.5870330000000  0.4496650000000  0.5281180000000 1.0
C      1  0.4627800000000  0.4055900000000  0.5199170000000 1.0
C      1  0.5270200000000  0.4812270000000  0.5727140000000 1.0
C      1  0.4781120000000  0.4749660000000  0.4445290000000 1.0
C      1  0.5416770000000  0.5964680000000  0.5214730000000 1.0
C      1  0.4702140000000  0.5855440000000  0.4649270000000 1.0
C      1  0.5258370000000  0.4423490000000  0.4906550000000 1.0
C      1  0.5400300000000  0.4017230000000  0.5105420000000 1.0
C      1  0.3920100000000  0.4733360000000  0.5201720000000 1.0
C      1  0.4420530000000  0.5303120000000  0.5031670000000 1.0
C      1  0.4638320000000  0.5203420000000  0.5214890000000 1.0
C      1  0.4316540000000  0.5590850000000  0.5100830000000 1.0
C      1  0.5567110000000  0.4674250000000  0.4578650000000 1.0
C      1  0.5002650000000  0.5563420000000  0.5687070000000 1.0
C      1  0.4249130000000  0.4434860000000  0.4795080000000 1.0
C      1  0.4690740000000  0.5924200000000  0.4933300000000 1.0
C      1  0.4751410000000  0.4730480000000  0.5819730000000 1.0
C      1  0.5702830000000  0.5841250000000  0.4861520000000 1.0
C      1  0.4762810000000  0.4464030000000  0.5688640000000 1.0
C      1  0.5339910000000  0.5473400000000  0.4781840000000 1.0
C      1  0.5691850000000  0.4833830000000  0.4801930000000 1.0
C      1  0.5478020000000  0.4355560000000  0.5556680000000 1.0
C      1  0.4501370000000  0.4877790000000  0.5798160000000 1.0
C      1  0.4530400000000  0.5409720000000  0.4732680000000 1.0
C      1  0.5163740000000  0.5632910000000  0.4942370000000 1.0
C      1  0.5835380000000  0.5287330000000  0.5580730000000 1.0
C      1  0.4969280000000  0.5645750000000  0.4238860000000 1.0
C      1  0.4940600000000  0.4095970000000  0.5185200000000 1.0
C      1  0.4574450000000  0.5871400000000  0.5403540000000 1.0
C      1  0.5032550000000  0.4790830000000  0.5169490000000 1.0
C      1  0.4846230000000  0.5971360000000  0.5387760000000 1.0
C      1  0.5022620000000  0.4236970000000  0.4412420000000 1.0
C      1  0.4465520000000  0.5053980000000  0.4189790000000 1.0
C      1  0.4508400000000  0.4754340000000  0.5407870000000 1.0
C      1  0.5524150000000  0.5808490000000  0.4623670000000 1.0
C      1  0.4632120000000  0.5286760000000  0.4250360000000 1.0
C      1  0.5038500000000  0.5856470000000  0.5583870000000 1.0
C      1  0.5812150000000  0.5328750000000  0.5263290000000 1.0
C      1  0.4503930000000  0.5696850000000  0.5635790000000 1.0
C      1  0.5368470000000  0.4136050000000  0.5378220000000 1.0
C      1  0.4986000000000  0.4321090000000  0.4945090000000 1.0
C      1  0.4030780000000  0.5539410000000  0.5119670000000 1.0
C      1  0.5579630000000  0.4104110000000  0.4893610000000 1.0
C      1  0.5529950000000  0.4194100000000  0.4613500000000 1.0
C      1  0.4665210000000  0.4994470000000  0.5399580000000 1.0
C      1  0.5263600000000  0.5924590000000  0.5439730000000 1.0
C      1  0.5032450000000  0.5319810000000  0.5453220000000 1.0
C      1  0.5258650000000  0.5701600000000  0.4223030000000 1.0
C      1  0.4169200000000  0.5139690000000  0.5012180000000 1.0
C      1  0.4464590000000  0.4280370000000  0.5279800000000 1.0
C      1  0.4004460000000  0.5486440000000  0.4819000000000 1.0
C      1  0.4687770000000  0.5243030000000  0.4553010000000 1.0
C      1  0.5290790000000  0.4540320000000  0.4284300000000 1.0
C      1  0.4846170000000  0.4635440000000  0.5018410000000 1.0
C      1  0.4107710000000  0.4663140000000  0.4654120000000 1.0
C      1  0.5312690000000  0.4280580000000  0.4413150000000 1.0
C      1  0.5184740000000  0.5911630000000  0.5026530000000 1.0
C      1  0.5076000000000  0.4701160000000  0.4451310000000 1.0
C      1  0.5679440000000  0.5829760000000  0.5159360000000 1.0
C      1  0.4506130000000  0.3994860000000  0.4963380000000 1.0
C      1  0.5970010000000  0.4749520000000  0.4811180000000 1.0
C      1  0.5032180000000  0.4354030000000  0.5647090000000 1.0
C      1  0.4141100000000  0.5300020000000  0.5613640000000 1.0
C      1  0.4128920000000  0.4889480000000  0.5140650000000 1.0
C      1  0.5338010000000  0.5201240000000  0.4076510000000 1.0
C      1  0.5406150000000  0.4931120000000  0.5472650000000 1.0
C      1  0.5774570000000  0.4326500000000  0.5019260000000 1.0
C      1  0.4806360000000  0.4634990000000  0.4055320000000 1.0
C      1  0.4575800000000  0.4706200000000  0.4953840000000 1.0
C      1  0.4985290000000  0.4889430000000  0.5757440000000 1.0
C      1  0.4872680000000  0.5379530000000  0.4131540000000 1.0
C      1  0.5092620000000  0.4150680000000  0.5440670000000 1.0
C      1  0.4457480000000  0.5684500000000  0.4611050000000 1.0
C      1  0.5257190000000  0.5488300000000  0.5855280000000 1.0
C      1  0.4247440000000  0.4394570000000  0.5097370000000 1.0
C      1  0.5370730000000  0.5379530000000  0.4516690000000 1.0
C      1  0.5371170000000  0.5094810000000  0.4540090000000 1.0
C      1  0.5050730000000  0.5158330000000  0.4022600000000 1.0
C      1  0.5575180000000  0.4741600000000  0.5056120000000 1.0
C      1  0.4943490000000  0.5471230000000  0.4977700000000 1.0
C      1  0.4950160000000  0.4144150000000  0.4697250000000 1.0
C      1  0.4917000000000  0.5999400000000  0.5099970000000 1.0
C      1  0.5274970000000  0.4500310000000  0.5696900000000 1.0
C      1  0.4962600000000  0.4877010000000  0.3997630000000 1.0
C      1  0.4379890000000  0.4269690000000  0.4586910000000 1.0
C      1  0.5342950000000  0.5254080000000  0.5417950000000 1.0
C      1  0.5518400000000  0.5282360000000  0.5182720000000 1.0
C      1  0.5505430000000  0.4735730000000  0.4287460000000 1.0
C      1  0.5044790000000  0.3899420000000  0.4774840000000 1.0
C      1  0.4874110000000  0.5355890000000  0.5215040000000 1.0
C      1  0.5478670000000  0.5024980000000  0.4265460000000 1.0
C      1  0.5255640000000  0.4670050000000  0.4744890000000 1.0
C      1  0.5491490000000  0.5009760000000  0.5870620000000 1.0
C      1  0.5133590000000  0.3900230000000  0.5039540000000 1.0
C      1  0.4811920000000  0.4374340000000  0.4254930000000 1.0
C      1  0.4833800000000  0.4977440000000  0.4616100000000 1.0
C      1  0.4949470000000  0.5798850000000  0.4490110000000 1.0
C      1  0.4567500000000  0.4475690000000  0.5476530000000 1.0
C      1  0.4266950000000  0.5026450000000  0.4384530000000 1.0
C      1  0.5505250000000  0.4469080000000  0.5061320000000 1.0
C      1  0.5749580000000  0.5610180000000  0.4697790000000 1.0
C      1  0.5704900000000  0.4835730000000  0.5505560000000 1.0
C      1  0.4811490000000  0.5426550000000  0.4742860000000 1.0
C      1  0.5724850000000  0.4405570000000  0.4589000000000 1.0
END
