TITL C-884127-5181-255 -9.38580177198183 125000 -21044.2019446788 0 0 142 (C1) n - 1
REM
REM in /home/nfs/bkarasulu/CARBON/AIRSS/Generating-Clusters/ReaxFF-fromJPCA2015/Units_Real/with-SteepDescent/Only-C1/SD-CG/Try1-3A/FIRE-CG
REM
REM
REM
REM
REM
REM ./C.cell (11c1c37f851c82e70ff6c80c92926a4b)
REM
REM compiler GCC version 9.2.1 20190827 (Red Hat 9.2.1-1)
REM options -cpp -mtune=generic -march=x86-64 -g -O0 -fpre-include=/usr/include/finclude/math-vector-fortran.h
REM seed -1099752408 1812266156 -240299358 1638355608 -1062814966 1359258329 -777641533 -1551717052 1773566349 -111015548 2125662002 1364651161 -2067859123 -666694423 562331903 1735842168 1001849765 -765096002 -1413840134 -204405224 -1453771891 -698192890 -906770397 -2081158165 1831644571 -494714730 -2096837355 -1980812693 -2013771390 747727132 351412380 -1206255944 -396342342
REM
CELL 1.54180   50.00000   50.00000   50.00000   90.00000   90.00000   90.00000
LATT -1
SFAC C  
C      1  0.5900360000000  0.5521740000000  0.5106460000000 1.0
C      1  0.4726860000000  0.4355130000000  0.5582550000000 1.0
C      1  0.4667290000000  0.4338960000000  0.5101440000000 1.0
C      1  0.4613480000000  0.5045710000000  0.5021830000000 1.0
C      1  0.5198410000000  0.5993200000000  0.5073750000000 1.0
C      1  0.4398440000000  0.4564700000000  0.4245050000000 1.0
C      1  0.4598580000000  0.5628310000000  0.4723740000000 1.0
C      1  0.5360650000000  0.5052030000000  0.4519910000000 1.0
C      1  0.4781500000000  0.5202150000000  0.5871630000000 1.0
C      1  0.5277930000000  0.5227510000000  0.5324780000000 1.0
C      1  0.5203190000000  0.4995210000000  0.4777400000000 1.0
C      1  0.5450570000000  0.5516250000000  0.4245760000000 1.0
C      1  0.4379010000000  0.5764310000000  0.4893060000000 1.0
C      1  0.4712920000000  0.4051960000000  0.5064460000000 1.0
C      1  0.5978480000000  0.5273230000000  0.5246610000000 1.0
C      1  0.5515570000000  0.4739250000000  0.5430640000000 1.0
C      1  0.5521370000000  0.5725540000000  0.5423150000000 1.0
C      1  0.5752320000000  0.5194630000000  0.4817500000000 1.0
C      1  0.5292490000000  0.4958400000000  0.4235640000000 1.0
C      1  0.4488690000000  0.4902220000000  0.5284420000000 1.0
C      1  0.4772620000000  0.5457860000000  0.4903660000000 1.0
C      1  0.4704470000000  0.6002120000000  0.5025540000000 1.0
C      1  0.4652660000000  0.4474440000000  0.4837920000000 1.0
C      1  0.4206450000000  0.5230180000000  0.5463200000000 1.0
C      1  0.4714720000000  0.5362650000000  0.4166410000000 1.0
C      1  0.5591400000000  0.4841620000000  0.5178210000000 1.0
C      1  0.5132710000000  0.5606280000000  0.5678600000000 1.0
C      1  0.4084730000000  0.5088190000000  0.4358230000000 1.0
C      1  0.5358460000000  0.4687850000000  0.4114500000000 1.0
C      1  0.5857320000000  0.5187320000000  0.5496630000000 1.0
C      1  0.5276550000000  0.5830230000000  0.5525650000000 1.0
C      1  0.4633910000000  0.4033390000000  0.4781030000000 1.0
C      1  0.5043480000000  0.4989620000000  0.4095980000000 1.0
C      1  0.5025820000000  0.5348480000000  0.4816720000000 1.0
C      1  0.5598090000000  0.5650990000000  0.5130390000000 1.0
C      1  0.4299060000000  0.5177090000000  0.5954280000000 1.0
C      1  0.4146520000000  0.5594600000000  0.4849190000000 1.0
C      1  0.5656390000000  0.4522240000000  0.5567290000000 1.0
C      1  0.4999530000000  0.4400500000000  0.4330760000000 1.0
C      1  0.4180430000000  0.4535560000000  0.5532050000000 1.0
C      1  0.4816710000000  0.4618910000000  0.4374470000000 1.0
C      1  0.4829400000000  0.5798270000000  0.5346120000000 1.0
C      1  0.5044120000000  0.4200850000000  0.4535260000000 1.0
C      1  0.5823560000000  0.4624630000000  0.4853010000000 1.0
C      1  0.5486850000000  0.4282780000000  0.5527470000000 1.0
C      1  0.5490940000000  0.5090960000000  0.5737630000000 1.0
C      1  0.5479020000000  0.4118800000000  0.5284750000000 1.0
C      1  0.5898210000000  0.4683380000000  0.5526320000000 1.0
C      1  0.5302520000000  0.4441560000000  0.5036520000000 1.0
C      1  0.4226040000000  0.4976840000000  0.5375200000000 1.0
C      1  0.5410090000000  0.5844320000000  0.4952050000000 1.0
C      1  0.4770750000000  0.4718020000000  0.4662860000000 1.0
C      1  0.5525110000000  0.5378460000000  0.5010220000000 1.0
C      1  0.4982860000000  0.5275780000000  0.4088960000000 1.0
C      1  0.5097400000000  0.4534990000000  0.4086900000000 1.0
C      1  0.5902700000000  0.5463250000000  0.4823490000000 1.0
C      1  0.5184950000000  0.4594750000000  0.5683000000000 1.0
C      1  0.5316550000000  0.5175500000000  0.5891880000000 1.0
C      1  0.4888340000000  0.5057510000000  0.5147410000000 1.0
C      1  0.4964900000000  0.4077900000000  0.5240550000000 1.0
C      1  0.5559860000000  0.5267840000000  0.5504470000000 1.0
C      1  0.4812430000000  0.4248460000000  0.4713000000000 1.0
C      1  0.4886550000000  0.4781290000000  0.5241540000000 1.0
C      1  0.4948980000000  0.5586370000000  0.5844800000000 1.0
C      1  0.4055100000000  0.4880910000000  0.5172340000000 1.0
C      1  0.5378550000000  0.4856520000000  0.4976320000000 1.0
C      1  0.4304200000000  0.4551850000000  0.4870120000000 1.0
C      1  0.4559310000000  0.4943580000000  0.4723330000000 1.0
C      1  0.5329140000000  0.5817170000000  0.4678440000000 1.0
C      1  0.4243040000000  0.4410250000000  0.5305320000000 1.0
C      1  0.3973590000000  0.5181650000000  0.4593080000000 1.0
C      1  0.5199950000000  0.5365590000000  0.4283420000000 1.0
C      1  0.5775000000000  0.4868990000000  0.4407510000000 1.0
C      1  0.4809880000000  0.5306400000000  0.5282750000000 1.0
C      1  0.4489330000000  0.4281300000000  0.4323310000000 1.0
C      1  0.4461650000000  0.5576080000000  0.5663600000000 1.0
C      1  0.5224540000000  0.4523890000000  0.4764710000000 1.0
C      1  0.4265530000000  0.5358360000000  0.5714760000000 1.0
C      1  0.4225810000000  0.4371670000000  0.4640380000000 1.0
C      1  0.5181090000000  0.4689860000000  0.5167790000000 1.0
C      1  0.4763540000000  0.4569680000000  0.5789960000000 1.0
C      1  0.4693960000000  0.5480800000000  0.5839770000000 1.0
C      1  0.5899490000000  0.4927210000000  0.4869830000000 1.0
C      1  0.4149180000000  0.5431630000000  0.4595820000000 1.0
C      1  0.4965050000000  0.4215410000000  0.5503800000000 1.0
C      1  0.4803560000000  0.5787240000000  0.4530980000000 1.0
C      1  0.4092540000000  0.5393880000000  0.5046080000000 1.0
C      1  0.5082090000000  0.5945880000000  0.5342780000000 1.0
C      1  0.4483380000000  0.5869650000000  0.5152420000000 1.0
C      1  0.5690840000000  0.5016890000000  0.5837160000000 1.0
C      1  0.5000890000000  0.4734150000000  0.5820590000000 1.0
C      1  0.5644980000000  0.4452290000000  0.5007100000000 1.0
C      1  0.5521410000000  0.4022570000000  0.4793970000000 1.0
C      1  0.4222400000000  0.4933450000000  0.4196260000000 1.0
C      1  0.5640070000000  0.4162870000000  0.5037550000000 1.0
C      1  0.5227650000000  0.4151450000000  0.5140050000000 1.0
C      1  0.5463460000000  0.4554450000000  0.4604480000000 1.0
C      1  0.5039880000000  0.5904730000000  0.4647530000000 1.0
C      1  0.5248300000000  0.5317300000000  0.5043080000000 1.0
C      1  0.4450550000000  0.5655060000000  0.5387940000000 1.0
C      1  0.5833040000000  0.4585440000000  0.4335360000000 1.0
C      1  0.5213910000000  0.4326970000000  0.5619960000000 1.0
C      1  0.4430420000000  0.5416000000000  0.4562760000000 1.0
C      1  0.4881400000000  0.4736730000000  0.4110720000000 1.0
C      1  0.4600050000000  0.5328900000000  0.5083190000000 1.0
C      1  0.5742650000000  0.5542190000000  0.4586350000000 1.0
C      1  0.4000540000000  0.5119110000000  0.4999510000000 1.0
C      1  0.5039480000000  0.5039100000000  0.5782920000000 1.0
C      1  0.4831790000000  0.5553110000000  0.4370500000000 1.0
C      1  0.4544730000000  0.4762810000000  0.5753020000000 1.0
C      1  0.4959480000000  0.6040970000000  0.4897250000000 1.0
C      1  0.4301990000000  0.5421790000000  0.5258800000000 1.0
C      1  0.4917860000000  0.5536810000000  0.5416620000000 1.0
C      1  0.4261360000000  0.4803430000000  0.4704760000000 1.0
C      1  0.5668730000000  0.5254260000000  0.4535430000000 1.0
C      1  0.5751500000000  0.4479450000000  0.4607490000000 1.0
C      1  0.5048360000000  0.4753390000000  0.4746470000000 1.0
C      1  0.5609710000000  0.4585090000000  0.4168660000000 1.0
C      1  0.5809640000000  0.5140820000000  0.4292320000000 1.0
C      1  0.5244250000000  0.4758900000000  0.5461070000000 1.0
C      1  0.5513230000000  0.5684750000000  0.4487040000000 1.0
C      1  0.4530630000000  0.4367250000000  0.5362210000000 1.0
C      1  0.5546820000000  0.5536770000000  0.5635480000000 1.0
C      1  0.4423160000000  0.4156570000000  0.4584550000000 1.0
C      1  0.5295760000000  0.4064990000000  0.4619650000000 1.0
C      1  0.4569360000000  0.5161230000000  0.4515860000000 1.0
C      1  0.4671960000000  0.4779010000000  0.5437280000000 1.0
C      1  0.4240540000000  0.4638200000000  0.5781120000000 1.0
C      1  0.4632060000000  0.5089530000000  0.4237170000000 1.0
C      1  0.5052130000000  0.5433980000000  0.4532050000000 1.0
C      1  0.5544420000000  0.4838740000000  0.4604780000000 1.0
C      1  0.5113340000000  0.5056990000000  0.5483940000000 1.0
C      1  0.5903710000000  0.4950070000000  0.5667690000000 1.0
C      1  0.4027380000000  0.4968120000000  0.4777720000000 1.0
C      1  0.4556050000000  0.5029550000000  0.5914040000000 1.0
C      1  0.5871120000000  0.4778950000000  0.5249470000000 1.0
C      1  0.5663010000000  0.5338960000000  0.4128110000000 1.0
C      1  0.4147240000000  0.4599080000000  0.5119120000000 1.0
C      1  0.4483070000000  0.4845600000000  0.4129160000000 1.0
C      1  0.6016890000000  0.5001210000000  0.5118590000000 1.0
C      1  0.5332370000000  0.5464490000000  0.5819750000000 1.0
C      1  0.4213650000000  0.4606930000000  0.4463850000000 1.0
END
