TITL C-884131-4643-111 0.0307370607356932 125000 -8457.31665447817 0 0 58 (C1) n - 1
REM
REM in /home/nfs/bkarasulu/CARBON/AIRSS/Generating-Clusters/ReaxFF-fromJPCA2015/Units_Real/with-SteepDescent/Only-C1/SD-CG/Try1-3A/FIRE-CG
REM
REM
REM
REM
REM
REM ./C.cell (11c1c37f851c82e70ff6c80c92926a4b)
REM
REM compiler GCC version 9.2.1 20190827 (Red Hat 9.2.1-1)
REM options -cpp -mtune=generic -march=x86-64 -g -O0 -fpre-include=/usr/include/finclude/math-vector-fortran.h
REM seed -1349564355 -902035132 -1880464942 770224474 -2074697640 1840438007 -59957003 2089715133 -735405784 -202651614 950937067 461286924 -1829499148 1423083726 28854049 100367027 1800997728 -565808945 1322020730 -1457690257 2120406823 1174118342 1818804094 -1300057158 -245656171 1009942017 120372509 -189298704 -2132657574 750600672 601400658 1397785819 -1769535421
REM
CELL 1.54180   50.00000   50.00000   50.00000   90.00000   90.00000   90.00000
LATT -1
SFAC C  
C      1  0.4910570000000  0.5078420000000  0.4618650000000 1.0
C      1  0.4778460000000  0.4231310000000  0.4788630000000 1.0
C      1  0.4310230000000  0.5421290000000  0.4937380000000 1.0
C      1  0.5357190000000  0.5644960000000  0.4774830000000 1.0
C      1  0.5510490000000  0.5462960000000  0.5345900000000 1.0
C      1  0.4064960000000  0.5201970000000  0.4992990000000 1.0
C      1  0.4770820000000  0.5238150000000  0.5126880000000 1.0
C      1  0.5467830000000  0.5264030000000  0.4385150000000 1.0
C      1  0.5112170000000  0.5170940000000  0.4789800000000 1.0
C      1  0.4627070000000  0.4780910000000  0.5416550000000 1.0
C      1  0.5235800000000  0.4464940000000  0.5016120000000 1.0
C      1  0.5301830000000  0.5201970000000  0.4168310000000 1.0
C      1  0.4879630000000  0.5110860000000  0.5744280000000 1.0
C      1  0.4600370000000  0.5350300000000  0.4891360000000 1.0
C      1  0.5788280000000  0.5116760000000  0.4704090000000 1.0
C      1  0.4304820000000  0.4825090000000  0.4731550000000 1.0
C      1  0.5032920000000  0.5272390000000  0.5032970000000 1.0
C      1  0.5328340000000  0.5021440000000  0.4916040000000 1.0
C      1  0.4655960000000  0.5252210000000  0.5612930000000 1.0
C      1  0.4334100000000  0.5657760000000  0.4846270000000 1.0
C      1  0.5728600000000  0.4966010000000  0.5250890000000 1.0
C      1  0.5529790000000  0.5510190000000  0.4555570000000 1.0
C      1  0.5227150000000  0.4964490000000  0.4215710000000 1.0
C      1  0.4971000000000  0.4447070000000  0.4960620000000 1.0
C      1  0.4490240000000  0.4331720000000  0.4811000000000 1.0
C      1  0.4445510000000  0.5147190000000  0.5450730000000 1.0
C      1  0.4819460000000  0.4644220000000  0.5589960000000 1.0
C      1  0.5107090000000  0.4673600000000  0.5633290000000 1.0
C      1  0.5456650000000  0.4772970000000  0.4829810000000 1.0
C      1  0.5695360000000  0.5256060000000  0.5368720000000 1.0
C      1  0.5038150000000  0.5488840000000  0.5479720000000 1.0
C      1  0.5590800000000  0.5019430000000  0.4508650000000 1.0
C      1  0.5272000000000  0.5610610000000  0.5326190000000 1.0
C      1  0.5819130000000  0.5009570000000  0.4978010000000 1.0
C      1  0.4440040000000  0.4581520000000  0.4650420000000 1.0
C      1  0.5547160000000  0.4744150000000  0.5312290000000 1.0
C      1  0.4776550000000  0.5404820000000  0.5395530000000 1.0
C      1  0.4917420000000  0.4829860000000  0.5769590000000 1.0
C      1  0.5300130000000  0.5649410000000  0.5048650000000 1.0
C      1  0.4505280000000  0.4412510000000  0.5078410000000 1.0
C      1  0.4889420000000  0.4696190000000  0.5058300000000 1.0
C      1  0.4184600000000  0.4941480000000  0.4999120000000 1.0
C      1  0.5172000000000  0.4746780000000  0.4388490000000 1.0
C      1  0.4555280000000  0.4531130000000  0.5300280000000 1.0
C      1  0.5245140000000  0.5137210000000  0.5173070000000 1.0
C      1  0.4648980000000  0.5196690000000  0.4651790000000 1.0
C      1  0.4756220000000  0.4905830000000  0.5175700000000 1.0
C      1  0.5272240000000  0.5081690000000  0.5458600000000 1.0
C      1  0.4907670000000  0.4811860000000  0.4507090000000 1.0
C      1  0.5336840000000  0.4802250000000  0.5508870000000 1.0
C      1  0.5484450000000  0.4586430000000  0.5066850000000 1.0
C      1  0.4762130000000  0.4152130000000  0.4548300000000 1.0
C      1  0.4320130000000  0.4999640000000  0.5254680000000 1.0
C      1  0.5106480000000  0.5251070000000  0.5635110000000 1.0
C      1  0.4624930000000  0.4743020000000  0.4473850000000 1.0
C      1  0.5785700000000  0.5423970000000  0.4664830000000 1.0
C      1  0.5430660000000  0.4774190000000  0.4534320000000 1.0
C      1  0.4467780000000  0.4985550000000  0.4546300000000 1.0
END
