TITL C-884132-5695-458 10.049345273019 125000 -11740.2573734191 0 0 81 (C1) n - 1
REM
REM in /home/nfs/bkarasulu/CARBON/AIRSS/Generating-Clusters/ReaxFF-fromJPCA2015/Units_Real/with-SteepDescent/Only-C1/SD-CG/Try1-3A/FIRE-CG
REM
REM
REM
REM
REM
REM ./C.cell (11c1c37f851c82e70ff6c80c92926a4b)
REM
REM compiler GCC version 9.2.1 20190827 (Red Hat 9.2.1-1)
REM options -cpp -mtune=generic -march=x86-64 -g -O0 -fpre-include=/usr/include/finclude/math-vector-fortran.h
REM seed 1596327898 1073000684 -1773749808 1087227093 1817774334 -1020203945 -1701198136 -1529810812 2003423081 1190887593 -1018692901 -852240207 -855481129 -1259328255 -1467958748 711180455 -2093949201 -1090750694 1851244376 -906135406 1854792014 916496065 238582592 -539340867 866610678 106516301 -721493116 -1151370875 2089918075 -1338550855 -636492723 892788635 -1915895123
REM
CELL 1.54180   50.00000   50.00000   50.00000   90.00000   90.00000   90.00000
LATT -1
SFAC C  
C      1  0.5491150000000  0.4437310000000  0.4916650000000 1.0
C      1  0.5599920000000  0.4964430000000  0.5213100000000 1.0
C      1  0.4773620000000  0.4853710000000  0.4425130000000 1.0
C      1  0.5647120000000  0.4694860000000  0.4459540000000 1.0
C      1  0.5212740000000  0.5254320000000  0.5734450000000 1.0
C      1  0.4821470000000  0.4969960000000  0.4704850000000 1.0
C      1  0.4519350000000  0.5259420000000  0.5123390000000 1.0
C      1  0.5792510000000  0.5084220000000  0.5031790000000 1.0
C      1  0.5093870000000  0.5444350000000  0.4558370000000 1.0
C      1  0.4761280000000  0.4854200000000  0.5302550000000 1.0
C      1  0.4642430000000  0.5298630000000  0.4259190000000 1.0
C      1  0.4274650000000  0.4554870000000  0.5210670000000 1.0
C      1  0.5037190000000  0.4596780000000  0.4666210000000 1.0
C      1  0.5388830000000  0.4747680000000  0.4317420000000 1.0
C      1  0.5185940000000  0.5689690000000  0.4722530000000 1.0
C      1  0.5498700000000  0.5409080000000  0.5411200000000 1.0
C      1  0.4774040000000  0.5420990000000  0.4497020000000 1.0
C      1  0.5298090000000  0.5495930000000  0.5595870000000 1.0
C      1  0.5141690000000  0.5312000000000  0.4836320000000 1.0
C      1  0.5738440000000  0.4959990000000  0.4350340000000 1.0
C      1  0.4558860000000  0.5582450000000  0.4849220000000 1.0
C      1  0.4878660000000  0.5088590000000  0.5222940000000 1.0
C      1  0.5457000000000  0.5037970000000  0.4262020000000 1.0
C      1  0.4669180000000  0.5152100000000  0.5551010000000 1.0
C      1  0.4713630000000  0.4583000000000  0.5722890000000 1.0
C      1  0.4947680000000  0.4379210000000  0.4487650000000 1.0
C      1  0.5525020000000  0.5554670000000  0.5152300000000 1.0
C      1  0.5251560000000  0.4736420000000  0.4568950000000 1.0
C      1  0.4804490000000  0.5030580000000  0.5776850000000 1.0
C      1  0.4819630000000  0.5663130000000  0.5485230000000 1.0
C      1  0.5268760000000  0.4302650000000  0.4810830000000 1.0
C      1  0.4740080000000  0.4566020000000  0.4398240000000 1.0
C      1  0.5260410000000  0.5253510000000  0.4329760000000 1.0
C      1  0.5455860000000  0.5353120000000  0.4803980000000 1.0
C      1  0.4286980000000  0.4556530000000  0.4919590000000 1.0
C      1  0.5821390000000  0.5071650000000  0.4613570000000 1.0
C      1  0.4984110000000  0.4613210000000  0.4955420000000 1.0
C      1  0.4528330000000  0.4392870000000  0.4819870000000 1.0
C      1  0.4732490000000  0.5416120000000  0.5633390000000 1.0
C      1  0.5295300000000  0.5695820000000  0.5011830000000 1.0
C      1  0.4921690000000  0.4241750000000  0.5148350000000 1.0
C      1  0.4569820000000  0.4444540000000  0.5522940000000 1.0
C      1  0.4363060000000  0.5079150000000  0.4765050000000 1.0
C      1  0.4618530000000  0.5033390000000  0.4884120000000 1.0
C      1  0.5211290000000  0.4691960000000  0.5118130000000 1.0
C      1  0.4703710000000  0.5468400000000  0.5074460000000 1.0
C      1  0.4806010000000  0.5782800000000  0.5208910000000 1.0
C      1  0.4429950000000  0.5231490000000  0.5412180000000 1.0
C      1  0.4933940000000  0.5283510000000  0.5813940000000 1.0
C      1  0.4539330000000  0.4757110000000  0.5536720000000 1.0
C      1  0.4272030000000  0.4779700000000  0.5392260000000 1.0
C      1  0.5828160000000  0.4870090000000  0.4829020000000 1.0
C      1  0.5674190000000  0.5362880000000  0.4989050000000 1.0
C      1  0.4343520000000  0.4753930000000  0.4712130000000 1.0
C      1  0.5426460000000  0.4505710000000  0.5205880000000 1.0
C      1  0.4956230000000  0.5312440000000  0.5078730000000 1.0
C      1  0.5540940000000  0.5152480000000  0.4643930000000 1.0
C      1  0.4698800000000  0.5833490000000  0.4912950000000 1.0
C      1  0.5279180000000  0.4480050000000  0.5463540000000 1.0
C      1  0.4520470000000  0.4561100000000  0.4579410000000 1.0
C      1  0.4775680000000  0.4234850000000  0.4904750000000 1.0
C      1  0.5111560000000  0.5797170000000  0.5212950000000 1.0
C      1  0.4745140000000  0.4636630000000  0.5116300000000 1.0
C      1  0.5062240000000  0.5125470000000  0.4217850000000 1.0
C      1  0.5085450000000  0.5051890000000  0.4808590000000 1.0
C      1  0.4942870000000  0.4764350000000  0.5748920000000 1.0
C      1  0.5672120000000  0.4634080000000  0.4743630000000 1.0
C      1  0.4946040000000  0.5806000000000  0.4788350000000 1.0
C      1  0.5106700000000  0.5699870000000  0.5491470000000 1.0
C      1  0.4799900000000  0.5033610000000  0.4196830000000 1.0
C      1  0.5200110000000  0.4735190000000  0.5621510000000 1.0
C      1  0.5371910000000  0.4904340000000  0.5040820000000 1.0
C      1  0.4547960000000  0.4435650000000  0.5233180000000 1.0
C      1  0.4224620000000  0.5048990000000  0.5303810000000 1.0
C      1  0.5525180000000  0.5117790000000  0.5450860000000 1.0
C      1  0.4531350000000  0.5380510000000  0.4650130000000 1.0
C      1  0.5338450000000  0.4947970000000  0.4747130000000 1.0
C      1  0.4255630000000  0.5169950000000  0.5037280000000 1.0
C      1  0.5327420000000  0.5000410000000  0.5630550000000 1.0
C      1  0.5089080000000  0.4314320000000  0.5335700000000 1.0
C      1  0.5010820000000  0.4202950000000  0.4715560000000 1.0
END
