TITL C-883735-9890-318 -1.80057824014304 125000 -12061.1434826108 0 0 82 (C1) n - 1
REM
REM in /home/nfs/bkarasulu/CARBON/AIRSS/Generating-Clusters/ReaxFF-fromJPCA2015/Units_Real/with-SteepDescent/Only-C1/SD-CG/Try1-3A/FIRE-CG
REM
REM
REM
REM
REM
REM ./C.cell (11c1c37f851c82e70ff6c80c92926a4b)
REM
REM compiler GCC version 9.2.1 20190827 (Red Hat 9.2.1-1)
REM options -cpp -mtune=generic -march=x86-64 -g -O0 -fpre-include=/usr/include/finclude/math-vector-fortran.h
REM seed 1745026203 1866892857 209271228 -457705236 -1025090123 -1313280266 -1910587695 1022532904 -1292850656 810476297 1416359181 -1178586352 1302404192 1270842521 471034039 1754342633 -1068504967 -968806932 1896605070 -1953144420 -1615268111 -1734309717 1008675415 -1334311137 -24375510 793243749 2728228 1823236778 1887192443 882491641 1521225488 -2019335557 -297140854
REM
CELL 1.54180   50.00000   50.00000   50.00000   90.00000   90.00000   90.00000
LATT -1
SFAC C  
C      1  0.5101670000000  0.5656220000000  0.4773360000000 1.0
C      1  0.5487250000000  0.5102570000000  0.4943540000000 1.0
C      1  0.4926760000000  0.5625700000000  0.5009650000000 1.0
C      1  0.5449810000000  0.4514870000000  0.5416770000000 1.0
C      1  0.4629930000000  0.4768780000000  0.4921220000000 1.0
C      1  0.4954160000000  0.4567570000000  0.4319120000000 1.0
C      1  0.4152610000000  0.5065360000000  0.4834470000000 1.0
C      1  0.4948990000000  0.5386590000000  0.5757450000000 1.0
C      1  0.4870600000000  0.4162320000000  0.5395120000000 1.0
C      1  0.4862100000000  0.4625990000000  0.4984570000000 1.0
C      1  0.5269570000000  0.5781120000000  0.5313130000000 1.0
C      1  0.5166360000000  0.5234820000000  0.5316690000000 1.0
C      1  0.5195220000000  0.4737470000000  0.4303220000000 1.0
C      1  0.5450890000000  0.5265510000000  0.4474480000000 1.0
C      1  0.5418050000000  0.5173680000000  0.5717500000000 1.0
C      1  0.4505910000000  0.5485870000000  0.4728740000000 1.0
C      1  0.5764660000000  0.5179340000000  0.5010380000000 1.0
C      1  0.4761980000000  0.4577720000000  0.5661640000000 1.0
C      1  0.5593000000000  0.5645740000000  0.5005220000000 1.0
C      1  0.4497830000000  0.5293920000000  0.4280520000000 1.0
C      1  0.4078440000000  0.4783770000000  0.4772300000000 1.0
C      1  0.4223710000000  0.4586430000000  0.4927520000000 1.0
C      1  0.5472050000000  0.4487470000000  0.5135010000000 1.0
C      1  0.5031790000000  0.4686660000000  0.5738710000000 1.0
C      1  0.5828480000000  0.4724640000000  0.4900710000000 1.0
C      1  0.4556750000000  0.4788440000000  0.5593210000000 1.0
C      1  0.4683030000000  0.4679190000000  0.4253330000000 1.0
C      1  0.4708860000000  0.5018220000000  0.5690020000000 1.0
C      1  0.5558950000000  0.5305270000000  0.5499370000000 1.0
C      1  0.4367520000000  0.5167360000000  0.5332350000000 1.0
C      1  0.5612030000000  0.4892440000000  0.5455100000000 1.0
C      1  0.4497930000000  0.4659030000000  0.4489070000000 1.0
C      1  0.4602300000000  0.4897620000000  0.4635660000000 1.0
C      1  0.4771290000000  0.5595170000000  0.5243780000000 1.0
C      1  0.5409630000000  0.5029170000000  0.4653760000000 1.0
C      1  0.4493280000000  0.5368140000000  0.4993440000000 1.0
C      1  0.4416760000000  0.4709430000000  0.5110170000000 1.0
C      1  0.5093120000000  0.4138640000000  0.5216790000000 1.0
C      1  0.4840810000000  0.4291440000000  0.4764470000000 1.0
C      1  0.5073000000000  0.4986660000000  0.4748430000000 1.0
C      1  0.4990860000000  0.4375750000000  0.4533830000000 1.0
C      1  0.4797540000000  0.4336180000000  0.5533030000000 1.0
C      1  0.4909900000000  0.5219130000000  0.4864950000000 1.0
C      1  0.5709360000000  0.5127480000000  0.5337700000000 1.0
C      1  0.4785070000000  0.5412190000000  0.4685190000000 1.0
C      1  0.4678520000000  0.5314420000000  0.5653030000000 1.0
C      1  0.4730890000000  0.5186420000000  0.5066380000000 1.0
C      1  0.4966180000000  0.5572390000000  0.4517500000000 1.0
C      1  0.5345980000000  0.5291170000000  0.5111440000000 1.0
C      1  0.4966910000000  0.4950700000000  0.5827690000000 1.0
C      1  0.5060170000000  0.4964910000000  0.5339230000000 1.0
C      1  0.4327030000000  0.5087390000000  0.4606380000000 1.0
C      1  0.5465970000000  0.5544350000000  0.5264490000000 1.0
C      1  0.5142740000000  0.5184840000000  0.5843580000000 1.0
C      1  0.5235890000000  0.5252110000000  0.4278100000000 1.0
C      1  0.4882560000000  0.4756920000000  0.5242350000000 1.0
C      1  0.4397900000000  0.4867960000000  0.5364520000000 1.0
C      1  0.5486040000000  0.4881970000000  0.5704950000000 1.0
C      1  0.5401180000000  0.5668610000000  0.4779190000000 1.0
C      1  0.5984780000000  0.4948760000000  0.4905170000000 1.0
C      1  0.5084260000000  0.4703990000000  0.4847140000000 1.0
C      1  0.5420960000000  0.4764320000000  0.4489100000000 1.0
C      1  0.4344530000000  0.5363720000000  0.4508860000000 1.0
C      1  0.4250470000000  0.5221210000000  0.5071690000000 1.0
C      1  0.4677880000000  0.4952710000000  0.4154220000000 1.0
C      1  0.5485240000000  0.4531800000000  0.4642650000000 1.0
C      1  0.4785730000000  0.5014250000000  0.5297800000000 1.0
C      1  0.5304620000000  0.4661000000000  0.5632620000000 1.0
C      1  0.4882920000000  0.4980050000000  0.4520000000000 1.0
C      1  0.4995070000000  0.5718160000000  0.5407490000000 1.0
C      1  0.4256750000000  0.4587300000000  0.4629900000000 1.0
C      1  0.5344600000000  0.4288520000000  0.5269450000000 1.0
C      1  0.4744670000000  0.5237740000000  0.4161290000000 1.0
C      1  0.4919270000000  0.4190580000000  0.5002230000000 1.0
C      1  0.5640850000000  0.4524140000000  0.4898770000000 1.0
C      1  0.4571150000000  0.5390830000000  0.5398340000000 1.0
C      1  0.4993970000000  0.5407550000000  0.4279060000000 1.0
C      1  0.5207660000000  0.4472710000000  0.4718230000000 1.0
C      1  0.5575580000000  0.5488120000000  0.4618200000000 1.0
C      1  0.5101660000000  0.5459170000000  0.5522320000000 1.0
C      1  0.5069520000000  0.5002220000000  0.4292270000000 1.0
C      1  0.5750090000000  0.5449950000000  0.4859670000000 1.0
END
