TITL C-884131-4643-259 95.1789662286041 125000 -29074.6046644338 0 0 195 (C1) n - 1
REM
REM in /home/nfs/bkarasulu/CARBON/AIRSS/Generating-Clusters/ReaxFF-fromJPCA2015/Units_Real/with-SteepDescent/Only-C1/SD-CG/Try1-3A/FIRE-CG
REM
REM
REM
REM
REM
REM ./C.cell (11c1c37f851c82e70ff6c80c92926a4b)
REM
REM compiler GCC version 9.2.1 20190827 (Red Hat 9.2.1-1)
REM options -cpp -mtune=generic -march=x86-64 -g -O0 -fpre-include=/usr/include/finclude/math-vector-fortran.h
REM seed -720028624 -1817717799 1994248275 -23478425 -2074005199 115790015 700593966 -1677615202 1403489498 1864795045 353073928 826082787 875615230 -931380364 -131980411 -1017043745 1834405564 -963988015 -1522325509 277635757 1376499043 959163659 -1138835704 -1421434850 -1431182281 -965926596 -649389671 -753756233 -1753923234 -554297885 -673125451 372361127 -1155386906
REM
CELL 1.54180   50.00000   50.00000   50.00000   90.00000   90.00000   90.00000
LATT -1
SFAC C  
C      1  0.4304330000000  0.5349130000000  0.5499300000000 1.0
C      1  0.5077230000000  0.4561510000000  0.6044730000000 1.0
C      1  0.5759100000000  0.4843820000000  0.5872020000000 1.0
C      1  0.4700990000000  0.5403850000000  0.4878570000000 1.0
C      1  0.5102840000000  0.5156450000000  0.5043550000000 1.0
C      1  0.3948160000000  0.5171150000000  0.4256640000000 1.0
C      1  0.5991890000000  0.5193240000000  0.5627690000000 1.0
C      1  0.4686050000000  0.6036040000000  0.4828900000000 1.0
C      1  0.5009890000000  0.6166230000000  0.5261920000000 1.0
C      1  0.4965670000000  0.4413060000000  0.5169750000000 1.0
C      1  0.5014980000000  0.4703870000000  0.5070590000000 1.0
C      1  0.4406050000000  0.6102570000000  0.4789980000000 1.0
C      1  0.4858400000000  0.3826390000000  0.4879630000000 1.0
C      1  0.6049210000000  0.5349010000000  0.4806590000000 1.0
C      1  0.4788270000000  0.6095460000000  0.5439790000000 1.0
C      1  0.6120770000000  0.4828860000000  0.4837150000000 1.0
C      1  0.4618440000000  0.5461110000000  0.5880560000000 1.0
C      1  0.5900200000000  0.5394440000000  0.4540050000000 1.0
C      1  0.5058940000000  0.5775820000000  0.4216160000000 1.0
C      1  0.5892430000000  0.4445790000000  0.4610910000000 1.0
C      1  0.4560940000000  0.5151200000000  0.3981250000000 1.0
C      1  0.4950600000000  0.5364320000000  0.3985960000000 1.0
C      1  0.4584790000000  0.4361940000000  0.5915450000000 1.0
C      1  0.5505700000000  0.5156230000000  0.4566910000000 1.0
C      1  0.4825920000000  0.5488260000000  0.4618050000000 1.0
C      1  0.4547780000000  0.5998510000000  0.5297870000000 1.0
C      1  0.5096890000000  0.4708010000000  0.4733170000000 1.0
C      1  0.4948480000000  0.4276200000000  0.4608650000000 1.0
C      1  0.4065830000000  0.5176940000000  0.5477060000000 1.0
C      1  0.4731840000000  0.4938520000000  0.4813630000000 1.0
C      1  0.5417310000000  0.3910090000000  0.4846560000000 1.0
C      1  0.5353150000000  0.4463090000000  0.5958050000000 1.0
C      1  0.4065370000000  0.4431870000000  0.4834230000000 1.0
C      1  0.5579680000000  0.5971840000000  0.5187920000000 1.0
C      1  0.4578110000000  0.5604370000000  0.4247730000000 1.0
C      1  0.5705790000000  0.5557280000000  0.5079520000000 1.0
C      1  0.5215760000000  0.5249080000000  0.5693900000000 1.0
C      1  0.5170410000000  0.5776440000000  0.5218370000000 1.0
C      1  0.6143800000000  0.5017640000000  0.5489450000000 1.0
C      1  0.3997890000000  0.5586330000000  0.5086330000000 1.0
C      1  0.5156130000000  0.5543970000000  0.4071250000000 1.0
C      1  0.5313350000000  0.6016790000000  0.5331020000000 1.0
C      1  0.4342210000000  0.4973620000000  0.5899610000000 1.0
C      1  0.5677360000000  0.5328200000000  0.5851500000000 1.0
C      1  0.4661180000000  0.4643550000000  0.4071520000000 1.0
C      1  0.4954480000000  0.5715010000000  0.4730670000000 1.0
C      1  0.4280000000000  0.4394370000000  0.4642170000000 1.0
C      1  0.5532870000000  0.4979800000000  0.4743070000000 1.0
C      1  0.4851510000000  0.4509670000000  0.5430230000000 1.0
C      1  0.5562160000000  0.4789570000000  0.4933000000000 1.0
C      1  0.5244370000000  0.3968510000000  0.5079500000000 1.0
C      1  0.4251210000000  0.4925360000000  0.5125290000000 1.0
C      1  0.5788420000000  0.5164250000000  0.4373820000000 1.0
C      1  0.4679890000000  0.4782200000000  0.5764870000000 1.0
C      1  0.5372620000000  0.4166790000000  0.5865670000000 1.0
C      1  0.4714350000000  0.3896540000000  0.5589990000000 1.0
C      1  0.4238200000000  0.5225650000000  0.4361120000000 1.0
C      1  0.4356020000000  0.5051700000000  0.4144460000000 1.0
C      1  0.5840210000000  0.4223080000000  0.4786450000000 1.0
C      1  0.5557760000000  0.4103670000000  0.5655880000000 1.0
C      1  0.5991810000000  0.4719650000000  0.4617870000000 1.0
C      1  0.4901290000000  0.3970230000000  0.4619260000000 1.0
C      1  0.5521570000000  0.4736900000000  0.4194310000000 1.0
C      1  0.5352100000000  0.5018860000000  0.6038870000000 1.0
C      1  0.4139250000000  0.5829740000000  0.5148950000000 1.0
C      1  0.3771860000000  0.5069590000000  0.4976550000000 1.0
C      1  0.4348710000000  0.4467110000000  0.5763610000000 1.0
C      1  0.5747940000000  0.4237110000000  0.5061960000000 1.0
C      1  0.4927060000000  0.4975580000000  0.5436770000000 1.0
C      1  0.4740810000000  0.4304040000000  0.5020160000000 1.0
C      1  0.4305920000000  0.5855020000000  0.5385130000000 1.0
C      1  0.4970260000000  0.5058040000000  0.4035230000000 1.0
C      1  0.4993830000000  0.5070060000000  0.4365710000000 1.0
C      1  0.5456350000000  0.4970040000000  0.4055140000000 1.0
C      1  0.4578150000000  0.3894350000000  0.4867760000000 1.0
C      1  0.5266580000000  0.4142020000000  0.4085090000000 1.0
C      1  0.5193270000000  0.4805380000000  0.6121840000000 1.0
C      1  0.3941030000000  0.5372890000000  0.5296660000000 1.0
C      1  0.5540590000000  0.5679750000000  0.4311250000000 1.0
C      1  0.5336570000000  0.5953100000000  0.5627970000000 1.0
C      1  0.5178340000000  0.6223830000000  0.4886010000000 1.0
C      1  0.4451870000000  0.4111880000000  0.4404450000000 1.0
C      1  0.5341720000000  0.5239700000000  0.5173760000000 1.0
C      1  0.4360120000000  0.5642380000000  0.5579120000000 1.0
C      1  0.5045490000000  0.4886330000000  0.4544270000000 1.0
C      1  0.4735180000000  0.5583240000000  0.5116550000000 1.0
C      1  0.4597430000000  0.3937720000000  0.4570100000000 1.0
C      1  0.5654950000000  0.4012450000000  0.4728040000000 1.0
C      1  0.4269920000000  0.4990420000000  0.4627150000000 1.0
C      1  0.5934130000000  0.4253690000000  0.5281200000000 1.0
C      1  0.4568230000000  0.4078030000000  0.5115920000000 1.0
C      1  0.5296480000000  0.5370950000000  0.4608020000000 1.0
C      1  0.5071460000000  0.4030490000000  0.4256010000000 1.0
C      1  0.5223470000000  0.4655770000000  0.3933350000000 1.0
C      1  0.4739620000000  0.5314090000000  0.5672750000000 1.0
C      1  0.4795620000000  0.5942700000000  0.5692390000000 1.0
C      1  0.5724250000000  0.4447650000000  0.4381520000000 1.0
C      1  0.6038410000000  0.4527380000000  0.5266030000000 1.0
C      1  0.5571730000000  0.5981790000000  0.4909850000000 1.0
C      1  0.4928850000000  0.4322110000000  0.5625180000000 1.0
C      1  0.5235660000000  0.4238060000000  0.5157810000000 1.0
C      1  0.4785050000000  0.5805510000000  0.4323470000000 1.0
C      1  0.4312270000000  0.4253890000000  0.5262560000000 1.0
C      1  0.3927390000000  0.4680440000000  0.4404510000000 1.0
C      1  0.4888850000000  0.5173190000000  0.4855530000000 1.0
C      1  0.5604210000000  0.5691680000000  0.4810890000000 1.0
C      1  0.3815040000000  0.5293560000000  0.4775340000000 1.0
C      1  0.4787090000000  0.4568230000000  0.5938790000000 1.0
C      1  0.4899670000000  0.4255490000000  0.4318710000000 1.0
C      1  0.4184530000000  0.5648160000000  0.4599430000000 1.0
C      1  0.4983090000000  0.3836570000000  0.5142570000000 1.0
C      1  0.5444550000000  0.4534350000000  0.4386880000000 1.0
C      1  0.4525910000000  0.4855360000000  0.5258170000000 1.0
C      1  0.4278690000000  0.5101230000000  0.4898520000000 1.0
C      1  0.4339360000000  0.5517220000000  0.4396440000000 1.0
C      1  0.5155450000000  0.5695650000000  0.4941490000000 1.0
C      1  0.5393000000000  0.6149800000000  0.4765220000000 1.0
C      1  0.6118500000000  0.5095580000000  0.4948110000000 1.0
C      1  0.5169040000000  0.4194790000000  0.5675110000000 1.0
C      1  0.4114550000000  0.4418710000000  0.5136840000000 1.0
C      1  0.5684610000000  0.4495580000000  0.5584060000000 1.0
C      1  0.4078120000000  0.4609350000000  0.5351330000000 1.0
C      1  0.5788470000000  0.4679810000000  0.4229630000000 1.0
C      1  0.4446720000000  0.5289180000000  0.4998190000000 1.0
C      1  0.5227790000000  0.5463140000000  0.5886750000000 1.0
C      1  0.4213320000000  0.5933400000000  0.4662850000000 1.0
C      1  0.3996220000000  0.5521090000000  0.4798310000000 1.0
C      1  0.5081020000000  0.5934500000000  0.5771440000000 1.0
C      1  0.5310860000000  0.5880590000000  0.4337680000000 1.0
C      1  0.4637040000000  0.4689690000000  0.5480650000000 1.0
C      1  0.5789240000000  0.4214170000000  0.5542480000000 1.0
C      1  0.5349710000000  0.5568550000000  0.4795960000000 1.0
C      1  0.4675660000000  0.5421150000000  0.4037260000000 1.0
C      1  0.5121820000000  0.5611090000000  0.5435500000000 1.0
C      1  0.4653660000000  0.5841430000000  0.5077190000000 1.0
C      1  0.5212460000000  0.4926020000000  0.3914870000000 1.0
C      1  0.5581430000000  0.5217400000000  0.4149890000000 1.0
C      1  0.5441810000000  0.4531520000000  0.4863980000000 1.0
C      1  0.4809350000000  0.5913010000000  0.4591320000000 1.0
C      1  0.5772020000000  0.5753890000000  0.5252450000000 1.0
C      1  0.5671560000000  0.4865690000000  0.5207180000000 1.0
C      1  0.4755300000000  0.3912420000000  0.5306550000000 1.0
C      1  0.5271900000000  0.4491060000000  0.4631270000000 1.0
C      1  0.4218440000000  0.4792940000000  0.4124160000000 1.0
C      1  0.5130800000000  0.4804130000000  0.5333310000000 1.0
C      1  0.5446630000000  0.5472060000000  0.4135610000000 1.0
C      1  0.4087180000000  0.4833360000000  0.5526030000000 1.0
C      1  0.5200840000000  0.5344150000000  0.5410220000000 1.0
C      1  0.4741890000000  0.4810490000000  0.5071050000000 1.0
C      1  0.5312110000000  0.6043780000000  0.4549160000000 1.0
C      1  0.4481350000000  0.5248630000000  0.5282680000000 1.0
C      1  0.4184950000000  0.6013130000000  0.4930530000000 1.0
C      1  0.4025150000000  0.4843960000000  0.4609860000000 1.0
C      1  0.5541990000000  0.5755900000000  0.5685980000000 1.0
C      1  0.4357810000000  0.4298390000000  0.5532430000000 1.0
C      1  0.4748980000000  0.4397020000000  0.4764820000000 1.0
C      1  0.5037020000000  0.5328390000000  0.4501340000000 1.0
C      1  0.5702160000000  0.5613480000000  0.5486030000000 1.0
C      1  0.5421530000000  0.4034170000000  0.4590690000000 1.0
C      1  0.4530250000000  0.4552080000000  0.4682590000000 1.0
C      1  0.5477850000000  0.4358660000000  0.5074970000000 1.0
C      1  0.4723460000000  0.5394320000000  0.5344400000000 1.0
C      1  0.4585590000000  0.5722230000000  0.5744470000000 1.0
C      1  0.4518700000000  0.4832700000000  0.4653380000000 1.0
C      1  0.5910620000000  0.4882180000000  0.4395200000000 1.0
C      1  0.5361190000000  0.4879520000000  0.5485830000000 1.0
C      1  0.5963290000000  0.5465990000000  0.5042670000000 1.0
C      1  0.5995990000000  0.4922740000000  0.5719860000000 1.0
C      1  0.4657780000000  0.4159830000000  0.5590860000000 1.0
C      1  0.4887530000000  0.4457990000000  0.4112940000000 1.0
C      1  0.6194050000000  0.4980170000000  0.5211500000000 1.0
C      1  0.3938610000000  0.4886580000000  0.4193380000000 1.0
C      1  0.5504720000000  0.5556690000000  0.5899790000000 1.0
C      1  0.5539360000000  0.5095510000000  0.5344890000000 1.0
C      1  0.4653280000000  0.4085430000000  0.5840880000000 1.0
C      1  0.4716860000000  0.4914340000000  0.3983590000000 1.0
C      1  0.5734440000000  0.5317740000000  0.5552090000000 1.0
C      1  0.4392250000000  0.4562880000000  0.4152270000000 1.0
C      1  0.5147250000000  0.4392200000000  0.3972740000000 1.0
C      1  0.5260650000000  0.4978830000000  0.5749000000000 1.0
C      1  0.3899520000000  0.4620700000000  0.4696570000000 1.0
C      1  0.4943410000000  0.5205780000000  0.5282400000000 1.0
C      1  0.4310300000000  0.4338440000000  0.4338920000000 1.0
C      1  0.3967800000000  0.4946070000000  0.5152690000000 1.0
C      1  0.4821500000000  0.5038780000000  0.5698850000000 1.0
C      1  0.5638740000000  0.5075070000000  0.5994750000000 1.0
C      1  0.5804770000000  0.4666770000000  0.5372770000000 1.0
C      1  0.4931680000000  0.6202490000000  0.4993340000000 1.0
C      1  0.4234410000000  0.4745580000000  0.5764960000000 1.0
C      1  0.4434690000000  0.5226160000000  0.5979180000000 1.0
C      1  0.6187680000000  0.4712320000000  0.5094750000000 1.0
C      1  0.5343250000000  0.3997940000000  0.4320160000000 1.0
C      1  0.5730880000000  0.5620600000000  0.4523330000000 1.0
C      1  0.5586610000000  0.4602380000000  0.5838140000000 1.0
C      1  0.5073810000000  0.5646850000000  0.5717420000000 1.0
END
