TITL C-884138-6203-446 35.3650190484089 125000 -25845.7971529186 0 0 173 (C1) n - 1
REM
REM in /home/nfs/bkarasulu/CARBON/AIRSS/Generating-Clusters/ReaxFF-fromJPCA2015/Units_Real/with-SteepDescent/Only-C1/SD-CG/Try1-3A/FIRE-CG
REM
REM
REM
REM
REM
REM ./C.cell (11c1c37f851c82e70ff6c80c92926a4b)
REM
REM compiler GCC version 9.2.1 20190827 (Red Hat 9.2.1-1)
REM options -cpp -mtune=generic -march=x86-64 -g -O0 -fpre-include=/usr/include/finclude/math-vector-fortran.h
REM seed 2122222507 -517030711 -850767526 -1315657235 -2044912347 -910576069 -1364238345 924360298 -1373405404 -106023742 -875325330 -1689220208 1028774316 -1814039774 -146030043 -507171872 135625878 -1796910200 -650810002 146313565 -1063490771 -1295493017 346276217 -278358145 1708400269 -1549862765 1752249278 -253166352 -419818997 33083491 268559286 201659447 1794746427
REM
CELL 1.54180   50.00000   50.00000   50.00000   90.00000   90.00000   90.00000
LATT -1
SFAC C  
C      1  0.4925570000000  0.5143110000000  0.5844620000000 1.0
C      1  0.5018670000000  0.5977820000000  0.4660300000000 1.0
C      1  0.4772660000000  0.5311500000000  0.4859740000000 1.0
C      1  0.4934270000000  0.4863290000000  0.4161370000000 1.0
C      1  0.5846180000000  0.5170690000000  0.5524590000000 1.0
C      1  0.5002320000000  0.5062740000000  0.5462240000000 1.0
C      1  0.4495450000000  0.5983670000000  0.5321000000000 1.0
C      1  0.5246640000000  0.4662600000000  0.6264280000000 1.0
C      1  0.4947320000000  0.4857390000000  0.4744960000000 1.0
C      1  0.4349690000000  0.4703130000000  0.4933750000000 1.0
C      1  0.4399780000000  0.4981230000000  0.4947950000000 1.0
C      1  0.4456090000000  0.4238430000000  0.5398490000000 1.0
C      1  0.5516390000000  0.5072830000000  0.4771200000000 1.0
C      1  0.4884240000000  0.4097600000000  0.4999290000000 1.0
C      1  0.5672980000000  0.5412320000000  0.5571290000000 1.0
C      1  0.5239000000000  0.5682500000000  0.4381990000000 1.0
C      1  0.4974720000000  0.5979500000000  0.5200740000000 1.0
C      1  0.4517810000000  0.5387940000000  0.6001880000000 1.0
C      1  0.4570420000000  0.5169570000000  0.5039690000000 1.0
C      1  0.4249150000000  0.5424130000000  0.5328770000000 1.0
C      1  0.4821210000000  0.3958820000000  0.4584620000000 1.0
C      1  0.5220250000000  0.3798700000000  0.4858880000000 1.0
C      1  0.4092160000000  0.5164390000000  0.5625760000000 1.0
C      1  0.4352100000000  0.4638080000000  0.5774320000000 1.0
C      1  0.4522720000000  0.4470170000000  0.4127610000000 1.0
C      1  0.5126830000000  0.4354700000000  0.5288720000000 1.0
C      1  0.5030560000000  0.5277710000000  0.5603970000000 1.0
C      1  0.4706090000000  0.5441080000000  0.4164470000000 1.0
C      1  0.6181870000000  0.4607530000000  0.4673930000000 1.0
C      1  0.4920700000000  0.4649540000000  0.4000340000000 1.0
C      1  0.5445010000000  0.4503760000000  0.6087410000000 1.0
C      1  0.6075830000000  0.4867760000000  0.5165760000000 1.0
C      1  0.4965480000000  0.4300180000000  0.4298560000000 1.0
C      1  0.5862750000000  0.5524730000000  0.4584440000000 1.0
C      1  0.4915050000000  0.4598490000000  0.5692040000000 1.0
C      1  0.4885730000000  0.5894350000000  0.4403540000000 1.0
C      1  0.5445570000000  0.4506520000000  0.5027230000000 1.0
C      1  0.6114600000000  0.4864050000000  0.4820460000000 1.0
C      1  0.4593490000000  0.4994790000000  0.3956080000000 1.0
C      1  0.5450080000000  0.5483680000000  0.5746550000000 1.0
C      1  0.5119030000000  0.5616940000000  0.4113700000000 1.0
C      1  0.4405910000000  0.5120970000000  0.5992470000000 1.0
C      1  0.6026180000000  0.5096440000000  0.4623880000000 1.0
C      1  0.4086010000000  0.5506130000000  0.5095130000000 1.0
C      1  0.5260400000000  0.5141470000000  0.3937080000000 1.0
C      1  0.5705570000000  0.4940630000000  0.4176320000000 1.0
C      1  0.4787380000000  0.5921900000000  0.5672530000000 1.0
C      1  0.4776030000000  0.5813380000000  0.5002490000000 1.0
C      1  0.4169100000000  0.5065690000000  0.4298720000000 1.0
C      1  0.4188870000000  0.5445740000000  0.5609330000000 1.0
C      1  0.4568370000000  0.5765730000000  0.5739910000000 1.0
C      1  0.5636060000000  0.4651720000000  0.4159240000000 1.0
C      1  0.5533180000000  0.5146920000000  0.4047060000000 1.0
C      1  0.4321450000000  0.4953060000000  0.5752030000000 1.0
C      1  0.4136670000000  0.5769400000000  0.4963860000000 1.0
C      1  0.5636030000000  0.4298600000000  0.4964310000000 1.0
C      1  0.5896720000000  0.5089190000000  0.4361490000000 1.0
C      1  0.4128870000000  0.4417970000000  0.4459610000000 1.0
C      1  0.5245280000000  0.5921840000000  0.5131640000000 1.0
C      1  0.4538840000000  0.4580910000000  0.4753730000000 1.0
C      1  0.3869850000000  0.4821130000000  0.4967200000000 1.0
C      1  0.5502850000000  0.4675300000000  0.5244250000000 1.0
C      1  0.4641500000000  0.4690510000000  0.3952740000000 1.0
C      1  0.5090220000000  0.3897960000000  0.4612260000000 1.0
C      1  0.5040870000000  0.4262370000000  0.4817860000000 1.0
C      1  0.4664880000000  0.5507770000000  0.5377690000000 1.0
C      1  0.4854530000000  0.5704730000000  0.4181280000000 1.0
C      1  0.4070350000000  0.4616030000000  0.4932670000000 1.0
C      1  0.5733800000000  0.5782220000000  0.4948460000000 1.0
C      1  0.3865570000000  0.5065660000000  0.5142590000000 1.0
C      1  0.5126040000000  0.5233320000000  0.4454380000000 1.0
C      1  0.5775110000000  0.4635710000000  0.5720600000000 1.0
C      1  0.4774330000000  0.5252660000000  0.3954410000000 1.0
C      1  0.5413440000000  0.5798270000000  0.5354410000000 1.0
C      1  0.5981400000000  0.5358250000000  0.5075480000000 1.0
C      1  0.5116900000000  0.4458120000000  0.4121010000000 1.0
C      1  0.5677220000000  0.4646350000000  0.4609510000000 1.0
C      1  0.3970530000000  0.5089830000000  0.5398610000000 1.0
C      1  0.5507650000000  0.5639760000000  0.4986490000000 1.0
C      1  0.4377320000000  0.5579890000000  0.5805140000000 1.0
C      1  0.5066260000000  0.5448830000000  0.5140390000000 1.0
C      1  0.5277100000000  0.4977030000000  0.4403410000000 1.0
C      1  0.5180050000000  0.5086540000000  0.5988400000000 1.0
C      1  0.4501120000000  0.4206860000000  0.5099240000000 1.0
C      1  0.5408240000000  0.5801610000000  0.4603210000000 1.0
C      1  0.5184990000000  0.4957990000000  0.5129510000000 1.0
C      1  0.5046470000000  0.4751040000000  0.4987380000000 1.0
C      1  0.4887280000000  0.4008330000000  0.5470060000000 1.0
C      1  0.5813280000000  0.4358380000000  0.5198570000000 1.0
C      1  0.4148780000000  0.5768140000000  0.4654610000000 1.0
C      1  0.5069420000000  0.4848730000000  0.6130430000000 1.0
C      1  0.5484530000000  0.4963200000000  0.5522460000000 1.0
C      1  0.5330670000000  0.5428290000000  0.4398050000000 1.0
C      1  0.5621480000000  0.4253750000000  0.5389390000000 1.0
C      1  0.3890040000000  0.4924790000000  0.4695680000000 1.0
C      1  0.4375810000000  0.5884950000000  0.4572020000000 1.0
C      1  0.5364870000000  0.4698510000000  0.5487300000000 1.0
C      1  0.5668650000000  0.4970160000000  0.4971870000000 1.0
C      1  0.5483410000000  0.4952280000000  0.5199820000000 1.0
C      1  0.4866560000000  0.4246440000000  0.5257170000000 1.0
C      1  0.4272240000000  0.5986790000000  0.5115050000000 1.0
C      1  0.4017020000000  0.5294830000000  0.4431180000000 1.0
C      1  0.5043500000000  0.5540020000000  0.5977940000000 1.0
C      1  0.4798700000000  0.4912650000000  0.5601260000000 1.0
C      1  0.4514880000000  0.5258140000000  0.5309940000000 1.0
C      1  0.4725030000000  0.4757800000000  0.4602470000000 1.0
C      1  0.4676250000000  0.5416520000000  0.4630040000000 1.0
C      1  0.4356560000000  0.4496350000000  0.5512810000000 1.0
C      1  0.4578040000000  0.5727930000000  0.5214340000000 1.0
C      1  0.5334240000000  0.5440830000000  0.5032300000000 1.0
C      1  0.5133370000000  0.4550230000000  0.5502530000000 1.0
C      1  0.4150470000000  0.4915380000000  0.4545890000000 1.0
C      1  0.5831960000000  0.4762040000000  0.4849300000000 1.0
C      1  0.4857940000000  0.4662160000000  0.5989160000000 1.0
C      1  0.5616490000000  0.4379780000000  0.5648410000000 1.0
C      1  0.4707440000000  0.4537960000000  0.5256220000000 1.0
C      1  0.5056360000000  0.5350380000000  0.3956220000000 1.0
C      1  0.4815130000000  0.5370300000000  0.6016060000000 1.0
C      1  0.5053940000000  0.5154950000000  0.4742200000000 1.0
C      1  0.5017270000000  0.5174400000000  0.5217080000000 1.0
C      1  0.5304940000000  0.3890580000000  0.5120130000000 1.0
C      1  0.4792640000000  0.5275180000000  0.4401120000000 1.0
C      1  0.5874350000000  0.5614870000000  0.5162180000000 1.0
C      1  0.4199330000000  0.5514820000000  0.4492020000000 1.0
C      1  0.5549040000000  0.5377960000000  0.4226510000000 1.0
C      1  0.5605420000000  0.4368710000000  0.4678110000000 1.0
C      1  0.5989280000000  0.5135380000000  0.5265620000000 1.0
C      1  0.3921150000000  0.5301270000000  0.4967410000000 1.0
C      1  0.5025020000000  0.5721720000000  0.5723000000000 1.0
C      1  0.4495620000000  0.4699000000000  0.5347900000000 1.0
C      1  0.5041020000000  0.3860450000000  0.5050480000000 1.0
C      1  0.5327680000000  0.5709520000000  0.5610980000000 1.0
C      1  0.4532430000000  0.4975000000000  0.5497230000000 1.0
C      1  0.5738500000000  0.4929140000000  0.5660570000000 1.0
C      1  0.5975440000000  0.4610210000000  0.5234500000000 1.0
C      1  0.5276940000000  0.5366140000000  0.5968450000000 1.0
C      1  0.4860300000000  0.4300980000000  0.5771550000000 1.0
C      1  0.5162470000000  0.4017510000000  0.5562270000000 1.0
C      1  0.5255960000000  0.5919420000000  0.4819360000000 1.0
C      1  0.4679980000000  0.4290080000000  0.4311520000000 1.0
C      1  0.5201400000000  0.4927550000000  0.4128320000000 1.0
C      1  0.5407810000000  0.4337470000000  0.4475290000000 1.0
C      1  0.4292580000000  0.4444960000000  0.4269240000000 1.0
C      1  0.4766330000000  0.6014980000000  0.4784290000000 1.0
C      1  0.6126810000000  0.4494420000000  0.4405540000000 1.0
C      1  0.4606080000000  0.4132170000000  0.4562070000000 1.0
C      1  0.5469730000000  0.4885100000000  0.4573390000000 1.0
C      1  0.4897930000000  0.5520300000000  0.5533110000000 1.0
C      1  0.4779330000000  0.6044080000000  0.5403090000000 1.0
C      1  0.3881440000000  0.5220480000000  0.4686360000000 1.0
C      1  0.4722290000000  0.4945140000000  0.4352150000000 1.0
C      1  0.5147360000000  0.4209750000000  0.4542990000000 1.0
C      1  0.4405510000000  0.5363750000000  0.4627500000000 1.0
C      1  0.5343330000000  0.4101940000000  0.5328940000000 1.0
C      1  0.4441050000000  0.5006530000000  0.4200940000000 1.0
C      1  0.5662400000000  0.5626510000000  0.5369250000000 1.0
C      1  0.4530340000000  0.4288710000000  0.4817810000000 1.0
C      1  0.5840290000000  0.4581200000000  0.4349810000000 1.0
C      1  0.4347270000000  0.5088890000000  0.4704210000000 1.0
C      1  0.4583560000000  0.4660580000000  0.5929280000000 1.0
C      1  0.5392990000000  0.4487650000000  0.4233310000000 1.0
C      1  0.5698210000000  0.5759890000000  0.4647640000000 1.0
C      1  0.4677040000000  0.4152950000000  0.5596780000000 1.0
C      1  0.5990530000000  0.5336570000000  0.4774380000000 1.0
C      1  0.5648000000000  0.4652160000000  0.5964030000000 1.0
C      1  0.5815400000000  0.5369260000000  0.4343230000000 1.0
C      1  0.4623820000000  0.6005210000000  0.4529590000000 1.0
C      1  0.4893100000000  0.5550640000000  0.4941020000000 1.0
C      1  0.5312880000000  0.5230000000000  0.4841470000000 1.0
C      1  0.3998370000000  0.4405980000000  0.4713600000000 1.0
C      1  0.5157660000000  0.4464730000000  0.4999450000000 1.0
C      1  0.5397370000000  0.4333290000000  0.5848440000000 1.0
C      1  0.5140690000000  0.4192430000000  0.5788780000000 1.0
END
