TITL C-884133-6611-73 -5.93748713951922 125000 -21875.7273046578 0 0 149 (C1) n - 1
REM
REM in /home/nfs/bkarasulu/CARBON/AIRSS/Generating-Clusters/ReaxFF-fromJPCA2015/Units_Real/with-SteepDescent/Only-C1/SD-CG/Try1-3A/FIRE-CG
REM
REM
REM
REM
REM
REM ./C.cell (11c1c37f851c82e70ff6c80c92926a4b)
REM
REM compiler GCC version 9.2.1 20190827 (Red Hat 9.2.1-1)
REM options -cpp -mtune=generic -march=x86-64 -g -O0 -fpre-include=/usr/include/finclude/math-vector-fortran.h
REM seed 412485523 2104099470 1026446221 -205918561 156531907 -1857486623 -16231987 1086873961 -345429925 -1684880508 -587977309 1016320607 -424036306 729711668 -240933993 1004938533 890027596 -1438204490 -1928794685 -1186712394 1047362302 584916255 -1263504183 1431246454 1161354202 841574989 1642583329 -1281395486 950140479 -543015323 -253525876 -1851061256 1197840141
REM
CELL 1.54180   50.00000   50.00000   50.00000   90.00000   90.00000   90.00000
LATT -1
SFAC C  
C      1  0.5611690000000  0.4598830000000  0.5366620000000 1.0
C      1  0.4506370000000  0.3971860000000  0.5282090000000 1.0
C      1  0.5117260000000  0.6000750000000  0.5365390000000 1.0
C      1  0.4517160000000  0.4674920000000  0.4760760000000 1.0
C      1  0.5362090000000  0.5963960000000  0.4679890000000 1.0
C      1  0.5005920000000  0.4003710000000  0.4588000000000 1.0
C      1  0.4794840000000  0.4249010000000  0.5921950000000 1.0
C      1  0.6015220000000  0.5201490000000  0.4909530000000 1.0
C      1  0.4841810000000  0.4799080000000  0.5599170000000 1.0
C      1  0.4951150000000  0.4726180000000  0.3992560000000 1.0
C      1  0.4974550000000  0.5685090000000  0.5687830000000 1.0
C      1  0.4574350000000  0.4032100000000  0.5017600000000 1.0
C      1  0.4096130000000  0.4632240000000  0.5088000000000 1.0
C      1  0.5226180000000  0.5116210000000  0.4209670000000 1.0
C      1  0.5621420000000  0.4316010000000  0.5447410000000 1.0
C      1  0.4523280000000  0.4231030000000  0.4519870000000 1.0
C      1  0.5724550000000  0.5826110000000  0.5030230000000 1.0
C      1  0.4705380000000  0.4593540000000  0.4092100000000 1.0
C      1  0.4711080000000  0.5649670000000  0.4975380000000 1.0
C      1  0.5469240000000  0.5802900000000  0.5517030000000 1.0
C      1  0.5201930000000  0.4974010000000  0.4651640000000 1.0
C      1  0.4372710000000  0.5539840000000  0.5525730000000 1.0
C      1  0.5423390000000  0.5222720000000  0.4020740000000 1.0
C      1  0.4878510000000  0.4336150000000  0.4754410000000 1.0
C      1  0.4779730000000  0.4533280000000  0.5915390000000 1.0
C      1  0.5179620000000  0.4598740000000  0.4953560000000 1.0
C      1  0.4878320000000  0.4893110000000  0.4408580000000 1.0
C      1  0.5927070000000  0.4937160000000  0.5223150000000 1.0
C      1  0.4538860000000  0.5347740000000  0.5648980000000 1.0
C      1  0.4563450000000  0.5223150000000  0.6034250000000 1.0
C      1  0.4949420000000  0.5004660000000  0.4145990000000 1.0
C      1  0.5026550000000  0.5399160000000  0.5707380000000 1.0
C      1  0.4902970000000  0.4330060000000  0.5265130000000 1.0
C      1  0.4797650000000  0.4814740000000  0.5181130000000 1.0
C      1  0.5922420000000  0.4470980000000  0.4948420000000 1.0
C      1  0.5069240000000  0.4178220000000  0.5774930000000 1.0
C      1  0.4296080000000  0.4273540000000  0.4685750000000 1.0
C      1  0.4416380000000  0.5742180000000  0.4378760000000 1.0
C      1  0.5187940000000  0.5878470000000  0.5600100000000 1.0
C      1  0.5658490000000  0.5013120000000  0.5650520000000 1.0
C      1  0.4562530000000  0.5278810000000  0.4394160000000 1.0
C      1  0.5757920000000  0.4876620000000  0.5893150000000 1.0
C      1  0.4598860000000  0.4761220000000  0.5422940000000 1.0
C      1  0.5177000000000  0.5653650000000  0.4144580000000 1.0
C      1  0.4148970000000  0.5031640000000  0.4510420000000 1.0
C      1  0.5597190000000  0.4348450000000  0.5754360000000 1.0
C      1  0.4974840000000  0.4589690000000  0.5162400000000 1.0
C      1  0.5731230000000  0.4638900000000  0.4610200000000 1.0
C      1  0.4678010000000  0.5209950000000  0.4085210000000 1.0
C      1  0.5301760000000  0.4061930000000  0.5444770000000 1.0
C      1  0.5305270000000  0.4841210000000  0.4875900000000 1.0
C      1  0.4803180000000  0.6016150000000  0.5129450000000 1.0
C      1  0.4675090000000  0.5262230000000  0.5209800000000 1.0
C      1  0.5243900000000  0.5231910000000  0.5003050000000 1.0
C      1  0.5278030000000  0.5388600000000  0.5375270000000 1.0
C      1  0.5051100000000  0.5153150000000  0.6123410000000 1.0
C      1  0.5009260000000  0.5373380000000  0.5957740000000 1.0
C      1  0.5487800000000  0.4720410000000  0.4142560000000 1.0
C      1  0.5415030000000  0.4456160000000  0.5028530000000 1.0
C      1  0.4611390000000  0.5173940000000  0.4941140000000 1.0
C      1  0.5509640000000  0.4102290000000  0.5270200000000 1.0
C      1  0.5399120000000  0.5491080000000  0.4118980000000 1.0
C      1  0.4655710000000  0.4323940000000  0.5409970000000 1.0
C      1  0.4291590000000  0.4436390000000  0.5160740000000 1.0
C      1  0.4350260000000  0.5815580000000  0.4832620000000 1.0
C      1  0.5089240000000  0.5192570000000  0.4785970000000 1.0
C      1  0.4848670000000  0.5526490000000  0.5204680000000 1.0
C      1  0.4307860000000  0.4967020000000  0.5426790000000 1.0
C      1  0.4711800000000  0.6096250000000  0.4584770000000 1.0
C      1  0.4544940000000  0.4075010000000  0.5536430000000 1.0
C      1  0.5045990000000  0.4146750000000  0.5485890000000 1.0
C      1  0.4581630000000  0.4061760000000  0.5842140000000 1.0
C      1  0.4632670000000  0.4888290000000  0.4912080000000 1.0
C      1  0.4865490000000  0.4155210000000  0.4979160000000 1.0
C      1  0.5907840000000  0.4661090000000  0.5317510000000 1.0
C      1  0.5941680000000  0.5454760000000  0.4832240000000 1.0
C      1  0.5475610000000  0.4138850000000  0.4677290000000 1.0
C      1  0.4789160000000  0.5693220000000  0.5453310000000 1.0
C      1  0.5749740000000  0.5404730000000  0.5329650000000 1.0
C      1  0.5987280000000  0.4935450000000  0.4916280000000 1.0
C      1  0.4346180000000  0.4211970000000  0.4969760000000 1.0
C      1  0.5573180000000  0.4993170000000  0.6124170000000 1.0
C      1  0.5659340000000  0.4497940000000  0.4866000000000 1.0
C      1  0.4652880000000  0.4448010000000  0.4683860000000 1.0
C      1  0.4063660000000  0.4879430000000  0.5226380000000 1.0
C      1  0.5520970000000  0.5504480000000  0.5484550000000 1.0
C      1  0.4094520000000  0.5550340000000  0.4993870000000 1.0
C      1  0.4048760000000  0.4680880000000  0.4810670000000 1.0
C      1  0.5376770000000  0.4955560000000  0.5726540000000 1.0
C      1  0.5552420000000  0.4561450000000  0.4389420000000 1.0
C      1  0.4270260000000  0.4802680000000  0.4387450000000 1.0
C      1  0.4261060000000  0.5328690000000  0.4505660000000 1.0
C      1  0.5836610000000  0.5565220000000  0.5094880000000 1.0
C      1  0.3993810000000  0.4949070000000  0.4743700000000 1.0
C      1  0.4474740000000  0.4510110000000  0.5359350000000 1.0
C      1  0.5730310000000  0.4586320000000  0.5865740000000 1.0
C      1  0.5330590000000  0.4277980000000  0.5864530000000 1.0
C      1  0.5359100000000  0.5606110000000  0.4373500000000 1.0
C      1  0.5382680000000  0.4985650000000  0.5101610000000 1.0
C      1  0.4849280000000  0.4414370000000  0.4265420000000 1.0
C      1  0.4968600000000  0.5990900000000  0.4617090000000 1.0
C      1  0.4792470000000  0.4145560000000  0.4426040000000 1.0
C      1  0.5171470000000  0.5484880000000  0.5131440000000 1.0
C      1  0.5603490000000  0.5648210000000  0.4537680000000 1.0
C      1  0.4473120000000  0.4998800000000  0.3968440000000 1.0
C      1  0.3954310000000  0.5059490000000  0.5021900000000 1.0
C      1  0.5379000000000  0.4354980000000  0.4513670000000 1.0
C      1  0.4188990000000  0.5558530000000  0.4319040000000 1.0
C      1  0.5590360000000  0.5861380000000  0.5269530000000 1.0
C      1  0.5177310000000  0.5755350000000  0.4989890000000 1.0
C      1  0.4806640000000  0.5245030000000  0.4746750000000 1.0
C      1  0.4114080000000  0.4919970000000  0.5619920000000 1.0
C      1  0.5788840000000  0.5121340000000  0.5398140000000 1.0
C      1  0.4693180000000  0.5062790000000  0.4546010000000 1.0
C      1  0.4554200000000  0.5871390000000  0.5106610000000 1.0
C      1  0.5699660000000  0.5139350000000  0.4521480000000 1.0
C      1  0.5830420000000  0.4905410000000  0.4666860000000 1.0
C      1  0.5110610000000  0.4023810000000  0.4857480000000 1.0
C      1  0.4453040000000  0.4773540000000  0.4148580000000 1.0
C      1  0.4777060000000  0.4798930000000  0.5883330000000 1.0
C      1  0.4416950000000  0.5371810000000  0.5893560000000 1.0
C      1  0.4660580000000  0.5563380000000  0.4446300000000 1.0
C      1  0.4256120000000  0.4595430000000  0.4634020000000 1.0
C      1  0.4424890000000  0.5286770000000  0.5387080000000 1.0
C      1  0.5223260000000  0.4692520000000  0.4054750000000 1.0
C      1  0.4236360000000  0.5555730000000  0.4777100000000 1.0
C      1  0.5373210000000  0.5070380000000  0.4440880000000 1.0
C      1  0.5383870000000  0.4158520000000  0.4985910000000 1.0
C      1  0.4890670000000  0.5611200000000  0.4209140000000 1.0
C      1  0.4964810000000  0.4617970000000  0.4436090000000 1.0
C      1  0.5094370000000  0.5169430000000  0.5465560000000 1.0
C      1  0.5607430000000  0.4996920000000  0.4076890000000 1.0
C      1  0.4709640000000  0.5507640000000  0.4732140000000 1.0
C      1  0.5622270000000  0.5871350000000  0.4732360000000 1.0
C      1  0.5306090000000  0.5009040000000  0.6021320000000 1.0
C      1  0.4001680000000  0.5333810000000  0.5039430000000 1.0
C      1  0.5179680000000  0.4865860000000  0.5527020000000 1.0
C      1  0.5773290000000  0.5417610000000  0.4585050000000 1.0
C      1  0.4871450000000  0.5074550000000  0.5300450000000 1.0
C      1  0.4437210000000  0.5939760000000  0.4593850000000 1.0
C      1  0.5371960000000  0.4758880000000  0.5298290000000 1.0
C      1  0.5104970000000  0.4470920000000  0.4651100000000 1.0
C      1  0.4858220000000  0.5428280000000  0.4039400000000 1.0
C      1  0.4517640000000  0.5760440000000  0.5405050000000 1.0
C      1  0.4781820000000  0.5046930000000  0.6089690000000 1.0
C      1  0.6069550000000  0.4477980000000  0.5157450000000 1.0
C      1  0.5057190000000  0.5973600000000  0.5123080000000 1.0
C      1  0.5146480000000  0.5775050000000  0.4690490000000 1.0
C      1  0.5739670000000  0.5148770000000  0.4268320000000 1.0
END
