TITL C-884133-6611-485 31.1666219565881 125000 -18430.5555899272 0 0 125 (C1) n - 1
REM
REM in /home/nfs/bkarasulu/CARBON/AIRSS/Generating-Clusters/ReaxFF-fromJPCA2015/Units_Real/with-SteepDescent/Only-C1/SD-CG/Try1-3A/FIRE-CG
REM
REM
REM
REM
REM
REM ./C.cell (11c1c37f851c82e70ff6c80c92926a4b)
REM
REM compiler GCC version 9.2.1 20190827 (Red Hat 9.2.1-1)
REM options -cpp -mtune=generic -march=x86-64 -g -O0 -fpre-include=/usr/include/finclude/math-vector-fortran.h
REM seed 427803876 -1087695639 2063509324 686406653 -273177380 1455530558 -1586744197 -754366038 1809777865 1757435121 563496015 -2020922262 915868904 1382437700 -1578420135 760829653 -61281844 -2063102686 1568471815 68451380 1328037860 1314207405 -2047493809 1081188072 1593270298 -1754127180 -1474792425 -298393823 1422755056 -1222848928 1137163997 -272833088 775654249
REM
CELL 1.54180   50.00000   50.00000   50.00000   90.00000   90.00000   90.00000
LATT -1
SFAC C  
C      1  0.5778740000000  0.5229760000000  0.4568350000000 1.0
C      1  0.4670760000000  0.5878310000000  0.4774460000000 1.0
C      1  0.5470670000000  0.5273810000000  0.4279340000000 1.0
C      1  0.4018170000000  0.5225780000000  0.5513350000000 1.0
C      1  0.5136560000000  0.5309100000000  0.5355830000000 1.0
C      1  0.5477200000000  0.5262960000000  0.5812880000000 1.0
C      1  0.5415090000000  0.5033700000000  0.4137600000000 1.0
C      1  0.4973770000000  0.5465870000000  0.4258000000000 1.0
C      1  0.4686270000000  0.4591000000000  0.5730980000000 1.0
C      1  0.4411200000000  0.4411660000000  0.4590640000000 1.0
C      1  0.5331400000000  0.5101820000000  0.4815550000000 1.0
C      1  0.4486410000000  0.5204390000000  0.5171670000000 1.0
C      1  0.5826310000000  0.4636330000000  0.5457680000000 1.0
C      1  0.5014600000000  0.4737050000000  0.4426900000000 1.0
C      1  0.4376110000000  0.4568530000000  0.5274380000000 1.0
C      1  0.4555330000000  0.5187440000000  0.5801220000000 1.0
C      1  0.5125480000000  0.5020580000000  0.4064870000000 1.0
C      1  0.4368060000000  0.5002980000000  0.5879000000000 1.0
C      1  0.4462310000000  0.5871350000000  0.4955390000000 1.0
C      1  0.4446820000000  0.4750900000000  0.5738750000000 1.0
C      1  0.4987690000000  0.4083230000000  0.5444890000000 1.0
C      1  0.4354950000000  0.5022450000000  0.4996520000000 1.0
C      1  0.5774970000000  0.4988610000000  0.5668480000000 1.0
C      1  0.5448770000000  0.4839960000000  0.5233010000000 1.0
C      1  0.5228110000000  0.5486410000000  0.4435300000000 1.0
C      1  0.5416050000000  0.4655920000000  0.4696870000000 1.0
C      1  0.4120720000000  0.5059320000000  0.4777110000000 1.0
C      1  0.4190700000000  0.5120810000000  0.4483650000000 1.0
C      1  0.4019410000000  0.4747620000000  0.4759310000000 1.0
C      1  0.5521010000000  0.4240000000000  0.4711970000000 1.0
C      1  0.5063600000000  0.5557370000000  0.5964110000000 1.0
C      1  0.5412320000000  0.5303900000000  0.5269310000000 1.0
C      1  0.5523140000000  0.5498730000000  0.5630700000000 1.0
C      1  0.5776840000000  0.4469290000000  0.5220630000000 1.0
C      1  0.4784020000000  0.4189230000000  0.5220230000000 1.0
C      1  0.4128860000000  0.5434060000000  0.5339870000000 1.0
C      1  0.5674250000000  0.5482670000000  0.5348260000000 1.0
C      1  0.5134450000000  0.4593540000000  0.4661400000000 1.0
C      1  0.3944340000000  0.5296040000000  0.4894390000000 1.0
C      1  0.5369650000000  0.5834360000000  0.5288170000000 1.0
C      1  0.4909160000000  0.5399860000000  0.4878310000000 1.0
C      1  0.5552330000000  0.4713040000000  0.5459120000000 1.0
C      1  0.4417460000000  0.5441080000000  0.5334590000000 1.0
C      1  0.5526680000000  0.4748020000000  0.4150340000000 1.0
C      1  0.4551160000000  0.4527010000000  0.4202170000000 1.0
C      1  0.4812910000000  0.4507660000000  0.4358160000000 1.0
C      1  0.5288500000000  0.4611300000000  0.5191530000000 1.0
C      1  0.4550860000000  0.5312540000000  0.4501290000000 1.0
C      1  0.5243870000000  0.4280490000000  0.4280250000000 1.0
C      1  0.4976450000000  0.4639110000000  0.5808790000000 1.0
C      1  0.4495420000000  0.4810040000000  0.4227190000000 1.0
C      1  0.4962340000000  0.5459060000000  0.5185840000000 1.0
C      1  0.4984420000000  0.5067240000000  0.5537190000000 1.0
C      1  0.5321770000000  0.4541750000000  0.4147040000000 1.0
C      1  0.4872310000000  0.5841100000000  0.4590060000000 1.0
C      1  0.5926410000000  0.4867060000000  0.4962520000000 1.0
C      1  0.4495620000000  0.4267370000000  0.4350690000000 1.0
C      1  0.5266170000000  0.4076870000000  0.5003300000000 1.0
C      1  0.4996230000000  0.4651640000000  0.5236300000000 1.0
C      1  0.5477730000000  0.5655970000000  0.4448570000000 1.0
C      1  0.4295020000000  0.5374370000000  0.4388010000000 1.0
C      1  0.4466360000000  0.4754590000000  0.5026110000000 1.0
C      1  0.5010770000000  0.4854380000000  0.5736570000000 1.0
C      1  0.5546560000000  0.4948490000000  0.5805600000000 1.0
C      1  0.4609810000000  0.4461990000000  0.5481710000000 1.0
C      1  0.5325440000000  0.5700240000000  0.5563970000000 1.0
C      1  0.4341530000000  0.4825510000000  0.5469690000000 1.0
C      1  0.4562010000000  0.5702400000000  0.5439810000000 1.0
C      1  0.4619950000000  0.5011760000000  0.5360840000000 1.0
C      1  0.4872610000000  0.5375840000000  0.6073500000000 1.0
C      1  0.4819850000000  0.4969390000000  0.4766700000000 1.0
C      1  0.4867440000000  0.4051340000000  0.4702730000000 1.0
C      1  0.4960200000000  0.4240810000000  0.4275850000000 1.0
C      1  0.4388420000000  0.5585840000000  0.4891350000000 1.0
C      1  0.4693330000000  0.5054860000000  0.4308730000000 1.0
C      1  0.4187360000000  0.4627380000000  0.4567750000000 1.0
C      1  0.4814290000000  0.4209700000000  0.4935060000000 1.0
C      1  0.5428840000000  0.4698410000000  0.5701590000000 1.0
C      1  0.4739530000000  0.4751090000000  0.4939670000000 1.0
C      1  0.4845160000000  0.4936370000000  0.4502470000000 1.0
C      1  0.4655050000000  0.5236490000000  0.6043930000000 1.0
C      1  0.5345190000000  0.4138240000000  0.4521290000000 1.0
C      1  0.5460790000000  0.5088070000000  0.5083870000000 1.0
C      1  0.4926170000000  0.5751660000000  0.5226020000000 1.0
C      1  0.5831740000000  0.4963210000000  0.4675190000000 1.0
C      1  0.4913970000000  0.5201820000000  0.4154330000000 1.0
C      1  0.5065370000000  0.5706000000000  0.5691720000000 1.0
C      1  0.5488180000000  0.4402940000000  0.5211060000000 1.0
C      1  0.5999750000000  0.4781390000000  0.4446670000000 1.0
C      1  0.4599240000000  0.5422480000000  0.4786970000000 1.0
C      1  0.5464170000000  0.5834260000000  0.4675950000000 1.0
C      1  0.5126170000000  0.5548860000000  0.4713950000000 1.0
C      1  0.5631210000000  0.5760330000000  0.5184180000000 1.0
C      1  0.5043340000000  0.5140370000000  0.4817890000000 1.0
C      1  0.4889350000000  0.4504580000000  0.4829060000000 1.0
C      1  0.5252450000000  0.5357930000000  0.5934740000000 1.0
C      1  0.5958600000000  0.4898360000000  0.5479260000000 1.0
C      1  0.5161220000000  0.5831470000000  0.4786010000000 1.0
C      1  0.4828190000000  0.4435600000000  0.5321340000000 1.0
C      1  0.5852430000000  0.4590160000000  0.4968960000000 1.0
C      1  0.5655840000000  0.4478410000000  0.4763400000000 1.0
C      1  0.5587160000000  0.5794060000000  0.4919180000000 1.0
C      1  0.5204000000000  0.4248950000000  0.5537240000000 1.0
C      1  0.4114110000000  0.5474690000000  0.5040660000000 1.0
C      1  0.4112980000000  0.5089570000000  0.5756260000000 1.0
C      1  0.4088480000000  0.4959900000000  0.5514140000000 1.0
C      1  0.5172820000000  0.4016890000000  0.4743590000000 1.0
C      1  0.4684490000000  0.4501580000000  0.4620070000000 1.0
C      1  0.5357370000000  0.4145870000000  0.5261880000000 1.0
C      1  0.5157640000000  0.5870370000000  0.5093820000000 1.0
C      1  0.4886630000000  0.4908790000000  0.5310670000000 1.0
C      1  0.4782890000000  0.5650820000000  0.4372150000000 1.0
C      1  0.5982730000000  0.5034840000000  0.5199610000000 1.0
C      1  0.4479870000000  0.5914990000000  0.5257460000000 1.0
C      1  0.4752540000000  0.4121470000000  0.4434570000000 1.0
C      1  0.5507580000000  0.4927400000000  0.4663410000000 1.0
C      1  0.4257200000000  0.4862140000000  0.4375730000000 1.0
C      1  0.4506350000000  0.5557220000000  0.4343750000000 1.0
C      1  0.4849610000000  0.5766360000000  0.5512940000000 1.0
C      1  0.4716510000000  0.5176420000000  0.5566100000000 1.0
C      1  0.5216930000000  0.4500190000000  0.5712850000000 1.0
C      1  0.5685400000000  0.5435450000000  0.4397470000000 1.0
C      1  0.5109270000000  0.4735630000000  0.4118730000000 1.0
C      1  0.5815540000000  0.4708810000000  0.4245600000000 1.0
C      1  0.5896140000000  0.5305160000000  0.5244330000000 1.0
END
