TITL C-883740-3686-221 6.01232131109694 125000 -7963.37128536818 0 0 55 (C1) n - 1
REM
REM in /home/nfs/bkarasulu/CARBON/AIRSS/Generating-Clusters/ReaxFF-fromJPCA2015/Units_Real/with-SteepDescent/Only-C1/SD-CG/Try1-3A/FIRE-CG
REM
REM
REM
REM
REM
REM ./C.cell (11c1c37f851c82e70ff6c80c92926a4b)
REM
REM compiler GCC version 9.2.1 20190827 (Red Hat 9.2.1-1)
REM options -cpp -mtune=generic -march=x86-64 -g -O0 -fpre-include=/usr/include/finclude/math-vector-fortran.h
REM seed 1592626366 757599964 1618990523 1877564626 681178689 1406823445 1511936978 157361470 -1648317069 -1777818823 -1793729181 664354982 -2043340679 753281900 -790755183 180552394 -716979064 -1870495648 419096344 -1500360109 -401026708 2017155651 -1156166098 -335736186 -738581173 -370987384 -1950511088 -731899496 -2063157922 261508634 -1370673769 1730764654 2140332243
REM
CELL 1.54180   50.00000   50.00000   50.00000   90.00000   90.00000   90.00000
LATT -1
SFAC C  
C      1  0.4624080000000  0.5636450000000  0.5314110000000 1.0
C      1  0.5196540000000  0.4985590000000  0.4339400000000 1.0
C      1  0.4269210000000  0.4936600000000  0.5418210000000 1.0
C      1  0.5264320000000  0.5526040000000  0.5460170000000 1.0
C      1  0.5253830000000  0.4541160000000  0.4795500000000 1.0
C      1  0.4927740000000  0.4733520000000  0.5652900000000 1.0
C      1  0.4582300000000  0.4952420000000  0.4352690000000 1.0
C      1  0.5412120000000  0.4594930000000  0.5613090000000 1.0
C      1  0.4698400000000  0.5438970000000  0.4565350000000 1.0
C      1  0.4718490000000  0.5449930000000  0.5495590000000 1.0
C      1  0.4954230000000  0.4543720000000  0.4366730000000 1.0
C      1  0.5508890000000  0.4965020000000  0.5215150000000 1.0
C      1  0.5241040000000  0.5581210000000  0.4706530000000 1.0
C      1  0.4794370000000  0.5129470000000  0.4985250000000 1.0
C      1  0.4337170000000  0.4879400000000  0.4495690000000 1.0
C      1  0.4962100000000  0.5738750000000  0.4961750000000 1.0
C      1  0.4706300000000  0.4443280000000  0.5023810000000 1.0
C      1  0.4990550000000  0.4902970000000  0.5399700000000 1.0
C      1  0.5625350000000  0.5076530000000  0.4592420000000 1.0
C      1  0.5096010000000  0.4763600000000  0.4935800000000 1.0
C      1  0.4867310000000  0.5814210000000  0.5225030000000 1.0
C      1  0.4517430000000  0.4942310000000  0.5436950000000 1.0
C      1  0.5132650000000  0.5323800000000  0.5658710000000 1.0
C      1  0.4848460000000  0.4693070000000  0.5080680000000 1.0
C      1  0.4691470000000  0.5605510000000  0.4810250000000 1.0
C      1  0.5321570000000  0.5415410000000  0.4536150000000 1.0
C      1  0.4742310000000  0.4926150000000  0.5193760000000 1.0
C      1  0.5592720000000  0.5172190000000  0.4854120000000 1.0
C      1  0.4684020000000  0.4672640000000  0.4358850000000 1.0
C      1  0.5088770000000  0.5724540000000  0.5369310000000 1.0
C      1  0.4836870000000  0.5273980000000  0.5662200000000 1.0
C      1  0.4896930000000  0.4444820000000  0.5531080000000 1.0
C      1  0.5206690000000  0.4696770000000  0.4349410000000 1.0
C      1  0.4698770000000  0.4980510000000  0.5696560000000 1.0
C      1  0.4976380000000  0.4295560000000  0.4529030000000 1.0
C      1  0.5009730000000  0.5101090000000  0.4535050000000 1.0
C      1  0.5098020000000  0.4292590000000  0.4803540000000 1.0
C      1  0.4605900000000  0.5320030000000  0.4935340000000 1.0
C      1  0.5403910000000  0.5185100000000  0.4401870000000 1.0
C      1  0.5408910000000  0.4608950000000  0.4550110000000 1.0
C      1  0.4524830000000  0.4459310000000  0.4788130000000 1.0
C      1  0.4993090000000  0.5024790000000  0.4813780000000 1.0
C      1  0.5329890000000  0.4507910000000  0.5345760000000 1.0
C      1  0.5554420000000  0.5256360000000  0.5114790000000 1.0
C      1  0.5222370000000  0.4792840000000  0.5749310000000 1.0
C      1  0.5356360000000  0.4731810000000  0.5152910000000 1.0
C      1  0.5232940000000  0.5639690000000  0.4972460000000 1.0
C      1  0.5062230000000  0.4345240000000  0.5321790000000 1.0
C      1  0.4462340000000  0.4585290000000  0.4534070000000 1.0
C      1  0.5370710000000  0.5475790000000  0.5192160000000 1.0
C      1  0.4943850000000  0.4273520000000  0.5056250000000 1.0
C      1  0.5652520000000  0.4778140000000  0.4565810000000 1.0
C      1  0.5220250000000  0.5069010000000  0.5711610000000 1.0
C      1  0.4526030000000  0.5538380000000  0.5060640000000 1.0
C      1  0.4756290000000  0.5213130000000  0.4412680000000 1.0
END
