TITL C-884140-4336-103 68.9246274197966 125000 -25285.750438615 0 0 169 (C1) n - 1
REM
REM in /home/nfs/bkarasulu/CARBON/AIRSS/Generating-Clusters/ReaxFF-fromJPCA2015/Units_Real/with-SteepDescent/Only-C1/SD-CG/Try1-3A/FIRE-CG
REM
REM
REM
REM
REM
REM ./C.cell (11c1c37f851c82e70ff6c80c92926a4b)
REM
REM compiler GCC version 9.2.1 20190827 (Red Hat 9.2.1-1)
REM options -cpp -mtune=generic -march=x86-64 -g -O0 -fpre-include=/usr/include/finclude/math-vector-fortran.h
REM seed 1585572484 88224958 -1103222497 1193661041 -78324888 -1796554397 -2062460446 1145482814 1998376883 2032725674 -1970699153 -1930730898 975552458 1133935127 -1685893387 2082985960 -1733080936 -413365320 -454496718 -234163856 1281391060 495701535 -127040232 -798858217 1143454557 -715131576 1971771940 -161902114 1939511991 352013924 -1190655605 845382833 699462982
REM
CELL 1.54180   50.00000   50.00000   50.00000   90.00000   90.00000   90.00000
LATT -1
SFAC C  
C      1  0.4389220000000  0.4679590000000  0.4983820000000 1.0
C      1  0.4925990000000  0.4961270000000  0.5730350000000 1.0
C      1  0.6150210000000  0.4924410000000  0.5028150000000 1.0
C      1  0.3983520000000  0.5310660000000  0.4838200000000 1.0
C      1  0.4087530000000  0.4857660000000  0.4594520000000 1.0
C      1  0.4995520000000  0.5418740000000  0.3984900000000 1.0
C      1  0.5206010000000  0.4349590000000  0.4118180000000 1.0
C      1  0.5388790000000  0.4796940000000  0.4487560000000 1.0
C      1  0.6029900000000  0.5431380000000  0.5183050000000 1.0
C      1  0.4895060000000  0.4316620000000  0.5502570000000 1.0
C      1  0.4911870000000  0.6072810000000  0.5307690000000 1.0
C      1  0.4639840000000  0.5992100000000  0.5171690000000 1.0
C      1  0.5430790000000  0.5628450000000  0.4143050000000 1.0
C      1  0.4922920000000  0.5844230000000  0.4189550000000 1.0
C      1  0.5858380000000  0.4982480000000  0.4206570000000 1.0
C      1  0.5107510000000  0.5188260000000  0.4429180000000 1.0
C      1  0.4115890000000  0.4583700000000  0.5046100000000 1.0
C      1  0.4362260000000  0.5729320000000  0.4823280000000 1.0
C      1  0.4060400000000  0.5065990000000  0.4940810000000 1.0
C      1  0.5867340000000  0.5417650000000  0.4920880000000 1.0
C      1  0.4204190000000  0.4589860000000  0.5523410000000 1.0
C      1  0.5137510000000  0.5653830000000  0.5448740000000 1.0
C      1  0.4712820000000  0.5272590000000  0.4856380000000 1.0
C      1  0.5094910000000  0.4889220000000  0.6198940000000 1.0
C      1  0.5321910000000  0.4138460000000  0.5460940000000 1.0
C      1  0.5474530000000  0.5850100000000  0.5513810000000 1.0
C      1  0.4973430000000  0.5485920000000  0.5351430000000 1.0
C      1  0.4408510000000  0.5474500000000  0.5819290000000 1.0
C      1  0.4797070000000  0.5965560000000  0.4432620000000 1.0
C      1  0.5063420000000  0.3977830000000  0.4788740000000 1.0
C      1  0.5146480000000  0.5045470000000  0.4950870000000 1.0
C      1  0.5256100000000  0.5852560000000  0.4742660000000 1.0
C      1  0.4945260000000  0.5621660000000  0.4920460000000 1.0
C      1  0.4531590000000  0.4796340000000  0.5188580000000 1.0
C      1  0.5191630000000  0.4830190000000  0.3916870000000 1.0
C      1  0.4928750000000  0.4448610000000  0.5178520000000 1.0
C      1  0.4094900000000  0.4570380000000  0.4567050000000 1.0
C      1  0.5433910000000  0.5381830000000  0.5579050000000 1.0
C      1  0.4822160000000  0.4730740000000  0.5196330000000 1.0
C      1  0.5665150000000  0.4686210000000  0.5563160000000 1.0
C      1  0.5131510000000  0.3981450000000  0.5303370000000 1.0
C      1  0.5859180000000  0.4741760000000  0.4643770000000 1.0
C      1  0.5558010000000  0.4594440000000  0.4269560000000 1.0
C      1  0.4294140000000  0.4937070000000  0.4826850000000 1.0
C      1  0.5756460000000  0.5711900000000  0.4868270000000 1.0
C      1  0.4765800000000  0.5220210000000  0.4005030000000 1.0
C      1  0.4929330000000  0.5001790000000  0.3963830000000 1.0
C      1  0.4807590000000  0.6009400000000  0.4724640000000 1.0
C      1  0.4521480000000  0.5279100000000  0.4191580000000 1.0
C      1  0.5578320000000  0.5379230000000  0.4133160000000 1.0
C      1  0.4776070000000  0.4033040000000  0.4912210000000 1.0
C      1  0.3811480000000  0.4815140000000  0.5326660000000 1.0
C      1  0.4546780000000  0.4575590000000  0.4311040000000 1.0
C      1  0.4680770000000  0.5260930000000  0.5484920000000 1.0
C      1  0.4754660000000  0.4327740000000  0.3875030000000 1.0
C      1  0.5431030000000  0.5030750000000  0.4917370000000 1.0
C      1  0.5191530000000  0.5815180000000  0.5688570000000 1.0
C      1  0.4934340000000  0.5229000000000  0.5062790000000 1.0
C      1  0.5287570000000  0.5133720000000  0.6201370000000 1.0
C      1  0.5503850000000  0.4033480000000  0.5044830000000 1.0
C      1  0.5578920000000  0.4942500000000  0.5481100000000 1.0
C      1  0.5094550000000  0.4631930000000  0.6045970000000 1.0
C      1  0.4397570000000  0.4378730000000  0.5452960000000 1.0
C      1  0.3980880000000  0.5479320000000  0.5079130000000 1.0
C      1  0.5073730000000  0.6050030000000  0.4857930000000 1.0
C      1  0.4119790000000  0.5354040000000  0.4585070000000 1.0
C      1  0.4373140000000  0.4768260000000  0.4177940000000 1.0
C      1  0.4576090000000  0.4460750000000  0.4788060000000 1.0
C      1  0.5567330000000  0.4154100000000  0.5295510000000 1.0
C      1  0.5448590000000  0.4527730000000  0.4920590000000 1.0
C      1  0.5637990000000  0.5598580000000  0.5551950000000 1.0
C      1  0.5794470000000  0.4336940000000  0.5245200000000 1.0
C      1  0.4251440000000  0.4541890000000  0.4320850000000 1.0
C      1  0.5114930000000  0.5557210000000  0.5912140000000 1.0
C      1  0.5171900000000  0.4318950000000  0.5637280000000 1.0
C      1  0.4067460000000  0.4403820000000  0.4825160000000 1.0
C      1  0.4358330000000  0.5555110000000  0.5320840000000 1.0
C      1  0.5065940000000  0.4586900000000  0.4777600000000 1.0
C      1  0.4625710000000  0.4617060000000  0.5832890000000 1.0
C      1  0.5855970000000  0.4582130000000  0.5375930000000 1.0
C      1  0.4458270000000  0.5273810000000  0.5317400000000 1.0
C      1  0.5363830000000  0.5086580000000  0.4426520000000 1.0
C      1  0.4703510000000  0.4603540000000  0.4552090000000 1.0
C      1  0.4686350000000  0.5455620000000  0.5713650000000 1.0
C      1  0.4923920000000  0.4240360000000  0.4047520000000 1.0
C      1  0.4651890000000  0.5773730000000  0.4266580000000 1.0
C      1  0.4670320000000  0.5125060000000  0.6020270000000 1.0
C      1  0.5509920000000  0.5047660000000  0.6063870000000 1.0
C      1  0.4832140000000  0.5482330000000  0.4690430000000 1.0
C      1  0.5890380000000  0.4322500000000  0.4970760000000 1.0
C      1  0.4886190000000  0.4049410000000  0.4310380000000 1.0
C      1  0.5022110000000  0.4889850000000  0.5340270000000 1.0
C      1  0.4131190000000  0.5099480000000  0.4434770000000 1.0
C      1  0.5229230000000  0.3944010000000  0.5020930000000 1.0
C      1  0.4805740000000  0.4902760000000  0.6189230000000 1.0
C      1  0.5728840000000  0.4272290000000  0.4598780000000 1.0
C      1  0.4497650000000  0.5527430000000  0.4340450000000 1.0
C      1  0.4858740000000  0.5113680000000  0.5310660000000 1.0
C      1  0.4223390000000  0.5539180000000  0.5609990000000 1.0
C      1  0.4655140000000  0.4918770000000  0.5788580000000 1.0
C      1  0.4547730000000  0.5074230000000  0.4736840000000 1.0
C      1  0.4582490000000  0.5932400000000  0.4892900000000 1.0
C      1  0.4246490000000  0.4204590000000  0.4952030000000 1.0
C      1  0.4963100000000  0.4948080000000  0.4462120000000 1.0
C      1  0.4664540000000  0.4036580000000  0.4458200000000 1.0
C      1  0.5859470000000  0.5528070000000  0.5385250000000 1.0
C      1  0.5589850000000  0.5763660000000  0.5111460000000 1.0
C      1  0.4747100000000  0.4885540000000  0.4636540000000 1.0
C      1  0.5307460000000  0.4205050000000  0.4351730000000 1.0
C      1  0.4560110000000  0.3983240000000  0.4704340000000 1.0
C      1  0.5420770000000  0.5958690000000  0.5249240000000 1.0
C      1  0.5540010000000  0.5312270000000  0.4417860000000 1.0
C      1  0.6027180000000  0.4962400000000  0.4768470000000 1.0
C      1  0.4324160000000  0.5559960000000  0.4577470000000 1.0
C      1  0.5267690000000  0.5371170000000  0.6046240000000 1.0
C      1  0.5589230000000  0.4835380000000  0.5934890000000 1.0
C      1  0.4982950000000  0.6012660000000  0.5582090000000 1.0
C      1  0.5723440000000  0.5096610000000  0.5292600000000 1.0
C      1  0.5104170000000  0.4700930000000  0.4503590000000 1.0
C      1  0.5654830000000  0.5754810000000  0.4618470000000 1.0
C      1  0.5494910000000  0.5782090000000  0.4387910000000 1.0
C      1  0.4807310000000  0.5600360000000  0.5166620000000 1.0
C      1  0.4191200000000  0.5089100000000  0.5745780000000 1.0
C      1  0.5921000000000  0.4457370000000  0.4714310000000 1.0
C      1  0.4402630000000  0.4200400000000  0.4718410000000 1.0
C      1  0.4948570000000  0.4824470000000  0.4907370000000 1.0
C      1  0.4795180000000  0.4627510000000  0.6070990000000 1.0
C      1  0.5221450000000  0.5708040000000  0.4492050000000 1.0
C      1  0.4398420000000  0.4193400000000  0.5213810000000 1.0
C      1  0.6162590000000  0.5167120000000  0.5204080000000 1.0
C      1  0.5231190000000  0.5613460000000  0.4900750000000 1.0
C      1  0.4385730000000  0.5202320000000  0.5935270000000 1.0
C      1  0.4588240000000  0.5739540000000  0.5287640000000 1.0
C      1  0.4046800000000  0.5318040000000  0.5593490000000 1.0
C      1  0.5406400000000  0.4900100000000  0.3798700000000 1.0
C      1  0.5548980000000  0.4593660000000  0.5810360000000 1.0
C      1  0.4338280000000  0.5060300000000  0.4232950000000 1.0
C      1  0.5862440000000  0.5261310000000  0.4166880000000 1.0
C      1  0.4858500000000  0.4040200000000  0.5381480000000 1.0
C      1  0.4208990000000  0.5649960000000  0.5053210000000 1.0
C      1  0.5266660000000  0.4500630000000  0.5840370000000 1.0
C      1  0.5151060000000  0.6061770000000  0.5136990000000 1.0
C      1  0.4874880000000  0.5412060000000  0.5924420000000 1.0
C      1  0.5403600000000  0.5106530000000  0.5628660000000 1.0
C      1  0.4020510000000  0.5040110000000  0.5221350000000 1.0
C      1  0.5981790000000  0.5036260000000  0.5374520000000 1.0
C      1  0.4777170000000  0.4328780000000  0.4961180000000 1.0
C      1  0.5189420000000  0.4448690000000  0.5001080000000 1.0
C      1  0.4276620000000  0.4868130000000  0.5579260000000 1.0
C      1  0.5557240000000  0.4329110000000  0.4393650000000 1.0
C      1  0.5428470000000  0.5507260000000  0.5093560000000 1.0
C      1  0.5820670000000  0.4746900000000  0.4328610000000 1.0
C      1  0.5263060000000  0.5421100000000  0.5353750000000 1.0
C      1  0.4361100000000  0.4999450000000  0.5311870000000 1.0
C      1  0.5345140000000  0.4582400000000  0.4046670000000 1.0
C      1  0.5614930000000  0.4241320000000  0.4862900000000 1.0
C      1  0.4631200000000  0.4021610000000  0.5202990000000 1.0
C      1  0.5048870000000  0.5467000000000  0.4496980000000 1.0
C      1  0.5964250000000  0.5239220000000  0.4699290000000 1.0
C      1  0.5130820000000  0.5656930000000  0.4073960000000 1.0
C      1  0.5534570000000  0.4777110000000  0.4782830000000 1.0
C      1  0.5826790000000  0.5317080000000  0.4458980000000 1.0
C      1  0.4629760000000  0.4416910000000  0.5622450000000 1.0
C      1  0.5112690000000  0.4040760000000  0.4508540000000 1.0
C      1  0.3944640000000  0.5308760000000  0.5320300000000 1.0
C      1  0.5160000000000  0.4933500000000  0.5595440000000 1.0
C      1  0.6030380000000  0.4780910000000  0.5265810000000 1.0
C      1  0.3983770000000  0.4586280000000  0.5319150000000 1.0
C      1  0.5611800000000  0.5229670000000  0.5050020000000 1.0
END
