TITL C-883736-9678-151 2.8199399130762 125000 -27912.3525422345 0 0 186 (C1) n - 1
REM
REM in /home/nfs/bkarasulu/CARBON/AIRSS/Generating-Clusters/ReaxFF-fromJPCA2015/Units_Real/with-SteepDescent/Only-C1/SD-CG/Try1-3A/FIRE-CG
REM
REM
REM
REM
REM
REM ./C.cell (11c1c37f851c82e70ff6c80c92926a4b)
REM
REM compiler GCC version 9.2.1 20190827 (Red Hat 9.2.1-1)
REM options -cpp -mtune=generic -march=x86-64 -g -O0 -fpre-include=/usr/include/finclude/math-vector-fortran.h
REM seed -1696859068 455121789 -2039961063 400132207 816709439 1530605858 -682962566 -1442177255 -1758019337 -1114476370 1507397180 334095146 1199356565 665071473 -1231538612 934449920 -920587658 1054165405 -671324181 101444036 -1840708971 -1951683032 -1387933629 -530166907 2013536066 1615232092 -1514341796 298027563 -2103396280 -1271310341 164982445 -392575969 -42169711
REM
CELL 1.54180   50.00000   50.00000   50.00000   90.00000   90.00000   90.00000
LATT -1
SFAC C  
C      1  0.5498680000000  0.4549650000000  0.4655320000000 1.0
C      1  0.5310060000000  0.5698700000000  0.5613940000000 1.0
C      1  0.4596750000000  0.4272480000000  0.5524990000000 1.0
C      1  0.4402540000000  0.4140300000000  0.4423220000000 1.0
C      1  0.5334570000000  0.5048290000000  0.4520560000000 1.0
C      1  0.5917060000000  0.4858860000000  0.4336670000000 1.0
C      1  0.4840560000000  0.4453750000000  0.4051210000000 1.0
C      1  0.5761500000000  0.4617720000000  0.4326820000000 1.0
C      1  0.4521270000000  0.4983790000000  0.4308900000000 1.0
C      1  0.5294280000000  0.4559370000000  0.5619170000000 1.0
C      1  0.5244370000000  0.5409860000000  0.3933210000000 1.0
C      1  0.5595710000000  0.4604570000000  0.5265100000000 1.0
C      1  0.5561170000000  0.5710630000000  0.5468440000000 1.0
C      1  0.6007290000000  0.5228350000000  0.5058730000000 1.0
C      1  0.4876290000000  0.5767970000000  0.5382300000000 1.0
C      1  0.5180430000000  0.5985210000000  0.4556580000000 1.0
C      1  0.5992330000000  0.4995180000000  0.5411450000000 1.0
C      1  0.3961320000000  0.4631290000000  0.4890130000000 1.0
C      1  0.5231680000000  0.4434260000000  0.4626510000000 1.0
C      1  0.4143200000000  0.5211930000000  0.5375910000000 1.0
C      1  0.5162060000000  0.5626750000000  0.4120000000000 1.0
C      1  0.5305880000000  0.4289940000000  0.4367330000000 1.0
C      1  0.5901530000000  0.5340170000000  0.4291930000000 1.0
C      1  0.4350550000000  0.4373440000000  0.4304850000000 1.0
C      1  0.4646540000000  0.4478500000000  0.4777410000000 1.0
C      1  0.5535860000000  0.5395470000000  0.3969990000000 1.0
C      1  0.3942240000000  0.5539400000000  0.5234870000000 1.0
C      1  0.5793520000000  0.5716090000000  0.5122240000000 1.0
C      1  0.4759780000000  0.5399520000000  0.6019820000000 1.0
C      1  0.4563830000000  0.6037910000000  0.5205770000000 1.0
C      1  0.5346290000000  0.5505830000000  0.6064870000000 1.0
C      1  0.4318930000000  0.4288340000000  0.5660770000000 1.0
C      1  0.5744120000000  0.4411740000000  0.4543140000000 1.0
C      1  0.5239090000000  0.4321950000000  0.4898110000000 1.0
C      1  0.5714700000000  0.5482350000000  0.5292800000000 1.0
C      1  0.5582660000000  0.5107280000000  0.4045650000000 1.0
C      1  0.5085540000000  0.6150970000000  0.5188260000000 1.0
C      1  0.4379020000000  0.5021220000000  0.4973750000000 1.0
C      1  0.4224860000000  0.5454220000000  0.5525720000000 1.0
C      1  0.4735600000000  0.4789270000000  0.4268520000000 1.0
C      1  0.4939360000000  0.3999810000000  0.4565080000000 1.0
C      1  0.4205950000000  0.4182580000000  0.4662910000000 1.0
C      1  0.5192090000000  0.5666930000000  0.5879280000000 1.0
C      1  0.5071790000000  0.5172230000000  0.3870230000000 1.0
C      1  0.5593660000000  0.4883370000000  0.5253110000000 1.0
C      1  0.4794330000000  0.6189940000000  0.4781480000000 1.0
C      1  0.5273240000000  0.4856120000000  0.5694670000000 1.0
C      1  0.5548710000000  0.4483250000000  0.5772220000000 1.0
C      1  0.4866180000000  0.5029880000000  0.4686700000000 1.0
C      1  0.4471970000000  0.5856530000000  0.4721730000000 1.0
C      1  0.5365520000000  0.5200620000000  0.4285540000000 1.0
C      1  0.5274060000000  0.5731940000000  0.4393170000000 1.0
C      1  0.5186740000000  0.4123480000000  0.5841650000000 1.0
C      1  0.5688130000000  0.5517910000000  0.4193660000000 1.0
C      1  0.4032350000000  0.4836970000000  0.5641630000000 1.0
C      1  0.5725050000000  0.4247510000000  0.5016820000000 1.0
C      1  0.4399900000000  0.4902110000000  0.4758690000000 1.0
C      1  0.5743180000000  0.5071330000000  0.5042960000000 1.0
C      1  0.5220650000000  0.5279470000000  0.6191820000000 1.0
C      1  0.4090560000000  0.4434650000000  0.5572040000000 1.0
C      1  0.5732360000000  0.4999730000000  0.5837770000000 1.0
C      1  0.5142340000000  0.5527220000000  0.5124490000000 1.0
C      1  0.5854520000000  0.5088270000000  0.4169590000000 1.0
C      1  0.4712830000000  0.5802160000000  0.4541740000000 1.0
C      1  0.5959440000000  0.4992240000000  0.4587990000000 1.0
C      1  0.4422510000000  0.5821230000000  0.5703460000000 1.0
C      1  0.4366220000000  0.5080160000000  0.5953600000000 1.0
C      1  0.5568750000000  0.5691340000000  0.4392810000000 1.0
C      1  0.5087410000000  0.4568120000000  0.3976500000000 1.0
C      1  0.4891720000000  0.5653000000000  0.5934970000000 1.0
C      1  0.5002710000000  0.4923820000000  0.4219950000000 1.0
C      1  0.4310310000000  0.4590600000000  0.5139370000000 1.0
C      1  0.4603280000000  0.4659610000000  0.4021810000000 1.0
C      1  0.6018460000000  0.5409840000000  0.4823110000000 1.0
C      1  0.5509600000000  0.4671000000000  0.4198810000000 1.0
C      1  0.4233850000000  0.4850800000000  0.4318320000000 1.0
C      1  0.4493630000000  0.5436340000000  0.4253120000000 1.0
C      1  0.5160780000000  0.3922560000000  0.5053390000000 1.0
C      1  0.4863680000000  0.5093990000000  0.5015840000000 1.0
C      1  0.5273090000000  0.6104150000000  0.4811220000000 1.0
C      1  0.3929130000000  0.4637500000000  0.5461370000000 1.0
C      1  0.4439960000000  0.5591190000000  0.5368220000000 1.0
C      1  0.5494910000000  0.5008300000000  0.5895670000000 1.0
C      1  0.4912090000000  0.5696110000000  0.5106880000000 1.0
C      1  0.5881830000000  0.4421040000000  0.4847790000000 1.0
C      1  0.5157670000000  0.4880550000000  0.3923580000000 1.0
C      1  0.6000000000000  0.5273200000000  0.4564950000000 1.0
C      1  0.5159050000000  0.3932160000000  0.4742020000000 1.0
C      1  0.4945750000000  0.4300640000000  0.5899780000000 1.0
C      1  0.4651400000000  0.3949860000000  0.5130100000000 1.0
C      1  0.4024490000000  0.4592640000000  0.5181330000000 1.0
C      1  0.4667890000000  0.5274810000000  0.5120970000000 1.0
C      1  0.4370700000000  0.5150920000000  0.5186830000000 1.0
C      1  0.4878030000000  0.4912510000000  0.6231970000000 1.0
C      1  0.5440940000000  0.3994840000000  0.4645620000000 1.0
C      1  0.4585350000000  0.4210550000000  0.5246360000000 1.0
C      1  0.5474490000000  0.4146760000000  0.4897540000000 1.0
C      1  0.4704190000000  0.5558250000000  0.5491070000000 1.0
C      1  0.4571160000000  0.5079050000000  0.4588990000000 1.0
C      1  0.5446120000000  0.4847140000000  0.3989460000000 1.0
C      1  0.4773200000000  0.4917220000000  0.5716040000000 1.0
C      1  0.4944110000000  0.5185160000000  0.6129000000000 1.0
C      1  0.4423500000000  0.5592920000000  0.4780390000000 1.0
C      1  0.5197250000000  0.4804010000000  0.4422480000000 1.0
C      1  0.5314460000000  0.4472860000000  0.4124540000000 1.0
C      1  0.5534010000000  0.4763380000000  0.4804120000000 1.0
C      1  0.4714130000000  0.5533600000000  0.4947240000000 1.0
C      1  0.5094660000000  0.4421510000000  0.5456770000000 1.0
C      1  0.4744390000000  0.5318740000000  0.5393400000000 1.0
C      1  0.5042610000000  0.4907050000000  0.5845740000000 1.0
C      1  0.5613510000000  0.4319880000000  0.5284520000000 1.0
C      1  0.5067770000000  0.4419810000000  0.5120340000000 1.0
C      1  0.4311970000000  0.4611080000000  0.4181440000000 1.0
C      1  0.4398250000000  0.4052530000000  0.4822560000000 1.0
C      1  0.4907680000000  0.5511510000000  0.4165810000000 1.0
C      1  0.5101810000000  0.4711320000000  0.5075050000000 1.0
C      1  0.5080410000000  0.4750410000000  0.6091380000000 1.0
C      1  0.4847740000000  0.4324850000000  0.4315540000000 1.0
C      1  0.4121500000000  0.5268430000000  0.4552780000000 1.0
C      1  0.4169390000000  0.5635860000000  0.4893550000000 1.0
C      1  0.5809570000000  0.4884850000000  0.4826070000000 1.0
C      1  0.4562350000000  0.5209680000000  0.4089620000000 1.0
C      1  0.5079150000000  0.5212880000000  0.4572560000000 1.0
C      1  0.4058450000000  0.4977570000000  0.4514140000000 1.0
C      1  0.5203370000000  0.5489560000000  0.5419060000000 1.0
C      1  0.4788160000000  0.4555340000000  0.4528310000000 1.0
C      1  0.4325580000000  0.5555050000000  0.5790300000000 1.0
C      1  0.4361630000000  0.5875910000000  0.5361690000000 1.0
C      1  0.4768450000000  0.5156410000000  0.3872560000000 1.0
C      1  0.4140150000000  0.4464040000000  0.4731500000000 1.0
C      1  0.4482950000000  0.5356640000000  0.5944350000000 1.0
C      1  0.4670930000000  0.5783420000000  0.5825270000000 1.0
C      1  0.4565920000000  0.6056540000000  0.4913060000000 1.0
C      1  0.5822870000000  0.4563000000000  0.5681780000000 1.0
C      1  0.4671470000000  0.4713010000000  0.6146630000000 1.0
C      1  0.5490280000000  0.5236960000000  0.6073260000000 1.0
C      1  0.4504920000000  0.4689730000000  0.5298860000000 1.0
C      1  0.3945580000000  0.4909490000000  0.4780370000000 1.0
C      1  0.6051420000000  0.4512510000000  0.5339090000000 1.0
C      1  0.4835510000000  0.6047520000000  0.5319480000000 1.0
C      1  0.4883510000000  0.5590390000000  0.4710990000000 1.0
C      1  0.4642140000000  0.4897040000000  0.3822150000000 1.0
C      1  0.5313100000000  0.4855880000000  0.4951860000000 1.0
C      1  0.5161810000000  0.5521690000000  0.4651940000000 1.0
C      1  0.5900000000000  0.4859010000000  0.5665110000000 1.0
C      1  0.4683090000000  0.5651540000000  0.4270790000000 1.0
C      1  0.5324210000000  0.5131360000000  0.5015420000000 1.0
C      1  0.5043750000000  0.6263780000000  0.4920010000000 1.0
C      1  0.5874200000000  0.5661730000000  0.4845120000000 1.0
C      1  0.4903230000000  0.4865520000000  0.5189120000000 1.0
C      1  0.4013670000000  0.5399530000000  0.4786570000000 1.0
C      1  0.4405360000000  0.5358490000000  0.4542000000000 1.0
C      1  0.5999650000000  0.4655690000000  0.4958570000000 1.0
C      1  0.6088330000000  0.4763860000000  0.5226890000000 1.0
C      1  0.4725170000000  0.4786680000000  0.5407560000000 1.0
C      1  0.5946050000000  0.5275370000000  0.5335560000000 1.0
C      1  0.5300350000000  0.4048050000000  0.5282230000000 1.0
C      1  0.5541670000000  0.5331030000000  0.5024120000000 1.0
C      1  0.4167780000000  0.4964270000000  0.5783270000000 1.0
C      1  0.4989600000000  0.4758100000000  0.4624060000000 1.0
C      1  0.4931170000000  0.3870450000000  0.5208690000000 1.0
C      1  0.4123340000000  0.5746260000000  0.5162650000000 1.0
C      1  0.4898880000000  0.4514850000000  0.6093170000000 1.0
C      1  0.4721510000000  0.4081390000000  0.4405720000000 1.0
C      1  0.5554030000000  0.4176450000000  0.4451710000000 1.0
C      1  0.5044460000000  0.4025650000000  0.5423180000000 1.0
C      1  0.5566240000000  0.5879960000000  0.5230710000000 1.0
C      1  0.5098760000000  0.5260060000000  0.5035430000000 1.0
C      1  0.3901700000000  0.5257800000000  0.5208910000000 1.0
C      1  0.4757870000000  0.5176260000000  0.5590820000000 1.0
C      1  0.4391170000000  0.4593590000000  0.4814740000000 1.0
C      1  0.5297060000000  0.5244420000000  0.5430880000000 1.0
C      1  0.4674020000000  0.4075350000000  0.4871610000000 1.0
C      1  0.5261750000000  0.3989480000000  0.5583790000000 1.0
C      1  0.4751680000000  0.4339700000000  0.5012510000000 1.0
C      1  0.4860580000000  0.4363120000000  0.5625180000000 1.0
C      1  0.5860480000000  0.4355040000000  0.5475910000000 1.0
C      1  0.4902150000000  0.6047200000000  0.4553020000000 1.0
C      1  0.5419260000000  0.5524550000000  0.4824750000000 1.0
C      1  0.5066830000000  0.5226020000000  0.4279520000000 1.0
C      1  0.5389670000000  0.5002220000000  0.5440620000000 1.0
C      1  0.5444410000000  0.4234330000000  0.5839880000000 1.0
C      1  0.5626710000000  0.5669440000000  0.4681930000000 1.0
C      1  0.3903410000000  0.5166190000000  0.4922780000000 1.0
C      1  0.5334320000000  0.6016010000000  0.5092970000000 1.0
C      1  0.4541080000000  0.4849580000000  0.5926190000000 1.0
END
