TITL C-883733-4178-182 176.34795849387 125000 -29370.3677643921 0 0 200 (C1) n - 1
REM
REM in /home/nfs/bkarasulu/CARBON/AIRSS/Generating-Clusters/ReaxFF-fromJPCA2015/Units_Real/with-SteepDescent/Only-C1/SD-CG/Try1-3A/FIRE-CG
REM
REM
REM
REM
REM
REM ./C.cell (11c1c37f851c82e70ff6c80c92926a4b)
REM
REM compiler GCC version 9.2.1 20190827 (Red Hat 9.2.1-1)
REM options -cpp -mtune=generic -march=x86-64 -g -O0 -fpre-include=/usr/include/finclude/math-vector-fortran.h
REM seed 401373666 493365615 670369575 -253210330 -1614198510 1425643840 1157637196 651449287 2005087085 -1175744106 -1435116574 1814744077 -1692784849 1252579333 -737263454 441856768 135307437 172657922 -1508903618 7149716 258350435 -550277158 -1536158297 1637664969 731709546 1160900466 -412425663 -1708441097 -326470931 -1531756959 -2034044710 1260394816 1799651353
REM
CELL 1.54180   50.00000   50.00000   50.00000   90.00000   90.00000   90.00000
LATT -1
SFAC C  
C      1  0.5296850000000  0.4934460000000  0.4572200000000 1.0
C      1  0.5057180000000  0.4967720000000  0.4810730000000 1.0
C      1  0.4150740000000  0.4550230000000  0.4280890000000 1.0
C      1  0.4335480000000  0.5246770000000  0.5078360000000 1.0
C      1  0.5520510000000  0.5291900000000  0.5838420000000 1.0
C      1  0.4564730000000  0.5042880000000  0.3998360000000 1.0
C      1  0.4805970000000  0.4122020000000  0.5681140000000 1.0
C      1  0.5514170000000  0.5199100000000  0.4098390000000 1.0
C      1  0.4199670000000  0.4341500000000  0.4902960000000 1.0
C      1  0.4032650000000  0.5188910000000  0.4667800000000 1.0
C      1  0.6050710000000  0.4835440000000  0.5676980000000 1.0
C      1  0.5999620000000  0.4300980000000  0.5201050000000 1.0
C      1  0.5082020000000  0.3866760000000  0.5059980000000 1.0
C      1  0.4152480000000  0.4735450000000  0.5685640000000 1.0
C      1  0.6231640000000  0.5107360000000  0.5148020000000 1.0
C      1  0.5369130000000  0.5623020000000  0.4005860000000 1.0
C      1  0.4767500000000  0.4327920000000  0.5902530000000 1.0
C      1  0.4575940000000  0.4481880000000  0.5312310000000 1.0
C      1  0.4222480000000  0.5599050000000  0.4391630000000 1.0
C      1  0.4056600000000  0.4759140000000  0.4458420000000 1.0
C      1  0.5649110000000  0.4771090000000  0.5049250000000 1.0
C      1  0.4032870000000  0.5664330000000  0.5091920000000 1.0
C      1  0.5540260000000  0.4564890000000  0.5227860000000 1.0
C      1  0.4123300000000  0.4164580000000  0.4647540000000 1.0
C      1  0.5981480000000  0.4636430000000  0.5458950000000 1.0
C      1  0.4806120000000  0.5479190000000  0.5509370000000 1.0
C      1  0.5232350000000  0.4633040000000  0.4964840000000 1.0
C      1  0.4556800000000  0.5280680000000  0.4952280000000 1.0
C      1  0.3864440000000  0.5024410000000  0.4839500000000 1.0
C      1  0.4193930000000  0.5827640000000  0.5268760000000 1.0
C      1  0.5454260000000  0.4677710000000  0.3942770000000 1.0
C      1  0.6014370000000  0.5114910000000  0.5662870000000 1.0
C      1  0.4559720000000  0.5169050000000  0.5625290000000 1.0
C      1  0.5257130000000  0.5366430000000  0.5953400000000 1.0
C      1  0.4754170000000  0.5433970000000  0.6028420000000 1.0
C      1  0.5454660000000  0.3981860000000  0.4785250000000 1.0
C      1  0.4477310000000  0.5813310000000  0.4407870000000 1.0
C      1  0.5453660000000  0.4427820000000  0.5930170000000 1.0
C      1  0.4426740000000  0.3961290000000  0.5075650000000 1.0
C      1  0.4946110000000  0.4797170000000  0.4256320000000 1.0
C      1  0.4192610000000  0.5595600000000  0.5474950000000 1.0
C      1  0.5877840000000  0.5336090000000  0.4945190000000 1.0
C      1  0.5074040000000  0.5951130000000  0.5445830000000 1.0
C      1  0.5049790000000  0.4983980000000  0.5807440000000 1.0
C      1  0.4563990000000  0.4901670000000  0.4253870000000 1.0
C      1  0.4635720000000  0.5675490000000  0.5383430000000 1.0
C      1  0.5590050000000  0.4889940000000  0.4599840000000 1.0
C      1  0.5429780000000  0.4247040000000  0.4666620000000 1.0
C      1  0.5179270000000  0.5269510000000  0.5335870000000 1.0
C      1  0.5635910000000  0.4679600000000  0.4141720000000 1.0
C      1  0.5137410000000  0.4463520000000  0.4426660000000 1.0
C      1  0.5132840000000  0.5956890000000  0.5149000000000 1.0
C      1  0.6079340000000  0.4864690000000  0.4722330000000 1.0
C      1  0.4785420000000  0.5310140000000  0.4831660000000 1.0
C      1  0.5160770000000  0.4449320000000  0.5571320000000 1.0
C      1  0.5456700000000  0.4714560000000  0.5988680000000 1.0
C      1  0.5072470000000  0.4836480000000  0.5581430000000 1.0
C      1  0.4654190000000  0.4364520000000  0.4039160000000 1.0
C      1  0.5873140000000  0.4857210000000  0.5221600000000 1.0
C      1  0.4649070000000  0.5736210000000  0.4186060000000 1.0
C      1  0.5191940000000  0.4287250000000  0.4196430000000 1.0
C      1  0.5834220000000  0.4218720000000  0.4978180000000 1.0
C      1  0.4761160000000  0.5324990000000  0.5748830000000 1.0
C      1  0.5586420000000  0.5304350000000  0.4921490000000 1.0
C      1  0.4677230000000  0.6104540000000  0.5200030000000 1.0
C      1  0.4061530000000  0.4352140000000  0.4448650000000 1.0
C      1  0.5254350000000  0.5016280000000  0.5436180000000 1.0
C      1  0.6143310000000  0.4559120000000  0.5226650000000 1.0
C      1  0.4675390000000  0.5678370000000  0.5104950000000 1.0
C      1  0.5304810000000  0.6122750000000  0.4773690000000 1.0
C      1  0.5187590000000  0.3868570000000  0.4781180000000 1.0
C      1  0.4565840000000  0.5901190000000  0.5555170000000 1.0
C      1  0.4975480000000  0.5662450000000  0.6073450000000 1.0
C      1  0.5028240000000  0.4033460000000  0.4265110000000 1.0
C      1  0.4032490000000  0.5691460000000  0.4796300000000 1.0
C      1  0.5863480000000  0.5280150000000  0.5472870000000 1.0
C      1  0.5699270000000  0.5289520000000  0.4296810000000 1.0
C      1  0.5027320000000  0.5021370000000  0.4125430000000 1.0
C      1  0.4957830000000  0.4278390000000  0.5144940000000 1.0
C      1  0.4746990000000  0.4799380000000  0.4438840000000 1.0
C      1  0.6132010000000  0.4832570000000  0.5044120000000 1.0
C      1  0.4835330000000  0.4118610000000  0.4603400000000 1.0
C      1  0.5697220000000  0.5564470000000  0.4376750000000 1.0
C      1  0.4325270000000  0.4602880000000  0.5282220000000 1.0
C      1  0.6023510000000  0.5303800000000  0.5191750000000 1.0
C      1  0.5203610000000  0.5236920000000  0.4238110000000 1.0
C      1  0.4800560000000  0.6052370000000  0.5466440000000 1.0
C      1  0.4044670000000  0.5468150000000  0.4590750000000 1.0
C      1  0.5154810000000  0.5657920000000  0.5003930000000 1.0
C      1  0.5324860000000  0.5839620000000  0.4471390000000 1.0
C      1  0.6017970000000  0.5127040000000  0.4609460000000 1.0
C      1  0.4162750000000  0.4505230000000  0.5501600000000 1.0
C      1  0.5655760000000  0.4343700000000  0.4515660000000 1.0
C      1  0.5742310000000  0.5816330000000  0.4842150000000 1.0
C      1  0.5609920000000  0.5884930000000  0.5333470000000 1.0
C      1  0.5289380000000  0.5208060000000  0.4506580000000 1.0
C      1  0.5245750000000  0.5787320000000  0.5620600000000 1.0
C      1  0.4283290000000  0.5525250000000  0.5727590000000 1.0
C      1  0.4608140000000  0.5445050000000  0.4128070000000 1.0
C      1  0.5824050000000  0.5625020000000  0.4634550000000 1.0
C      1  0.3911380000000  0.4744440000000  0.4712780000000 1.0
C      1  0.5041000000000  0.4274080000000  0.5409300000000 1.0
C      1  0.5266300000000  0.4430570000000  0.3958980000000 1.0
C      1  0.4831680000000  0.4018500000000  0.5077540000000 1.0
C      1  0.5742060000000  0.5734110000000  0.5119700000000 1.0
C      1  0.4991220000000  0.5592700000000  0.4499030000000 1.0
C      1  0.4425000000000  0.5773870000000  0.5799260000000 1.0
C      1  0.6001220000000  0.4636180000000  0.4565490000000 1.0
C      1  0.4665740000000  0.5874730000000  0.4623690000000 1.0
C      1  0.4418330000000  0.4376900000000  0.4217370000000 1.0
C      1  0.3967200000000  0.5139070000000  0.5375580000000 1.0
C      1  0.4726620000000  0.4002230000000  0.4817010000000 1.0
C      1  0.4757540000000  0.4110160000000  0.4188720000000 1.0
C      1  0.4451720000000  0.4984220000000  0.5981630000000 1.0
C      1  0.5528900000000  0.4666360000000  0.5484840000000 1.0
C      1  0.4375030000000  0.6040460000000  0.5178260000000 1.0
C      1  0.5546260000000  0.6046780000000  0.4898300000000 1.0
C      1  0.4964160000000  0.4375000000000  0.4652170000000 1.0
C      1  0.4348150000000  0.6028170000000  0.4888400000000 1.0
C      1  0.5291890000000  0.5178480000000  0.3759280000000 1.0
C      1  0.5573650000000  0.5497440000000  0.5148030000000 1.0
C      1  0.5221400000000  0.4907000000000  0.5051110000000 1.0
C      1  0.4909950000000  0.5336700000000  0.5296410000000 1.0
C      1  0.5070740000000  0.4043430000000  0.5547240000000 1.0
C      1  0.4263040000000  0.4156760000000  0.5182820000000 1.0
C      1  0.5853760000000  0.4330870000000  0.5451210000000 1.0
C      1  0.5133120000000  0.5603330000000  0.5816910000000 1.0
C      1  0.4722430000000  0.4559860000000  0.4821380000000 1.0
C      1  0.4575490000000  0.5646860000000  0.5995710000000 1.0
C      1  0.4343380000000  0.3995920000000  0.4570320000000 1.0
C      1  0.5034760000000  0.3932490000000  0.4535470000000 1.0
C      1  0.4550940000000  0.5799960000000  0.4882840000000 1.0
C      1  0.5826270000000  0.4441070000000  0.4746130000000 1.0
C      1  0.5600970000000  0.4194540000000  0.5504690000000 1.0
C      1  0.4933850000000  0.5686480000000  0.4228640000000 1.0
C      1  0.4381770000000  0.5278610000000  0.4012430000000 1.0
C      1  0.4518340000000  0.4135370000000  0.4372830000000 1.0
C      1  0.4411720000000  0.4984340000000  0.5193830000000 1.0
C      1  0.4933610000000  0.4522720000000  0.6059190000000 1.0
C      1  0.5296030000000  0.5493040000000  0.5199440000000 1.0
C      1  0.4471280000000  0.3880120000000  0.4806740000000 1.0
C      1  0.4801470000000  0.5403400000000  0.4567730000000 1.0
C      1  0.4209890000000  0.5394940000000  0.4208600000000 1.0
C      1  0.4419350000000  0.4536810000000  0.4790520000000 1.0
C      1  0.5238740000000  0.4560240000000  0.6087790000000 1.0
C      1  0.5150370000000  0.6069300000000  0.4547970000000 1.0
C      1  0.4617400000000  0.5009090000000  0.5393940000000 1.0
C      1  0.4887480000000  0.6059360000000  0.4707290000000 1.0
C      1  0.5291460000000  0.4564710000000  0.5353740000000 1.0
C      1  0.5988940000000  0.5398550000000  0.4716420000000 1.0
C      1  0.5518110000000  0.4953740000000  0.5536210000000 1.0
C      1  0.4801540000000  0.4808040000000  0.5470320000000 1.0
C      1  0.4838580000000  0.5087890000000  0.3906050000000 1.0
C      1  0.4367000000000  0.4724030000000  0.5893440000000 1.0
C      1  0.4464670000000  0.5080620000000  0.4422840000000 1.0
C      1  0.5454630000000  0.4972450000000  0.3902550000000 1.0
C      1  0.5202460000000  0.5560170000000  0.6224200000000 1.0
C      1  0.5097890000000  0.5503460000000  0.4043100000000 1.0
C      1  0.4889170000000  0.6092580000000  0.4997660000000 1.0
C      1  0.5030330000000  0.5110600000000  0.6001430000000 1.0
C      1  0.5487800000000  0.5732350000000  0.4251800000000 1.0
C      1  0.3895530000000  0.5064430000000  0.5119180000000 1.0
C      1  0.5374500000000  0.4274900000000  0.5690460000000 1.0
C      1  0.5528180000000  0.5712290000000  0.5560160000000 1.0
C      1  0.5431690000000  0.6045420000000  0.5167040000000 1.0
C      1  0.4255740000000  0.4989570000000  0.4592210000000 1.0
C      1  0.5770070000000  0.4575670000000  0.4362540000000 1.0
C      1  0.4349620000000  0.4808150000000  0.4830120000000 1.0
C      1  0.5213690000000  0.3919210000000  0.5317830000000 1.0
C      1  0.5505520000000  0.5054850000000  0.5080870000000 1.0
C      1  0.5766270000000  0.5073740000000  0.4473200000000 1.0
C      1  0.4019410000000  0.4576870000000  0.4921700000000 1.0
C      1  0.4819920000000  0.4837810000000  0.4726150000000 1.0
C      1  0.4676700000000  0.4568870000000  0.5552090000000 1.0
C      1  0.4225930000000  0.4788910000000  0.5098720000000 1.0
C      1  0.4283140000000  0.4231450000000  0.5468740000000 1.0
C      1  0.4201600000000  0.5890720000000  0.4684140000000 1.0
C      1  0.4554680000000  0.4165010000000  0.5548730000000 1.0
C      1  0.5209780000000  0.4375000000000  0.4855690000000 1.0
C      1  0.4766360000000  0.4489960000000  0.5108810000000 1.0
C      1  0.5881520000000  0.4970090000000  0.5851210000000 1.0
C      1  0.5644420000000  0.5453910000000  0.5639210000000 1.0
C      1  0.5465990000000  0.5386390000000  0.3869780000000 1.0
C      1  0.4103930000000  0.5014030000000  0.5609890000000 1.0
C      1  0.5189070000000  0.4739670000000  0.4373720000000 1.0
C      1  0.5694690000000  0.5063440000000  0.5326640000000 1.0
C      1  0.5622040000000  0.4035110000000  0.5029560000000 1.0
C      1  0.4893720000000  0.5492600000000  0.5053910000000 1.0
C      1  0.5592210000000  0.4991480000000  0.5849860000000 1.0
C      1  0.4298130000000  0.5183400000000  0.5769330000000 1.0
C      1  0.5027430000000  0.5290750000000  0.3817280000000 1.0
C      1  0.5385900000000  0.5378300000000  0.4688780000000 1.0
C      1  0.5234470000000  0.5615680000000  0.4675410000000 1.0
C      1  0.5662920000000  0.4687300000000  0.4786180000000 1.0
C      1  0.4558400000000  0.4509720000000  0.5813590000000 1.0
C      1  0.4714910000000  0.5025500000000  0.6101180000000 1.0
C      1  0.4799800000000  0.4766230000000  0.6095150000000 1.0
C      1  0.5489150000000  0.4017210000000  0.5295170000000 1.0
C      1  0.4096300000000  0.5405980000000  0.5250590000000 1.0
C      1  0.4610230000000  0.5318560000000  0.4394450000000 1.0
END
