TITL C-884127-5181-85 1.94609315670872 125000 -12153.8555636252 0 0 82 (C1) n - 1
REM
REM in /home/nfs/bkarasulu/CARBON/AIRSS/Generating-Clusters/ReaxFF-fromJPCA2015/Units_Real/with-SteepDescent/Only-C1/SD-CG/Try1-3A/FIRE-CG
REM
REM
REM
REM
REM
REM ./C.cell (11c1c37f851c82e70ff6c80c92926a4b)
REM
REM compiler GCC version 9.2.1 20190827 (Red Hat 9.2.1-1)
REM options -cpp -mtune=generic -march=x86-64 -g -O0 -fpre-include=/usr/include/finclude/math-vector-fortran.h
REM seed 168968481 -836630732 86968138 -117459462 1529422354 -1966000441 -38305708 -1739929282 -868542824 -835069449 -1427976456 1266166143 2046388839 1012612805 136441723 1830481184 -1815024492 35965019 -1536595011 1030396254 988577675 -892834197 -761276866 72019583 846101402 -150166187 657056284 487855556 -974278147 -675571143 -295263941 -1712755218 -1076487723
REM
CELL 1.54180   50.00000   50.00000   50.00000   90.00000   90.00000   90.00000
LATT -1
SFAC C  
C      1  0.4503890000000  0.4544220000000  0.5484180000000 1.0
C      1  0.5652130000000  0.5392390000000  0.4978990000000 1.0
C      1  0.4634760000000  0.5007930000000  0.4904260000000 1.0
C      1  0.5526630000000  0.4620880000000  0.5423240000000 1.0
C      1  0.4244170000000  0.4578630000000  0.4606330000000 1.0
C      1  0.5036280000000  0.5228720000000  0.5641010000000 1.0
C      1  0.5303860000000  0.5266960000000  0.5741460000000 1.0
C      1  0.4320280000000  0.4758770000000  0.5514720000000 1.0
C      1  0.5169310000000  0.4924930000000  0.4415170000000 1.0
C      1  0.4879640000000  0.5551940000000  0.5014490000000 1.0
C      1  0.4986830000000  0.5531100000000  0.4473960000000 1.0
C      1  0.5225060000000  0.4717460000000  0.4841040000000 1.0
C      1  0.5092180000000  0.4747470000000  0.5619750000000 1.0
C      1  0.4277350000000  0.4784170000000  0.5220800000000 1.0
C      1  0.5633040000000  0.5179790000000  0.4533840000000 1.0
C      1  0.5273110000000  0.5687600000000  0.5200530000000 1.0
C      1  0.5100020000000  0.5718380000000  0.4958550000000 1.0
C      1  0.5681880000000  0.4926660000000  0.4682460000000 1.0
C      1  0.5288190000000  0.4699170000000  0.4311500000000 1.0
C      1  0.5486440000000  0.5046780000000  0.5694000000000 1.0
C      1  0.4505630000000  0.5020030000000  0.4362740000000 1.0
C      1  0.4759250000000  0.4830390000000  0.5247230000000 1.0
C      1  0.5372030000000  0.5081840000000  0.5253350000000 1.0
C      1  0.4876880000000  0.4288690000000  0.4719740000000 1.0
C      1  0.5139940000000  0.5217090000000  0.5364640000000 1.0
C      1  0.4411790000000  0.4408390000000  0.4752890000000 1.0
C      1  0.5414350000000  0.5278870000000  0.4388110000000 1.0
C      1  0.5881010000000  0.4938140000000  0.4882730000000 1.0
C      1  0.5405040000000  0.4790530000000  0.5227450000000 1.0
C      1  0.5383920000000  0.4774780000000  0.5635830000000 1.0
C      1  0.4052350000000  0.4734520000000  0.4748410000000 1.0
C      1  0.4759790000000  0.5091140000000  0.5149360000000 1.0
C      1  0.4085140000000  0.4994170000000  0.5154310000000 1.0
C      1  0.5607270000000  0.5488050000000  0.5475010000000 1.0
C      1  0.4603550000000  0.4261110000000  0.4875550000000 1.0
C      1  0.5255500000000  0.4334450000000  0.5117920000000 1.0
C      1  0.4674160000000  0.5514580000000  0.4816470000000 1.0
C      1  0.4757530000000  0.4935580000000  0.4244170000000 1.0
C      1  0.5085070000000  0.4278180000000  0.4905800000000 1.0
C      1  0.4894980000000  0.5499250000000  0.5541190000000 1.0
C      1  0.4403450000000  0.5043950000000  0.5599630000000 1.0
C      1  0.5159590000000  0.5692310000000  0.4658340000000 1.0
C      1  0.4911340000000  0.4946280000000  0.5733620000000 1.0
C      1  0.5099140000000  0.4930230000000  0.4706860000000 1.0
C      1  0.4616660000000  0.5466190000000  0.5448710000000 1.0
C      1  0.5914050000000  0.4650410000000  0.4995820000000 1.0
C      1  0.5154610000000  0.5172480000000  0.4874620000000 1.0
C      1  0.4959460000000  0.4644770000000  0.5368400000000 1.0
C      1  0.3897360000000  0.4906200000000  0.4915060000000 1.0
C      1  0.5422340000000  0.5606300000000  0.4639780000000 1.0
C      1  0.4706120000000  0.5510820000000  0.4525200000000 1.0
C      1  0.5360260000000  0.5531290000000  0.5626160000000 1.0
C      1  0.5501880000000  0.4663620000000  0.4734900000000 1.0
C      1  0.5528760000000  0.4404440000000  0.5216060000000 1.0
C      1  0.5702800000000  0.5206930000000  0.5563980000000 1.0
C      1  0.5415670000000  0.5187900000000  0.4985250000000 1.0
C      1  0.5192150000000  0.4635380000000  0.5114580000000 1.0
C      1  0.4899080000000  0.4451840000000  0.4472460000000 1.0
C      1  0.5134250000000  0.5312590000000  0.4317040000000 1.0
C      1  0.4540260000000  0.5253470000000  0.4788960000000 1.0
C      1  0.5662580000000  0.4507790000000  0.4973700000000 1.0
C      1  0.4168220000000  0.5343670000000  0.4931230000000 1.0
C      1  0.5007750000000  0.5059120000000  0.4254430000000 1.0
C      1  0.5144360000000  0.5645460000000  0.5467160000000 1.0
C      1  0.5653290000000  0.5459310000000  0.4672320000000 1.0
C      1  0.5821870000000  0.5164450000000  0.5322110000000 1.0
C      1  0.5174280000000  0.4447160000000  0.4376120000000 1.0
C      1  0.4475200000000  0.5289900000000  0.4505500000000 1.0
C      1  0.4738340000000  0.4407500000000  0.5412750000000 1.0
C      1  0.4714130000000  0.4655560000000  0.4361290000000 1.0
C      1  0.4853440000000  0.4881320000000  0.4808240000000 1.0
C      1  0.4446370000000  0.4741300000000  0.4441640000000 1.0
C      1  0.4184540000000  0.5389210000000  0.4655720000000 1.0
C      1  0.4645430000000  0.4964160000000  0.5679700000000 1.0
C      1  0.4625930000000  0.4279520000000  0.5179600000000 1.0
C      1  0.5875770000000  0.5179320000000  0.5059850000000 1.0
C      1  0.4534920000000  0.4770260000000  0.5062750000000 1.0
C      1  0.4980430000000  0.5264390000000  0.5115350000000 1.0
C      1  0.4177710000000  0.5265990000000  0.5202290000000 1.0
C      1  0.4383850000000  0.5289880000000  0.5423440000000 1.0
C      1  0.5431220000000  0.4529120000000  0.4479840000000 1.0
C      1  0.5540970000000  0.5574520000000  0.5206330000000 1.0
END
