TITL C-883727-9645-260 87.8923125634629 125000 -25435.0776393808 0 0 173 (C1) n - 1
REM
REM in /home/nfs/bkarasulu/CARBON/AIRSS/Generating-Clusters/ReaxFF-fromJPCA2015/Units_Real/with-SteepDescent/Only-C1/SD-CG/Try1-3A/FIRE-CG
REM
REM
REM
REM
REM
REM ./C.cell (11c1c37f851c82e70ff6c80c92926a4b)
REM
REM compiler GCC version 9.2.1 20190827 (Red Hat 9.2.1-1)
REM options -cpp -mtune=generic -march=x86-64 -g -O0 -fpre-include=/usr/include/finclude/math-vector-fortran.h
REM seed -1048983135 169201684 -1586067584 532959661 1593496654 754454674 -1543875880 946209349 -2036905631 268616451 934348651 560954933 -666124056 719000391 1449670703 1541958092 1003729386 1277258742 537990640 700644545 -179073900 222472710 1623789779 888991482 431017527 45591697 -208940198 1769775995 1274872066 1805640052 503359554 -776254594 893061709
REM
CELL 1.54180   50.00000   50.00000   50.00000   90.00000   90.00000   90.00000
LATT -1
SFAC C  
C      1  0.4693670000000  0.5740160000000  0.4889930000000 1.0
C      1  0.5338970000000  0.4613210000000  0.5132230000000 1.0
C      1  0.5129980000000  0.4757640000000  0.6100880000000 1.0
C      1  0.3948950000000  0.4884100000000  0.4478780000000 1.0
C      1  0.4941700000000  0.4086960000000  0.4469430000000 1.0
C      1  0.5317680000000  0.5536580000000  0.4258460000000 1.0
C      1  0.5788810000000  0.5799990000000  0.5222910000000 1.0
C      1  0.4539770000000  0.4876140000000  0.5371340000000 1.0
C      1  0.5636960000000  0.5829160000000  0.4523930000000 1.0
C      1  0.4517820000000  0.4772910000000  0.4010410000000 1.0
C      1  0.4007120000000  0.4866520000000  0.5104600000000 1.0
C      1  0.4846780000000  0.5641270000000  0.4470470000000 1.0
C      1  0.5784040000000  0.4414120000000  0.4617410000000 1.0
C      1  0.4689760000000  0.5682860000000  0.4205210000000 1.0
C      1  0.4751750000000  0.5808300000000  0.5703820000000 1.0
C      1  0.5750700000000  0.4391590000000  0.5492450000000 1.0
C      1  0.4913820000000  0.4673450000000  0.4342040000000 1.0
C      1  0.4235030000000  0.4473730000000  0.5764010000000 1.0
C      1  0.4303030000000  0.5579580000000  0.5423120000000 1.0
C      1  0.4780000000000  0.5171720000000  0.4133880000000 1.0
C      1  0.4709510000000  0.5590830000000  0.5914730000000 1.0
C      1  0.5027110000000  0.5838840000000  0.4183200000000 1.0
C      1  0.5372260000000  0.5949020000000  0.4614790000000 1.0
C      1  0.4942280000000  0.5446530000000  0.6012780000000 1.0
C      1  0.4136470000000  0.5276230000000  0.4993080000000 1.0
C      1  0.4582810000000  0.4692560000000  0.5843610000000 1.0
C      1  0.6026930000000  0.4432770000000  0.4788210000000 1.0
C      1  0.5245120000000  0.3946520000000  0.4833470000000 1.0
C      1  0.4482780000000  0.4432520000000  0.5927990000000 1.0
C      1  0.4887690000000  0.5224230000000  0.5629880000000 1.0
C      1  0.4323910000000  0.4583630000000  0.4660920000000 1.0
C      1  0.6074700000000  0.5032000000000  0.5387320000000 1.0
C      1  0.5682450000000  0.5179060000000  0.5728950000000 1.0
C      1  0.4604170000000  0.4156070000000  0.5639050000000 1.0
C      1  0.3909080000000  0.4613610000000  0.4641290000000 1.0
C      1  0.5329930000000  0.4850610000000  0.5313620000000 1.0
C      1  0.5223380000000  0.5302730000000  0.5412770000000 1.0
C      1  0.4967490000000  0.3927110000000  0.4704760000000 1.0
C      1  0.5603270000000  0.4480310000000  0.5713930000000 1.0
C      1  0.5180020000000  0.5575130000000  0.4953310000000 1.0
C      1  0.5132200000000  0.5381750000000  0.3919150000000 1.0
C      1  0.5144830000000  0.5919100000000  0.4432240000000 1.0
C      1  0.4851570000000  0.4508770000000  0.4767350000000 1.0
C      1  0.4436420000000  0.5729950000000  0.4356490000000 1.0
C      1  0.4697440000000  0.4747370000000  0.4828590000000 1.0
C      1  0.5566070000000  0.4155790000000  0.5049760000000 1.0
C      1  0.5101420000000  0.5120040000000  0.5225010000000 1.0
C      1  0.5082150000000  0.4157410000000  0.5566300000000 1.0
C      1  0.5578630000000  0.5914070000000  0.5358990000000 1.0
C      1  0.5554260000000  0.5104500000000  0.4910160000000 1.0
C      1  0.4919400000000  0.4619280000000  0.5224760000000 1.0
C      1  0.5155560000000  0.4782730000000  0.5574070000000 1.0
C      1  0.4931640000000  0.4953620000000  0.6008240000000 1.0
C      1  0.5889490000000  0.5438720000000  0.4760040000000 1.0
C      1  0.3925400000000  0.5094150000000  0.4916900000000 1.0
C      1  0.5784370000000  0.4929660000000  0.4941830000000 1.0
C      1  0.4553100000000  0.4196390000000  0.5240850000000 1.0
C      1  0.4610000000000  0.5300480000000  0.5589020000000 1.0
C      1  0.5409350000000  0.4065020000000  0.4626050000000 1.0
C      1  0.5081800000000  0.4058690000000  0.5302710000000 1.0
C      1  0.4182810000000  0.5404440000000  0.5582550000000 1.0
C      1  0.4136580000000  0.4418810000000  0.5291100000000 1.0
C      1  0.4076320000000  0.5162400000000  0.5538980000000 1.0
C      1  0.4173890000000  0.5629960000000  0.5234980000000 1.0
C      1  0.4346670000000  0.4337150000000  0.5079720000000 1.0
C      1  0.5416800000000  0.5453460000000  0.5306800000000 1.0
C      1  0.5282830000000  0.5404090000000  0.5883700000000 1.0
C      1  0.5002040000000  0.4285050000000  0.5828580000000 1.0
C      1  0.5194760000000  0.5653800000000  0.4021020000000 1.0
C      1  0.5101030000000  0.5411730000000  0.5644840000000 1.0
C      1  0.4654490000000  0.4637350000000  0.5547830000000 1.0
C      1  0.5952250000000  0.5388300000000  0.5084510000000 1.0
C      1  0.5845300000000  0.5529550000000  0.5308090000000 1.0
C      1  0.4683100000000  0.4538520000000  0.4036770000000 1.0
C      1  0.5110200000000  0.4447750000000  0.5171430000000 1.0
C      1  0.4791980000000  0.5055260000000  0.5220620000000 1.0
C      1  0.5363180000000  0.4632110000000  0.5787210000000 1.0
C      1  0.4490340000000  0.5920620000000  0.4575690000000 1.0
C      1  0.4517170000000  0.4080700000000  0.4687830000000 1.0
C      1  0.6068260000000  0.4635320000000  0.5248360000000 1.0
C      1  0.4072040000000  0.5409860000000  0.4567840000000 1.0
C      1  0.5421600000000  0.5078170000000  0.4229490000000 1.0
C      1  0.5251290000000  0.5094840000000  0.4470810000000 1.0
C      1  0.4782240000000  0.5879240000000  0.4640610000000 1.0
C      1  0.4711160000000  0.4227780000000  0.5886650000000 1.0
C      1  0.6013030000000  0.4384610000000  0.5087680000000 1.0
C      1  0.4803610000000  0.5209810000000  0.6105000000000 1.0
C      1  0.4139650000000  0.4937810000000  0.4297070000000 1.0
C      1  0.5057580000000  0.6095930000000  0.5476150000000 1.0
C      1  0.5448560000000  0.5142570000000  0.5901230000000 1.0
C      1  0.4451000000000  0.4953510000000  0.5860750000000 1.0
C      1  0.5808110000000  0.4788900000000  0.5185170000000 1.0
C      1  0.4721020000000  0.3959890000000  0.4854000000000 1.0
C      1  0.4518180000000  0.5195000000000  0.6016190000000 1.0
C      1  0.5048930000000  0.4635470000000  0.4593530000000 1.0
C      1  0.4373080000000  0.5300130000000  0.4156520000000 1.0
C      1  0.3950500000000  0.5141940000000  0.4623130000000 1.0
C      1  0.4658430000000  0.4946000000000  0.4583800000000 1.0
C      1  0.5423780000000  0.4835810000000  0.4055580000000 1.0
C      1  0.5762550000000  0.4285920000000  0.5219480000000 1.0
C      1  0.5909560000000  0.4912980000000  0.4537200000000 1.0
C      1  0.6073010000000  0.5131050000000  0.5125350000000 1.0
C      1  0.4567460000000  0.4362010000000  0.4244260000000 1.0
C      1  0.4105750000000  0.4385940000000  0.4652430000000 1.0
C      1  0.5104510000000  0.5514360000000  0.4447410000000 1.0
C      1  0.5862930000000  0.5737500000000  0.4674790000000 1.0
C      1  0.4842850000000  0.4825330000000  0.5059640000000 1.0
C      1  0.5525680000000  0.5357410000000  0.5057790000000 1.0
C      1  0.4909820000000  0.5271200000000  0.4794120000000 1.0
C      1  0.4094890000000  0.4572570000000  0.5524280000000 1.0
C      1  0.5498930000000  0.5563510000000  0.5729410000000 1.0
C      1  0.5818100000000  0.4932780000000  0.5571540000000 1.0
C      1  0.5815950000000  0.4633810000000  0.5631520000000 1.0
C      1  0.5726800000000  0.4641590000000  0.4453330000000 1.0
C      1  0.5261030000000  0.4467130000000  0.4646760000000 1.0
C      1  0.5089290000000  0.5307340000000  0.5004630000000 1.0
C      1  0.4277770000000  0.4202800000000  0.4808480000000 1.0
C      1  0.5032870000000  0.5263750000000  0.4532570000000 1.0
C      1  0.5184430000000  0.4891400000000  0.4648560000000 1.0
C      1  0.4345380000000  0.4868030000000  0.5113440000000 1.0
C      1  0.5514840000000  0.4606690000000  0.4246320000000 1.0
C      1  0.5228890000000  0.4246830000000  0.4442670000000 1.0
C      1  0.5451580000000  0.5546780000000  0.4866860000000 1.0
C      1  0.5727610000000  0.5433650000000  0.5599410000000 1.0
C      1  0.4466540000000  0.4573700000000  0.4413780000000 1.0
C      1  0.4935000000000  0.6017400000000  0.5680420000000 1.0
C      1  0.5586870000000  0.5974150000000  0.5088270000000 1.0
C      1  0.4940560000000  0.4329220000000  0.4965120000000 1.0
C      1  0.5279130000000  0.4448290000000  0.4215640000000 1.0
C      1  0.5943650000000  0.5201900000000  0.4523140000000 1.0
C      1  0.4613520000000  0.5300650000000  0.5110270000000 1.0
C      1  0.5594440000000  0.5550250000000  0.4385700000000 1.0
C      1  0.4964800000000  0.5911570000000  0.5280060000000 1.0
C      1  0.4081460000000  0.5526580000000  0.4839510000000 1.0
C      1  0.5356690000000  0.5973250000000  0.4909810000000 1.0
C      1  0.4799080000000  0.4102680000000  0.5116740000000 1.0
C      1  0.3931740000000  0.4680770000000  0.4903180000000 1.0
C      1  0.4790390000000  0.5140930000000  0.4430230000000 1.0
C      1  0.4656260000000  0.4771680000000  0.4376050000000 1.0
C      1  0.5622980000000  0.4193720000000  0.4756760000000 1.0
C      1  0.4472220000000  0.5048920000000  0.5590430000000 1.0
C      1  0.5601860000000  0.5423220000000  0.4668170000000 1.0
C      1  0.4625810000000  0.5414650000000  0.4079240000000 1.0
C      1  0.4765880000000  0.5738940000000  0.5423650000000 1.0
C      1  0.5416250000000  0.4594930000000  0.4855840000000 1.0
C      1  0.5429690000000  0.5698090000000  0.5475180000000 1.0
C      1  0.5033060000000  0.4588180000000  0.4086990000000 1.0
C      1  0.4428660000000  0.5870120000000  0.4862000000000 1.0
C      1  0.5373750000000  0.4872350000000  0.5989060000000 1.0
C      1  0.5821150000000  0.5332020000000  0.4300820000000 1.0
C      1  0.5148500000000  0.4840840000000  0.3968330000000 1.0
C      1  0.5157210000000  0.4496660000000  0.5961870000000 1.0
C      1  0.4263320000000  0.5489470000000  0.4358610000000 1.0
C      1  0.4378920000000  0.5144970000000  0.5042640000000 1.0
C      1  0.4587220000000  0.5507130000000  0.5356820000000 1.0
C      1  0.4570400000000  0.4342600000000  0.5466370000000 1.0
C      1  0.6020620000000  0.4927410000000  0.4797670000000 1.0
C      1  0.4182230000000  0.5758710000000  0.4987340000000 1.0
C      1  0.4705540000000  0.5448830000000  0.4885460000000 1.0
C      1  0.4668780000000  0.4153900000000  0.4430170000000 1.0
C      1  0.5703880000000  0.5091460000000  0.4220980000000 1.0
C      1  0.4331700000000  0.4994790000000  0.4115220000000 1.0
C      1  0.4424650000000  0.4647220000000  0.4930460000000 1.0
C      1  0.6098580000000  0.4687110000000  0.4816350000000 1.0
C      1  0.5018120000000  0.5110660000000  0.3958830000000 1.0
C      1  0.4993420000000  0.4981940000000  0.5735490000000 1.0
C      1  0.5616520000000  0.4887340000000  0.5362860000000 1.0
C      1  0.4469610000000  0.5424310000000  0.5845950000000 1.0
C      1  0.4934910000000  0.4628290000000  0.5480460000000 1.0
C      1  0.5379840000000  0.4888640000000  0.4830950000000 1.0
C      1  0.5303560000000  0.4024180000000  0.5110500000000 1.0
C      1  0.3978010000000  0.4886840000000  0.5462840000000 1.0
C      1  0.5123940000000  0.5844720000000  0.5032200000000 1.0
END
