TITL C-883739-1268-293 115.089092971266 125000 -26723.6424763434 0 0 182 (C1) n - 1
REM
REM in /home/nfs/bkarasulu/CARBON/AIRSS/Generating-Clusters/ReaxFF-fromJPCA2015/Units_Real/with-SteepDescent/Only-C1/SD-CG/Try1-3A/FIRE-CG
REM
REM
REM
REM
REM
REM ./C.cell (11c1c37f851c82e70ff6c80c92926a4b)
REM
REM compiler GCC version 9.2.1 20190827 (Red Hat 9.2.1-1)
REM options -cpp -mtune=generic -march=x86-64 -g -O0 -fpre-include=/usr/include/finclude/math-vector-fortran.h
REM seed 1366378142 -1443970010 -212700794 -1771896692 2060581140 865982307 -1579740865 -680773649 -115139388 -1698945497 1224687208 116083675 874715086 -1036041531 -903197830 1683583613 1711275959 -1662575853 738106883 -743984494 -747785826 -579319644 1804459264 -1755977089 1084106466 -414347178 -809975435 1261687680 1210551905 -990105903 1935167263 -1592144639 124884314
REM
CELL 1.54180   50.00000   50.00000   50.00000   90.00000   90.00000   90.00000
LATT -1
SFAC C  
C      1  0.4256440000000  0.5430010000000  0.4614120000000 1.0
C      1  0.4514280000000  0.4387360000000  0.4346430000000 1.0
C      1  0.4691470000000  0.5245000000000  0.4015110000000 1.0
C      1  0.5771690000000  0.5102440000000  0.4219830000000 1.0
C      1  0.4677270000000  0.5451620000000  0.5617230000000 1.0
C      1  0.4563380000000  0.4598350000000  0.5834080000000 1.0
C      1  0.4350050000000  0.4148140000000  0.5367900000000 1.0
C      1  0.4506140000000  0.4999120000000  0.4811670000000 1.0
C      1  0.5571620000000  0.4924700000000  0.4149280000000 1.0
C      1  0.4820480000000  0.4388890000000  0.3980340000000 1.0
C      1  0.4582990000000  0.4636790000000  0.5533490000000 1.0
C      1  0.5273770000000  0.4507690000000  0.5661970000000 1.0
C      1  0.5038980000000  0.4114700000000  0.5365950000000 1.0
C      1  0.5334900000000  0.4197590000000  0.5700700000000 1.0
C      1  0.4679090000000  0.5031190000000  0.5741640000000 1.0
C      1  0.4985000000000  0.4533390000000  0.5669310000000 1.0
C      1  0.4792310000000  0.5301230000000  0.6104970000000 1.0
C      1  0.5420540000000  0.5608220000000  0.5759300000000 1.0
C      1  0.4654660000000  0.4221890000000  0.4156620000000 1.0
C      1  0.5771970000000  0.4368730000000  0.5225460000000 1.0
C      1  0.5551540000000  0.5621690000000  0.4150270000000 1.0
C      1  0.5460320000000  0.4976610000000  0.5558340000000 1.0
C      1  0.4548740000000  0.4006050000000  0.5238570000000 1.0
C      1  0.4721440000000  0.5006590000000  0.6148300000000 1.0
C      1  0.5376720000000  0.5300460000000  0.3896880000000 1.0
C      1  0.5188390000000  0.6085460000000  0.4881100000000 1.0
C      1  0.4962900000000  0.4358980000000  0.5206980000000 1.0
C      1  0.5138800000000  0.5133560000000  0.4408800000000 1.0
C      1  0.4626790000000  0.6059680000000  0.5215510000000 1.0
C      1  0.4597330000000  0.5717470000000  0.4148330000000 1.0
C      1  0.3982560000000  0.5369270000000  0.5180560000000 1.0
C      1  0.5595340000000  0.5325280000000  0.4111310000000 1.0
C      1  0.4204100000000  0.4340150000000  0.5533460000000 1.0
C      1  0.5566690000000  0.4463530000000  0.4139910000000 1.0
C      1  0.4245140000000  0.5602820000000  0.5524160000000 1.0
C      1  0.5071890000000  0.5384510000000  0.6071800000000 1.0
C      1  0.5465050000000  0.5035450000000  0.5073410000000 1.0
C      1  0.5030790000000  0.5857560000000  0.4311360000000 1.0
C      1  0.5593880000000  0.5247330000000  0.5516850000000 1.0
C      1  0.5838180000000  0.5467220000000  0.4543640000000 1.0
C      1  0.5209560000000  0.4926240000000  0.5458730000000 1.0
C      1  0.4792190000000  0.4349510000000  0.4955610000000 1.0
C      1  0.4072220000000  0.5380630000000  0.5465790000000 1.0
C      1  0.5034590000000  0.5669030000000  0.4079430000000 1.0
C      1  0.4770430000000  0.5473070000000  0.4647790000000 1.0
C      1  0.5387680000000  0.5420250000000  0.5364510000000 1.0
C      1  0.5239820000000  0.6048390000000  0.5166630000000 1.0
C      1  0.5052750000000  0.3864010000000  0.5222550000000 1.0
C      1  0.5749260000000  0.4686700000000  0.4215410000000 1.0
C      1  0.4943030000000  0.4810480000000  0.6215940000000 1.0
C      1  0.4751210000000  0.4936740000000  0.5232360000000 1.0
C      1  0.5862760000000  0.5554080000000  0.5210320000000 1.0
C      1  0.4768050000000  0.4551720000000  0.4751460000000 1.0
C      1  0.5188720000000  0.4122810000000  0.4444610000000 1.0
C      1  0.5563030000000  0.4267000000000  0.4338380000000 1.0
C      1  0.4363000000000  0.5947820000000  0.5303920000000 1.0
C      1  0.4523730000000  0.5738360000000  0.4939430000000 1.0
C      1  0.4277840000000  0.5256710000000  0.4370760000000 1.0
C      1  0.4006890000000  0.4573250000000  0.5509220000000 1.0
C      1  0.3958050000000  0.4999970000000  0.4396460000000 1.0
C      1  0.5936530000000  0.4628700000000  0.4928830000000 1.0
C      1  0.5099430000000  0.5394290000000  0.5378940000000 1.0
C      1  0.5607970000000  0.5369440000000  0.5788410000000 1.0
C      1  0.4032500000000  0.5620870000000  0.5018820000000 1.0
C      1  0.5146750000000  0.5112650000000  0.6004710000000 1.0
C      1  0.5652680000000  0.5937640000000  0.5039680000000 1.0
C      1  0.5476860000000  0.5794180000000  0.5542070000000 1.0
C      1  0.5393620000000  0.4582180000000  0.5391720000000 1.0
C      1  0.5795640000000  0.4580250000000  0.4478270000000 1.0
C      1  0.4786460000000  0.4492430000000  0.4452430000000 1.0
C      1  0.5361340000000  0.5014250000000  0.3918710000000 1.0
C      1  0.4788730000000  0.4437770000000  0.5480570000000 1.0
C      1  0.4985060000000  0.5058360000000  0.5115760000000 1.0
C      1  0.5219530000000  0.4920580000000  0.5184900000000 1.0
C      1  0.5584190000000  0.4168340000000  0.5549760000000 1.0
C      1  0.5225550000000  0.4560750000000  0.5152730000000 1.0
C      1  0.4898990000000  0.4721210000000  0.3983430000000 1.0
C      1  0.5449710000000  0.4136680000000  0.4514070000000 1.0
C      1  0.4701850000000  0.4008950000000  0.4650160000000 1.0
C      1  0.4012140000000  0.5572410000000  0.4727950000000 1.0
C      1  0.4585330000000  0.5842720000000  0.4414530000000 1.0
C      1  0.3935640000000  0.4671900000000  0.4796040000000 1.0
C      1  0.4719500000000  0.5862800000000  0.5643780000000 1.0
C      1  0.5300030000000  0.5575200000000  0.3994210000000 1.0
C      1  0.5095490000000  0.4312980000000  0.3930040000000 1.0
C      1  0.4910930000000  0.4785920000000  0.4754830000000 1.0
C      1  0.4814120000000  0.5236720000000  0.4478440000000 1.0
C      1  0.4878640000000  0.5724310000000  0.5852400000000 1.0
C      1  0.5595740000000  0.4162760000000  0.5231470000000 1.0
C      1  0.4605440000000  0.5481820000000  0.5136960000000 1.0
C      1  0.5563140000000  0.4228310000000  0.4757200000000 1.0
C      1  0.5920210000000  0.4598490000000  0.5218050000000 1.0
C      1  0.5103450000000  0.4610510000000  0.6084220000000 1.0
C      1  0.4262170000000  0.5805760000000  0.5069650000000 1.0
C      1  0.5197450000000  0.5254900000000  0.4725070000000 1.0
C      1  0.4862630000000  0.4169290000000  0.5833810000000 1.0
C      1  0.5696030000000  0.4382760000000  0.5702160000000 1.0
C      1  0.5195840000000  0.4782410000000  0.3899030000000 1.0
C      1  0.5076950000000  0.4073560000000  0.5657080000000 1.0
C      1  0.4616190000000  0.5034660000000  0.5463450000000 1.0
C      1  0.5301870000000  0.4531640000000  0.4003050000000 1.0
C      1  0.4569010000000  0.4196210000000  0.4836740000000 1.0
C      1  0.5063340000000  0.5826520000000  0.5244040000000 1.0
C      1  0.4832490000000  0.5951550000000  0.5392640000000 1.0
C      1  0.5109720000000  0.5622340000000  0.5033660000000 1.0
C      1  0.4268560000000  0.4526230000000  0.4412250000000 1.0
C      1  0.4954540000000  0.5093800000000  0.5788550000000 1.0
C      1  0.4958860000000  0.5202420000000  0.4884760000000 1.0
C      1  0.5676910000000  0.4612660000000  0.5859730000000 1.0
C      1  0.4385290000000  0.4711100000000  0.5341490000000 1.0
C      1  0.4397380000000  0.4331060000000  0.5745050000000 1.0
C      1  0.4335470000000  0.4375910000000  0.4880860000000 1.0
C      1  0.5564030000000  0.5546290000000  0.5194990000000 1.0
C      1  0.4769610000000  0.5054720000000  0.4710110000000 1.0
C      1  0.4972540000000  0.5642060000000  0.4778520000000 1.0
C      1  0.5524820000000  0.5745180000000  0.4691360000000 1.0
C      1  0.4197360000000  0.5014580000000  0.4431460000000 1.0
C      1  0.4801390000000  0.5489790000000  0.5361840000000 1.0
C      1  0.5472090000000  0.6005640000000  0.4811510000000 1.0
C      1  0.4517050000000  0.5632980000000  0.4633320000000 1.0
C      1  0.6012240000000  0.5297390000000  0.5224590000000 1.0
C      1  0.3879310000000  0.4832300000000  0.4573670000000 1.0
C      1  0.4412880000000  0.5818640000000  0.5568030000000 1.0
C      1  0.6059430000000  0.4885490000000  0.4866460000000 1.0
C      1  0.5665490000000  0.5100180000000  0.5895460000000 1.0
C      1  0.4298200000000  0.5194440000000  0.4870370000000 1.0
C      1  0.4898620000000  0.3906160000000  0.4839420000000 1.0
C      1  0.4556070000000  0.4894230000000  0.4200030000000 1.0
C      1  0.4773090000000  0.3866630000000  0.5105650000000 1.0
C      1  0.3875450000000  0.4737420000000  0.5308430000000 1.0
C      1  0.4793310000000  0.4046570000000  0.4365590000000 1.0
C      1  0.4690200000000  0.5490260000000  0.5900660000000 1.0
C      1  0.4780850000000  0.5530820000000  0.4003700000000 1.0
C      1  0.4141660000000  0.5102910000000  0.5539920000000 1.0
C      1  0.5890760000000  0.5129800000000  0.5414390000000 1.0
C      1  0.5596430000000  0.4793710000000  0.5377980000000 1.0
C      1  0.5136900000000  0.5740740000000  0.4556190000000 1.0
C      1  0.4397950000000  0.4597600000000  0.5074320000000 1.0
C      1  0.5203450000000  0.4671120000000  0.4382860000000 1.0
C      1  0.5802820000000  0.4861650000000  0.5776920000000 1.0
C      1  0.5343200000000  0.4616590000000  0.4887890000000 1.0
C      1  0.5054620000000  0.5147620000000  0.5530010000000 1.0
C      1  0.4296520000000  0.4787600000000  0.4283300000000 1.0
C      1  0.3978320000000  0.4864490000000  0.5556330000000 1.0
C      1  0.4637210000000  0.4193430000000  0.5661640000000 1.0
C      1  0.5778170000000  0.4458580000000  0.4725610000000 1.0
C      1  0.4831760000000  0.5995750000000  0.4475960000000 1.0
C      1  0.4936190000000  0.4692870000000  0.4279640000000 1.0
C      1  0.5154940000000  0.4662940000000  0.4673260000000 1.0
C      1  0.4428420000000  0.5269580000000  0.5130520000000 1.0
C      1  0.5964970000000  0.5109440000000  0.5011730000000 1.0
C      1  0.5402360000000  0.4972410000000  0.5952820000000 1.0
C      1  0.3938960000000  0.4850790000000  0.5042920000000 1.0
C      1  0.5890980000000  0.4841500000000  0.5476420000000 1.0
C      1  0.5525280000000  0.4847970000000  0.4859510000000 1.0
C      1  0.5794890000000  0.5130950000000  0.4514690000000 1.0
C      1  0.5328380000000  0.5325530000000  0.4327700000000 1.0
C      1  0.5497710000000  0.5948300000000  0.5295480000000 1.0
C      1  0.5431920000000  0.4106110000000  0.4984990000000 1.0
C      1  0.4701860000000  0.4960780000000  0.3961480000000 1.0
C      1  0.5444490000000  0.5253380000000  0.4890300000000 1.0
C      1  0.5370930000000  0.4671840000000  0.5949080000000 1.0
C      1  0.5373700000000  0.4906660000000  0.4390540000000 1.0
C      1  0.4873330000000  0.4463560000000  0.5927200000000 1.0
C      1  0.5565750000000  0.4965360000000  0.4600780000000 1.0
C      1  0.4979380000000  0.4221540000000  0.4418130000000 1.0
C      1  0.5414050000000  0.5545120000000  0.4944510000000 1.0
C      1  0.4549400000000  0.4872830000000  0.5951230000000 1.0
C      1  0.4915560000000  0.6055780000000  0.4763300000000 1.0
C      1  0.5148090000000  0.5604780000000  0.5895350000000 1.0
C      1  0.5883530000000  0.5745250000000  0.4991790000000 1.0
C      1  0.5912120000000  0.5536240000000  0.4798470000000 1.0
C      1  0.4690320000000  0.6000910000000  0.4939380000000 1.0
C      1  0.5175120000000  0.3953250000000  0.4971450000000 1.0
C      1  0.5645470000000  0.5665670000000  0.4434420000000 1.0
C      1  0.4361400000000  0.5044320000000  0.5366170000000 1.0
C      1  0.4570460000000  0.5189380000000  0.4293280000000 1.0
C      1  0.5256320000000  0.5488770000000  0.4541450000000 1.0
C      1  0.4029200000000  0.5126800000000  0.5025190000000 1.0
C      1  0.4591100000000  0.4812990000000  0.5008940000000 1.0
C      1  0.6010740000000  0.5141550000000  0.4731430000000 1.0
C      1  0.4156550000000  0.4496880000000  0.4686530000000 1.0
END
