TITL C-884136-4169-181 1.12740460292522 125000 -9725.239248182 0 0 65 (C1) n - 1
REM
REM in /home/nfs/bkarasulu/CARBON/AIRSS/Generating-Clusters/ReaxFF-fromJPCA2015/Units_Real/with-SteepDescent/Only-C1/SD-CG/Try1-3A/FIRE-CG
REM
REM
REM
REM
REM
REM ./C.cell (11c1c37f851c82e70ff6c80c92926a4b)
REM
REM compiler GCC version 9.2.1 20190827 (Red Hat 9.2.1-1)
REM options -cpp -mtune=generic -march=x86-64 -g -O0 -fpre-include=/usr/include/finclude/math-vector-fortran.h
REM seed 1970434131 -1584864945 -1265488022 -1984187954 800060821 1189136001 -495667185 -1934956698 -66813198 -911142040 -1595896573 926950188 -95616546 -958699543 1363850292 124403155 -1542827839 -609999403 -904781438 -434519143 697835949 1576449381 -128993525 1086950506 -1688187534 -677270043 -1797371400 1950712614 2124747105 388283053 1727092704 1920894656 712168297
REM
CELL 1.54180   50.00000   50.00000   50.00000   90.00000   90.00000   90.00000
LATT -1
SFAC C  
C      1  0.5240740000000  0.4324340000000  0.4674320000000 1.0
C      1  0.5399140000000  0.4495110000000  0.5418610000000 1.0
C      1  0.5715150000000  0.4954990000000  0.4617240000000 1.0
C      1  0.4652820000000  0.5436830000000  0.5552630000000 1.0
C      1  0.5078940000000  0.5614880000000  0.5517280000000 1.0
C      1  0.4775640000000  0.5820680000000  0.4858310000000 1.0
C      1  0.4495630000000  0.5522110000000  0.5113290000000 1.0
C      1  0.4673490000000  0.5601440000000  0.5320160000000 1.0
C      1  0.5357670000000  0.4586430000000  0.4575090000000 1.0
C      1  0.5455520000000  0.4428670000000  0.5137220000000 1.0
C      1  0.4913020000000  0.4424590000000  0.4294020000000 1.0
C      1  0.5755160000000  0.4879250000000  0.5112480000000 1.0
C      1  0.5159660000000  0.5216820000000  0.5624680000000 1.0
C      1  0.4932200000000  0.5708360000000  0.5280600000000 1.0
C      1  0.5037670000000  0.4232200000000  0.4480730000000 1.0
C      1  0.5353830000000  0.5163580000000  0.4913830000000 1.0
C      1  0.4755300000000  0.4393200000000  0.5316560000000 1.0
C      1  0.5150350000000  0.5086400000000  0.5103110000000 1.0
C      1  0.4530720000000  0.5039110000000  0.5553900000000 1.0
C      1  0.4482030000000  0.4637500000000  0.4831520000000 1.0
C      1  0.4828470000000  0.4292620000000  0.4662560000000 1.0
C      1  0.4582110000000  0.4808860000000  0.4360260000000 1.0
C      1  0.4925990000000  0.4477950000000  0.5544890000000 1.0
C      1  0.5507580000000  0.5447630000000  0.5277200000000 1.0
C      1  0.5404800000000  0.5448830000000  0.4999420000000 1.0
C      1  0.4560660000000  0.4616560000000  0.5312720000000 1.0
C      1  0.4952800000000  0.4776760000000  0.5488460000000 1.0
C      1  0.4655240000000  0.5103390000000  0.4345450000000 1.0
C      1  0.4714040000000  0.5677320000000  0.4637120000000 1.0
C      1  0.5564850000000  0.5170770000000  0.4506620000000 1.0
C      1  0.4767230000000  0.4604070000000  0.4298000000000 1.0
C      1  0.5637300000000  0.5035500000000  0.4891150000000 1.0
C      1  0.4361520000000  0.5279270000000  0.5196130000000 1.0
C      1  0.5183670000000  0.4383790000000  0.4966550000000 1.0
C      1  0.4747870000000  0.4507040000000  0.4824420000000 1.0
C      1  0.4391500000000  0.5170920000000  0.4377770000000 1.0
C      1  0.5165670000000  0.5083410000000  0.4617600000000 1.0
C      1  0.4881980000000  0.5112220000000  0.5062660000000 1.0
C      1  0.4994380000000  0.4860940000000  0.5149600000000 1.0
C      1  0.5621290000000  0.5201890000000  0.5350050000000 1.0
C      1  0.5153940000000  0.4326180000000  0.5437310000000 1.0
C      1  0.5016210000000  0.4664640000000  0.4893300000000 1.0
C      1  0.5635400000000  0.4670190000000  0.4535810000000 1.0
C      1  0.4926600000000  0.5402040000000  0.5654230000000 1.0
C      1  0.4865340000000  0.5216580000000  0.4565250000000 1.0
C      1  0.5321930000000  0.5302710000000  0.4472930000000 1.0
C      1  0.4729690000000  0.5159980000000  0.4821900000000 1.0
C      1  0.4910810000000  0.5504160000000  0.4535470000000 1.0
C      1  0.5320020000000  0.5446500000000  0.5516280000000 1.0
C      1  0.4638800000000  0.4792090000000  0.5546040000000 1.0
C      1  0.4354450000000  0.5032830000000  0.5048690000000 1.0
C      1  0.5229390000000  0.5634080000000  0.4867190000000 1.0
C      1  0.4538140000000  0.5662250000000  0.4863510000000 1.0
C      1  0.5161240000000  0.4791490000000  0.4666760000000 1.0
C      1  0.5002200000000  0.4278400000000  0.5189320000000 1.0
C      1  0.5635740000000  0.4627330000000  0.5096350000000 1.0
C      1  0.5188710000000  0.5545240000000  0.4589620000000 1.0
C      1  0.5008540000000  0.5763670000000  0.5010280000000 1.0
C      1  0.5655370000000  0.4932400000000  0.5405310000000 1.0
C      1  0.4468360000000  0.5062980000000  0.4797760000000 1.0
C      1  0.4421090000000  0.4744510000000  0.5093660000000 1.0
C      1  0.5420620000000  0.4777110000000  0.5510720000000 1.0
C      1  0.5187570000000  0.4924250000000  0.5601650000000 1.0
C      1  0.4437040000000  0.4839180000000  0.4623860000000 1.0
C      1  0.4409160000000  0.5272980000000  0.5492600000000 1.0
END
