TITL C-883727-9645-327 136.353855557047 125000 -25500.4623453212 0 0 174 (C1) n - 1
REM
REM in /home/nfs/bkarasulu/CARBON/AIRSS/Generating-Clusters/ReaxFF-fromJPCA2015/Units_Real/with-SteepDescent/Only-C1/SD-CG/Try1-3A/FIRE-CG
REM
REM
REM
REM
REM
REM ./C.cell (11c1c37f851c82e70ff6c80c92926a4b)
REM
REM compiler GCC version 9.2.1 20190827 (Red Hat 9.2.1-1)
REM options -cpp -mtune=generic -march=x86-64 -g -O0 -fpre-include=/usr/include/finclude/math-vector-fortran.h
REM seed 1213680319 -709035735 1432972089 -1655496545 -282845057 -273790392 -1214761551 -488860393 355352163 -1122509510 -909270920 1372888605 -7431175 310420612 786379160 -1680773459 -262943953 -817888322 619978055 -1864263788 -1245904719 -2032634364 -1551782028 138977917 -1096074958 -1870826074 -558792302 -1276349067 -1376041987 -1231163611 -1683156779 -381935733 944676920
REM
CELL 1.54180   50.00000   50.00000   50.00000   90.00000   90.00000   90.00000
LATT -1
SFAC C  
C      1  0.4962530000000  0.4430720000000  0.5303650000000 1.0
C      1  0.5818970000000  0.5733420000000  0.5494190000000 1.0
C      1  0.4781200000000  0.4385390000000  0.4463680000000 1.0
C      1  0.5876980000000  0.5631060000000  0.4926930000000 1.0
C      1  0.4842530000000  0.5142660000000  0.4052360000000 1.0
C      1  0.5378600000000  0.4994650000000  0.5554570000000 1.0
C      1  0.5030660000000  0.5810640000000  0.5554950000000 1.0
C      1  0.4707790000000  0.4434140000000  0.6016350000000 1.0
C      1  0.4790860000000  0.4609930000000  0.5120930000000 1.0
C      1  0.4975690000000  0.5914010000000  0.4490740000000 1.0
C      1  0.5806090000000  0.5249170000000  0.5641620000000 1.0
C      1  0.4859170000000  0.5131700000000  0.4340260000000 1.0
C      1  0.5495460000000  0.4479280000000  0.5566570000000 1.0
C      1  0.5581840000000  0.4367690000000  0.4460030000000 1.0
C      1  0.5166160000000  0.6038610000000  0.5434060000000 1.0
C      1  0.5659760000000  0.5816830000000  0.4936790000000 1.0
C      1  0.5170570000000  0.3989090000000  0.5466080000000 1.0
C      1  0.4439790000000  0.5651260000000  0.4274390000000 1.0
C      1  0.4950230000000  0.5728210000000  0.5832030000000 1.0
C      1  0.5589280000000  0.5289690000000  0.5844100000000 1.0
C      1  0.5512760000000  0.5201700000000  0.4095320000000 1.0
C      1  0.4499680000000  0.5017180000000  0.5318370000000 1.0
C      1  0.4704770000000  0.5633800000000  0.4127610000000 1.0
C      1  0.5531260000000  0.5530880000000  0.5318410000000 1.0
C      1  0.5047240000000  0.5607610000000  0.5347090000000 1.0
C      1  0.4217630000000  0.5192890000000  0.4524400000000 1.0
C      1  0.5529580000000  0.5316370000000  0.4907380000000 1.0
C      1  0.4111240000000  0.5294310000000  0.4843600000000 1.0
C      1  0.4710700000000  0.5899750000000  0.4618060000000 1.0
C      1  0.4670400000000  0.5375850000000  0.3994840000000 1.0
C      1  0.5448020000000  0.5937510000000  0.5440750000000 1.0
C      1  0.4433470000000  0.3996960000000  0.4464230000000 1.0
C      1  0.4203220000000  0.5634040000000  0.5514650000000 1.0
C      1  0.5197340000000  0.5244560000000  0.5603030000000 1.0
C      1  0.5591420000000  0.4988920000000  0.4554130000000 1.0
C      1  0.5424260000000  0.4221940000000  0.4882040000000 1.0
C      1  0.5581980000000  0.4946290000000  0.4001870000000 1.0
C      1  0.4969690000000  0.4761140000000  0.5711260000000 1.0
C      1  0.5865140000000  0.4423550000000  0.5250650000000 1.0
C      1  0.5167960000000  0.4158590000000  0.4239790000000 1.0
C      1  0.4932700000000  0.4852730000000  0.5047280000000 1.0
C      1  0.5717810000000  0.4195650000000  0.5192340000000 1.0
C      1  0.4392250000000  0.5278520000000  0.4051820000000 1.0
C      1  0.4987730000000  0.6088110000000  0.5201680000000 1.0
C      1  0.4504960000000  0.4928420000000  0.5952580000000 1.0
C      1  0.5115680000000  0.5197330000000  0.4961720000000 1.0
C      1  0.5269650000000  0.5437420000000  0.5367550000000 1.0
C      1  0.4438280000000  0.5853180000000  0.4484270000000 1.0
C      1  0.5727190000000  0.4232990000000  0.4904980000000 1.0
C      1  0.4537630000000  0.4595530000000  0.4228330000000 1.0
C      1  0.4477220000000  0.5329800000000  0.5871550000000 1.0
C      1  0.5521850000000  0.5075470000000  0.5302570000000 1.0
C      1  0.4036590000000  0.5174540000000  0.5325720000000 1.0
C      1  0.4639900000000  0.5394400000000  0.4968190000000 1.0
C      1  0.5122430000000  0.5580380000000  0.4173380000000 1.0
C      1  0.4963570000000  0.4136310000000  0.5313520000000 1.0
C      1  0.5530630000000  0.5789070000000  0.5197860000000 1.0
C      1  0.4291590000000  0.5396960000000  0.4292840000000 1.0
C      1  0.5057990000000  0.4980810000000  0.3930940000000 1.0
C      1  0.5878700000000  0.4481060000000  0.4904920000000 1.0
C      1  0.4789620000000  0.4230960000000  0.5830650000000 1.0
C      1  0.5939750000000  0.4928450000000  0.5261390000000 1.0
C      1  0.4076650000000  0.4375490000000  0.5068060000000 1.0
C      1  0.4748750000000  0.4398360000000  0.5553260000000 1.0
C      1  0.4459170000000  0.4316110000000  0.5485980000000 1.0
C      1  0.3951790000000  0.4705780000000  0.4723010000000 1.0
C      1  0.4146180000000  0.4704310000000  0.5462470000000 1.0
C      1  0.4079460000000  0.4727750000000  0.4460290000000 1.0
C      1  0.5720740000000  0.5317320000000  0.5370800000000 1.0
C      1  0.5449570000000  0.4666930000000  0.5149660000000 1.0
C      1  0.5867030000000  0.4974650000000  0.4455830000000 1.0
C      1  0.5909990000000  0.5443410000000  0.4674720000000 1.0
C      1  0.5347180000000  0.5701900000000  0.4265230000000 1.0
C      1  0.4217180000000  0.4997840000000  0.5502420000000 1.0
C      1  0.5133590000000  0.4929300000000  0.4849580000000 1.0
C      1  0.5809730000000  0.4773200000000  0.5666010000000 1.0
C      1  0.5641190000000  0.4885930000000  0.5113530000000 1.0
C      1  0.5233240000000  0.4439640000000  0.4790430000000 1.0
C      1  0.4987080000000  0.5230450000000  0.5999190000000 1.0
C      1  0.4187800000000  0.5424600000000  0.5325920000000 1.0
C      1  0.4622740000000  0.5743830000000  0.5230980000000 1.0
C      1  0.5014740000000  0.5380870000000  0.4426380000000 1.0
C      1  0.5578330000000  0.5740600000000  0.4412770000000 1.0
C      1  0.5329670000000  0.4779880000000  0.4454250000000 1.0
C      1  0.4301360000000  0.5008140000000  0.4124780000000 1.0
C      1  0.5287380000000  0.5350430000000  0.4512280000000 1.0
C      1  0.5333000000000  0.5078190000000  0.3921220000000 1.0
C      1  0.4037000000000  0.4637070000000  0.5197640000000 1.0
C      1  0.4988910000000  0.4487830000000  0.6084460000000 1.0
C      1  0.4571830000000  0.4215300000000  0.4366460000000 1.0
C      1  0.4693720000000  0.5163280000000  0.5994540000000 1.0
C      1  0.5128880000000  0.5470630000000  0.5877300000000 1.0
C      1  0.5162380000000  0.4793200000000  0.5487260000000 1.0
C      1  0.5330350000000  0.5237250000000  0.5141980000000 1.0
C      1  0.4430800000000  0.4165860000000  0.4773280000000 1.0
C      1  0.5287930000000  0.4683710000000  0.4919590000000 1.0
C      1  0.5393710000000  0.4112870000000  0.4398610000000 1.0
C      1  0.4731800000000  0.4649700000000  0.5656210000000 1.0
C      1  0.5312000000000  0.4684390000000  0.4175000000000 1.0
C      1  0.4518970000000  0.5696230000000  0.5547500000000 1.0
C      1  0.5168110000000  0.5930470000000  0.4707600000000 1.0
C      1  0.4262430000000  0.5723310000000  0.4651840000000 1.0
C      1  0.5062970000000  0.4231950000000  0.5925770000000 1.0
C      1  0.4196820000000  0.5609710000000  0.4889820000000 1.0
C      1  0.4727890000000  0.4183560000000  0.4811890000000 1.0
C      1  0.4546800000000  0.4774740000000  0.5116030000000 1.0
C      1  0.4690530000000  0.5187060000000  0.5466260000000 1.0
C      1  0.4465940000000  0.4122530000000  0.5263230000000 1.0
C      1  0.5238260000000  0.3981620000000  0.4596660000000 1.0
C      1  0.3957910000000  0.5118890000000  0.5052040000000 1.0
C      1  0.6077560000000  0.4932110000000  0.5047010000000 1.0
C      1  0.4036710000000  0.4437160000000  0.4784280000000 1.0
C      1  0.4440330000000  0.5265360000000  0.5160980000000 1.0
C      1  0.4762520000000  0.4638260000000  0.4579940000000 1.0
C      1  0.5757940000000  0.4588320000000  0.4395460000000 1.0
C      1  0.5424860000000  0.5528050000000  0.5809110000000 1.0
C      1  0.4981750000000  0.4310920000000  0.4127650000000 1.0
C      1  0.4694070000000  0.6033250000000  0.5219840000000 1.0
C      1  0.5361560000000  0.4522380000000  0.4562780000000 1.0
C      1  0.4634910000000  0.6149050000000  0.4771370000000 1.0
C      1  0.4731760000000  0.3996510000000  0.5201180000000 1.0
C      1  0.5526160000000  0.5272480000000  0.4370430000000 1.0
C      1  0.5606390000000  0.5052780000000  0.4846460000000 1.0
C      1  0.4609810000000  0.5420770000000  0.5623280000000 1.0
C      1  0.5183980000000  0.5020890000000  0.6045510000000 1.0
C      1  0.4264240000000  0.4364470000000  0.4624450000000 1.0
C      1  0.5064750000000  0.5914020000000  0.4978750000000 1.0
C      1  0.5538370000000  0.4829050000000  0.5765560000000 1.0
C      1  0.5020370000000  0.4933580000000  0.5294040000000 1.0
C      1  0.4815490000000  0.4530800000000  0.4093170000000 1.0
C      1  0.4287990000000  0.4517350000000  0.4383610000000 1.0
C      1  0.4942380000000  0.5798480000000  0.4212490000000 1.0
C      1  0.5146270000000  0.3912510000000  0.4863050000000 1.0
C      1  0.5597950000000  0.4705430000000  0.4168460000000 1.0
C      1  0.5944940000000  0.5006260000000  0.5551680000000 1.0
C      1  0.5243100000000  0.4114420000000  0.5721810000000 1.0
C      1  0.5453110000000  0.4021000000000  0.5349480000000 1.0
C      1  0.5491130000000  0.4199490000000  0.5600300000000 1.0
C      1  0.4336870000000  0.5142760000000  0.4943570000000 1.0
C      1  0.4384000000000  0.5785570000000  0.5045540000000 1.0
C      1  0.4590830000000  0.5385550000000  0.4681870000000 1.0
C      1  0.4326340000000  0.5084920000000  0.5793900000000 1.0
C      1  0.4492850000000  0.4872390000000  0.4310130000000 1.0
C      1  0.4869430000000  0.5516110000000  0.4643140000000 1.0
C      1  0.4934130000000  0.5663260000000  0.5102840000000 1.0
C      1  0.4288680000000  0.4179170000000  0.5048960000000 1.0
C      1  0.4437840000000  0.4887690000000  0.4863740000000 1.0
C      1  0.5736790000000  0.5498100000000  0.4454670000000 1.0
C      1  0.5559070000000  0.5750850000000  0.5646000000000 1.0
C      1  0.4092110000000  0.4989910000000  0.4334200000000 1.0
C      1  0.5925090000000  0.5653620000000  0.5221380000000 1.0
C      1  0.5054810000000  0.4705080000000  0.4025460000000 1.0
C      1  0.5387140000000  0.5497770000000  0.4734050000000 1.0
C      1  0.5121830000000  0.4928060000000  0.4566330000000 1.0
C      1  0.4947590000000  0.5434150000000  0.4912660000000 1.0
C      1  0.5062710000000  0.4756110000000  0.5982860000000 1.0
C      1  0.4314600000000  0.4525400000000  0.5609870000000 1.0
C      1  0.5297640000000  0.4548010000000  0.5368760000000 1.0
C      1  0.4668380000000  0.5792760000000  0.5814570000000 1.0
C      1  0.5454970000000  0.5799120000000  0.4699370000000 1.0
C      1  0.5767740000000  0.4541140000000  0.5498260000000 1.0
C      1  0.5350260000000  0.4010880000000  0.5061520000000 1.0
C      1  0.4431270000000  0.4980790000000  0.4579270000000 1.0
C      1  0.5464870000000  0.5043310000000  0.5951140000000 1.0
C      1  0.3951250000000  0.4835080000000  0.4995050000000 1.0
C      1  0.6007970000000  0.5164490000000  0.4615770000000 1.0
C      1  0.4480460000000  0.6074350000000  0.5015240000000 1.0
C      1  0.4848070000000  0.3958920000000  0.4936380000000 1.0
C      1  0.5925780000000  0.4656040000000  0.4689120000000 1.0
C      1  0.4526790000000  0.4634820000000  0.5839950000000 1.0
C      1  0.6098520000000  0.4902540000000  0.4771990000000 1.0
C      1  0.4855750000000  0.4894070000000  0.4501600000000 1.0
C      1  0.4960260000000  0.5148760000000  0.5451750000000 1.0
C      1  0.4891800000000  0.4417140000000  0.4739090000000 1.0
END
