TITL C-884141-4321-20 -354220.106503987 125000 -13124.1605995072 0 0 89 (C1) n - 1
REM
REM in /home/nfs/bkarasulu/CARBON/AIRSS/Generating-Clusters/ReaxFF-fromJPCA2015/Units_Real/with-SteepDescent/Only-C1/SD-CG/Try1-3A/FIRE-CG
REM
REM
REM
REM
REM
REM ./C.cell (11c1c37f851c82e70ff6c80c92926a4b)
REM
REM compiler GCC version 9.2.1 20190827 (Red Hat 9.2.1-1)
REM options -cpp -mtune=generic -march=x86-64 -g -O0 -fpre-include=/usr/include/finclude/math-vector-fortran.h
REM seed -1997649148 -698188268 -2058195253 -799791095 -932587750 1073316856 -1269882645 -1892683464 1572071517 -1275400391 -1800258875 1780777443 2043477564 -557122389 1926852350 -71458769 -539302157 864248674 1073172281 -684950442 867374896 -768905294 -1134377556 1330817955 -710486690 650430346 452890232 -477335080 1351078290 -617883479 -320112622 1075487857 -1853424771
REM
CELL 1.54180   50.00000   50.00000   50.00000   90.00000   90.00000   90.00000
LATT -1
SFAC C  
C      1  0.4389210000000  0.4851510000000  0.5327170000000 1.0
C      1  0.5577600000000  0.5017090000000  0.4576080000000 1.0
C      1  0.5053790000000  0.4702650000000  0.4121790000000 1.0
C      1  0.4926090000000  0.4558230000000  0.5767770000000 1.0
C      1  0.4645000000000  0.5805580000000  0.4876510000000 1.0
C      1  0.5276810000000  0.4846020000000  0.4213780000000 1.0
C      1  0.5459740000000  0.5363940000000  0.5633760000000 1.0
C      1  0.5151290000000  0.5336920000000  0.5153000000000 1.0
C      1  0.4578450000000  0.4407540000000  0.4936600000000 1.0
C      1  0.5419720000000  0.5430650000000  0.5161640000000 1.0
C      1  0.5753400000000  0.4751690000000  0.5024020000000 1.0
C      1  0.4448340000000  0.4353660000000  0.4687150000000 1.0
C      1  0.5496750000000  0.5089130000000  0.5639090000000 1.0
C      1  0.5448770000000  0.4555020000000  0.4632190000000 1.0
C      1  0.4586170000000  0.4408470000000  0.4428340000000 1.0
C      1  0.5776380000000  0.5170210000000  0.5263560000000 1.0
C      1  0.4946750000000  0.5550800000000  0.5725520000000 1.0
C      1  0.5063560000000  0.4154720000000  0.5313880000000 1.0
C      1  0.5180420000000  0.4803800000000  0.6053400000000 1.0
C      1  0.5411470000000  0.4781290000000  0.6032930000000 1.0
C      1  0.4270020000000  0.4773300000000  0.4462310000000 1.0
C      1  0.4897410000000  0.4900620000000  0.5304270000000 1.0
C      1  0.4523530000000  0.4909360000000  0.4871320000000 1.0
C      1  0.4616060000000  0.4872920000000  0.5142580000000 1.0
C      1  0.4400630000000  0.4966780000000  0.4280090000000 1.0
C      1  0.5799850000000  0.4982140000000  0.4798690000000 1.0
C      1  0.4912230000000  0.4772950000000  0.4587590000000 1.0
C      1  0.4716220000000  0.4912060000000  0.5815610000000 1.0
C      1  0.4834180000000  0.5578520000000  0.4426350000000 1.0
C      1  0.5226280000000  0.5536100000000  0.5707950000000 1.0
C      1  0.5210450000000  0.4462150000000  0.5744160000000 1.0
C      1  0.5124400000000  0.5112890000000  0.4187670000000 1.0
C      1  0.4758410000000  0.4734820000000  0.5580920000000 1.0
C      1  0.4261250000000  0.5230360000000  0.5167110000000 1.0
C      1  0.4886180000000  0.4426380000000  0.4938770000000 1.0
C      1  0.4327790000000  0.4498730000000  0.4478640000000 1.0
C      1  0.4920890000000  0.5693860000000  0.5324800000000 1.0
C      1  0.5719110000000  0.4899860000000  0.5326120000000 1.0
C      1  0.4696580000000  0.5406660000000  0.5739070000000 1.0
C      1  0.4852480000000  0.4356100000000  0.5246140000000 1.0
C      1  0.5606930000000  0.5393280000000  0.5374860000000 1.0
C      1  0.4667920000000  0.5144710000000  0.4771320000000 1.0
C      1  0.5236650000000  0.4247100000000  0.5089210000000 1.0
C      1  0.5303550000000  0.5684440000000  0.4596700000000 1.0
C      1  0.5081910000000  0.5439000000000  0.4891660000000 1.0
C      1  0.4775520000000  0.4639550000000  0.4148640000000 1.0
C      1  0.4673420000000  0.5346460000000  0.4335220000000 1.0
C      1  0.5460770000000  0.4777090000000  0.4445040000000 1.0
C      1  0.4934470000000  0.5200970000000  0.5299830000000 1.0
C      1  0.5150160000000  0.4281880000000  0.5545620000000 1.0
C      1  0.5342800000000  0.5096430000000  0.4805840000000 1.0
C      1  0.4525070000000  0.5401660000000  0.4835400000000 1.0
C      1  0.5187510000000  0.4881330000000  0.4944340000000 1.0
C      1  0.5162100000000  0.4775200000000  0.5211480000000 1.0
C      1  0.4651800000000  0.4915720000000  0.4141850000000 1.0
C      1  0.5455990000000  0.4640950000000  0.5796460000000 1.0
C      1  0.5544580000000  0.5354600000000  0.4903630000000 1.0
C      1  0.4455240000000  0.5287240000000  0.5639220000000 1.0
C      1  0.6019920000000  0.4684430000000  0.4917610000000 1.0
C      1  0.4609900000000  0.5559860000000  0.5065900000000 1.0
C      1  0.5518640000000  0.5294100000000  0.4440400000000 1.0
C      1  0.4506860000000  0.4610800000000  0.5443700000000 1.0
C      1  0.4907760000000  0.4762470000000  0.5974070000000 1.0
C      1  0.4316850000000  0.5136190000000  0.5421810000000 1.0
C      1  0.4263580000000  0.4909300000000  0.4717030000000 1.0
C      1  0.4765050000000  0.5439660000000  0.5280260000000 1.0
C      1  0.5526320000000  0.5508150000000  0.4628610000000 1.0
C      1  0.5114130000000  0.5737570000000  0.4839250000000 1.0
C      1  0.5107100000000  0.5227660000000  0.4700640000000 1.0
C      1  0.4815150000000  0.4566040000000  0.4418720000000 1.0
C      1  0.5110410000000  0.4225970000000  0.4827430000000 1.0
C      1  0.4826910000000  0.5142190000000  0.4186910000000 1.0
C      1  0.5100410000000  0.5770170000000  0.5133660000000 1.0
C      1  0.5514290000000  0.4583190000000  0.4919250000000 1.0
C      1  0.5128240000000  0.5581010000000  0.4390000000000 1.0
C      1  0.4407910000000  0.5231490000000  0.4399760000000 1.0
C      1  0.5276200000000  0.5337180000000  0.4286630000000 1.0
C      1  0.4565420000000  0.4404680000000  0.5236940000000 1.0
C      1  0.4890810000000  0.5063400000000  0.4611750000000 1.0
C      1  0.4225180000000  0.5187000000000  0.4636420000000 1.0
C      1  0.4239230000000  0.5329260000000  0.4902540000000 1.0
C      1  0.5267600000000  0.4308830000000  0.4597370000000 1.0
C      1  0.4603100000000  0.5164710000000  0.5842840000000 1.0
C      1  0.4993500000000  0.4702500000000  0.4840090000000 1.0
C      1  0.5573120000000  0.4843250000000  0.5573640000000 1.0
C      1  0.5320210000000  0.4527490000000  0.5128050000000 1.0
C      1  0.5088130000000  0.5723660000000  0.5536380000000 1.0
C      1  0.5801870000000  0.5207770000000  0.4969260000000 1.0
C      1  0.4836120000000  0.5756920000000  0.4658450000000 1.0
END
