TITL C-884140-4336-450 3.23467643686346 125000 -13501.4608633378 0 0 91 (C1) n - 1
REM
REM in /home/nfs/bkarasulu/CARBON/AIRSS/Generating-Clusters/ReaxFF-fromJPCA2015/Units_Real/with-SteepDescent/Only-C1/SD-CG/Try1-3A/FIRE-CG
REM
REM
REM
REM
REM
REM ./C.cell (11c1c37f851c82e70ff6c80c92926a4b)
REM
REM compiler GCC version 9.2.1 20190827 (Red Hat 9.2.1-1)
REM options -cpp -mtune=generic -march=x86-64 -g -O0 -fpre-include=/usr/include/finclude/math-vector-fortran.h
REM seed 500139293 -1480321898 -1638613662 -876233843 257977839 -1976733780 1688794150 -1827852367 356970231 -177202290 276651287 1116288136 2095500434 -1755134108 873504888 -1863009561 -216558811 974860221 -604966804 160523167 1762271570 2063169111 1982963212 1129093281 115343729 1661574268 -1658319163 973847937 236400877 1723040234 684395719 738157337 -68129137
REM
CELL 1.54180   50.00000   50.00000   50.00000   90.00000   90.00000   90.00000
LATT -1
SFAC C  
C      1  0.5544850000000  0.5249170000000  0.4174190000000 1.0
C      1  0.5041720000000  0.5386300000000  0.4210830000000 1.0
C      1  0.4711750000000  0.5085460000000  0.4854490000000 1.0
C      1  0.4208380000000  0.5377370000000  0.4778520000000 1.0
C      1  0.5178860000000  0.5620170000000  0.4797050000000 1.0
C      1  0.5387490000000  0.4538800000000  0.4378160000000 1.0
C      1  0.4981680000000  0.5644470000000  0.5681740000000 1.0
C      1  0.4529620000000  0.4831640000000  0.5836890000000 1.0
C      1  0.4881720000000  0.4420870000000  0.5780090000000 1.0
C      1  0.5304910000000  0.4795830000000  0.4281230000000 1.0
C      1  0.4250390000000  0.4978800000000  0.4466240000000 1.0
C      1  0.4400620000000  0.5275130000000  0.5449310000000 1.0
C      1  0.4764310000000  0.5023630000000  0.5553870000000 1.0
C      1  0.5202590000000  0.5154350000000  0.5626640000000 1.0
C      1  0.4799730000000  0.5215240000000  0.5083530000000 1.0
C      1  0.5727470000000  0.4330080000000  0.5292170000000 1.0
C      1  0.5732700000000  0.5132140000000  0.5475610000000 1.0
C      1  0.4870060000000  0.4645030000000  0.4296580000000 1.0
C      1  0.4700810000000  0.5613710000000  0.5610190000000 1.0
C      1  0.5746170000000  0.4355860000000  0.5023060000000 1.0
C      1  0.4413620000000  0.4554810000000  0.5403230000000 1.0
C      1  0.5167210000000  0.4571710000000  0.4732450000000 1.0
C      1  0.5088330000000  0.5384520000000  0.5709240000000 1.0
C      1  0.5097020000000  0.4846840000000  0.4731700000000 1.0
C      1  0.4616850000000  0.5640760000000  0.5112280000000 1.0
C      1  0.5806050000000  0.5003210000000  0.5231650000000 1.0
C      1  0.4734090000000  0.4637640000000  0.5921180000000 1.0
C      1  0.5402670000000  0.5207200000000  0.4651610000000 1.0
C      1  0.4368830000000  0.4808660000000  0.4678390000000 1.0
C      1  0.4875350000000  0.4324650000000  0.5502990000000 1.0
C      1  0.5152090000000  0.4256590000000  0.5363870000000 1.0
C      1  0.4450910000000  0.5012530000000  0.4867260000000 1.0
C      1  0.4690610000000  0.4335750000000  0.5051920000000 1.0
C      1  0.5345100000000  0.5341680000000  0.4157050000000 1.0
C      1  0.5376440000000  0.5763170000000  0.5323790000000 1.0
C      1  0.5694860000000  0.4858790000000  0.4531170000000 1.0
C      1  0.4401030000000  0.5374050000000  0.4193630000000 1.0
C      1  0.4884730000000  0.4200350000000  0.4881350000000 1.0
C      1  0.5184190000000  0.4372950000000  0.4519250000000 1.0
C      1  0.4641000000000  0.4364770000000  0.5341130000000 1.0
C      1  0.4544260000000  0.5360280000000  0.5681500000000 1.0
C      1  0.5718100000000  0.4904000000000  0.4990840000000 1.0
C      1  0.5389910000000  0.4585440000000  0.5156470000000 1.0
C      1  0.4650570000000  0.5106880000000  0.5794060000000 1.0
C      1  0.5621920000000  0.4403190000000  0.4785330000000 1.0
C      1  0.4540260000000  0.5339160000000  0.5183800000000 1.0
C      1  0.5202130000000  0.5329740000000  0.4814300000000 1.0
C      1  0.4222930000000  0.4679300000000  0.5199670000000 1.0
C      1  0.4458140000000  0.5100380000000  0.4306850000000 1.0
C      1  0.5466240000000  0.5024000000000  0.4407440000000 1.0
C      1  0.5421470000000  0.4686070000000  0.5593730000000 1.0
C      1  0.4968440000000  0.5536730000000  0.4438640000000 1.0
C      1  0.5016560000000  0.4667340000000  0.5860320000000 1.0
C      1  0.5118890000000  0.5819650000000  0.5440480000000 1.0
C      1  0.5165930000000  0.4917360000000  0.5005490000000 1.0
C      1  0.4908440000000  0.5679040000000  0.4668550000000 1.0
C      1  0.5684380000000  0.5552530000000  0.4785520000000 1.0
C      1  0.4161800000000  0.4970620000000  0.5193160000000 1.0
C      1  0.5794050000000  0.5035790000000  0.4730680000000 1.0
C      1  0.5035690000000  0.4837630000000  0.4165240000000 1.0
C      1  0.4376440000000  0.4773380000000  0.5593010000000 1.0
C      1  0.5444580000000  0.4845940000000  0.5102800000000 1.0
C      1  0.4916780000000  0.4833440000000  0.5412740000000 1.0
C      1  0.4918210000000  0.4770410000000  0.5131090000000 1.0
C      1  0.4717880000000  0.4619330000000  0.4973120000000 1.0
C      1  0.4644390000000  0.5669000000000  0.4821140000000 1.0
C      1  0.4924920000000  0.5120800000000  0.4171680000000 1.0
C      1  0.5427460000000  0.4451430000000  0.5393520000000 1.0
C      1  0.4078880000000  0.5202770000000  0.4581180000000 1.0
C      1  0.4403830000000  0.5602430000000  0.4383830000000 1.0
C      1  0.4863880000000  0.4984400000000  0.4638970000000 1.0
C      1  0.4731300000000  0.4481910000000  0.4477020000000 1.0
C      1  0.4295350000000  0.5193130000000  0.5013040000000 1.0
C      1  0.5635470000000  0.5725210000000  0.5009700000000 1.0
C      1  0.5147660000000  0.4175660000000  0.5058830000000 1.0
C      1  0.5630190000000  0.4577110000000  0.4546290000000 1.0
C      1  0.4408580000000  0.5577960000000  0.4681520000000 1.0
C      1  0.4919090000000  0.4272740000000  0.4596130000000 1.0
C      1  0.5603130000000  0.4892670000000  0.5563930000000 1.0
C      1  0.5544910000000  0.5362720000000  0.5386880000000 1.0
C      1  0.5270800000000  0.5269150000000  0.5363750000000 1.0
C      1  0.5450780000000  0.5723610000000  0.4792210000000 1.0
C      1  0.4258930000000  0.5019500000000  0.5460750000000 1.0
C      1  0.4739470000000  0.5045300000000  0.4380180000000 1.0
C      1  0.5612500000000  0.5628990000000  0.5280630000000 1.0
C      1  0.4593380000000  0.4628740000000  0.4701230000000 1.0
C      1  0.5656670000000  0.5283720000000  0.4714850000000 1.0
C      1  0.5094940000000  0.5232140000000  0.5085220000000 1.0
C      1  0.5153120000000  0.4826710000000  0.5645620000000 1.0
C      1  0.5339340000000  0.4431250000000  0.4932220000000 1.0
C      1  0.4750290000000  0.5708660000000  0.5349310000000 1.0
END
