TITL C-883733-4178-185 -7.68587323961876 125000 -18859.8577623117 0 0 126 (C1) n - 1
REM
REM in /home/nfs/bkarasulu/CARBON/AIRSS/Generating-Clusters/ReaxFF-fromJPCA2015/Units_Real/with-SteepDescent/Only-C1/SD-CG/Try1-3A/FIRE-CG
REM
REM
REM
REM
REM
REM ./C.cell (11c1c37f851c82e70ff6c80c92926a4b)
REM
REM compiler GCC version 9.2.1 20190827 (Red Hat 9.2.1-1)
REM options -cpp -mtune=generic -march=x86-64 -g -O0 -fpre-include=/usr/include/finclude/math-vector-fortran.h
REM seed -832928415 -1296407567 97007118 -1384685928 1136127610 744994857 -1826777283 -1030809174 -1393344634 1129216686 235442643 -1769934484 -1734328467 1107213439 -139172371 -2096212643 1084238570 2140896096 407858250 -1536661734 -125446776 357511010 -1505156704 825543514 -1869303841 -1104185528 889175550 -947040493 224698483 -2127740963 -1776259785 983837416 194785001
REM
CELL 1.54180   50.00000   50.00000   50.00000   90.00000   90.00000   90.00000
LATT -1
SFAC C  
C      1  0.4171020000000  0.5425990000000  0.4581090000000 1.0
C      1  0.4492850000000  0.4440020000000  0.4503890000000 1.0
C      1  0.5717660000000  0.4342100000000  0.5323130000000 1.0
C      1  0.4572680000000  0.4181280000000  0.4518570000000 1.0
C      1  0.4732300000000  0.4631450000000  0.4436050000000 1.0
C      1  0.5337030000000  0.4774710000000  0.4101640000000 1.0
C      1  0.5200830000000  0.5012640000000  0.3987670000000 1.0
C      1  0.5442660000000  0.4331860000000  0.4481680000000 1.0
C      1  0.5574260000000  0.4171700000000  0.5157840000000 1.0
C      1  0.4883440000000  0.5338230000000  0.5957400000000 1.0
C      1  0.5042850000000  0.5531720000000  0.4841950000000 1.0
C      1  0.5228450000000  0.4353890000000  0.5422330000000 1.0
C      1  0.4348490000000  0.5323250000000  0.4367450000000 1.0
C      1  0.4877270000000  0.5205610000000  0.4487100000000 1.0
C      1  0.4363620000000  0.5694680000000  0.4917390000000 1.0
C      1  0.4381050000000  0.5397000000000  0.4951140000000 1.0
C      1  0.5475410000000  0.4600020000000  0.5678350000000 1.0
C      1  0.5482370000000  0.5922520000000  0.4905620000000 1.0
C      1  0.5699760000000  0.5060610000000  0.5508020000000 1.0
C      1  0.5288880000000  0.4801980000000  0.4798280000000 1.0
C      1  0.4963280000000  0.5658610000000  0.5691890000000 1.0
C      1  0.4918750000000  0.4790880000000  0.5387620000000 1.0
C      1  0.5934950000000  0.5330440000000  0.4549240000000 1.0
C      1  0.5680270000000  0.5249110000000  0.5230830000000 1.0
C      1  0.4015420000000  0.5320760000000  0.5503330000000 1.0
C      1  0.5218420000000  0.5946400000000  0.5013480000000 1.0
C      1  0.4723170000000  0.5710280000000  0.5256510000000 1.0
C      1  0.4645150000000  0.4922280000000  0.4507940000000 1.0
C      1  0.5636850000000  0.4797040000000  0.5559050000000 1.0
C      1  0.5206500000000  0.4469080000000  0.4449790000000 1.0
C      1  0.4647090000000  0.4637640000000  0.5063390000000 1.0
C      1  0.5492200000000  0.5721650000000  0.5331640000000 1.0
C      1  0.5310260000000  0.5234520000000  0.5806580000000 1.0
C      1  0.4725540000000  0.5854930000000  0.4747310000000 1.0
C      1  0.4575360000000  0.5720420000000  0.4518790000000 1.0
C      1  0.4812690000000  0.5346940000000  0.4217240000000 1.0
C      1  0.4979940000000  0.4506560000000  0.4639150000000 1.0
C      1  0.5033730000000  0.5877490000000  0.4778360000000 1.0
C      1  0.4478080000000  0.4184110000000  0.5280590000000 1.0
C      1  0.5882670000000  0.4511070000000  0.4482450000000 1.0
C      1  0.5400770000000  0.4015020000000  0.5011720000000 1.0
C      1  0.5196270000000  0.5859720000000  0.4524480000000 1.0
C      1  0.5687470000000  0.4304350000000  0.4508610000000 1.0
C      1  0.4002150000000  0.5072340000000  0.5002260000000 1.0
C      1  0.4656030000000  0.5276610000000  0.4959870000000 1.0
C      1  0.4304720000000  0.5682700000000  0.4629570000000 1.0
C      1  0.4168820000000  0.4646160000000  0.5232290000000 1.0
C      1  0.5674090000000  0.5398520000000  0.4422370000000 1.0
C      1  0.4971300000000  0.5773080000000  0.5424980000000 1.0
C      1  0.4868030000000  0.4801650000000  0.5068480000000 1.0
C      1  0.5192060000000  0.4965510000000  0.5885460000000 1.0
C      1  0.5129160000000  0.5461420000000  0.5852560000000 1.0
C      1  0.5222450000000  0.5135830000000  0.5245970000000 1.0
C      1  0.5473860000000  0.4907150000000  0.4960530000000 1.0
C      1  0.4601710000000  0.5841630000000  0.5001720000000 1.0
C      1  0.4505390000000  0.4905080000000  0.5708460000000 1.0
C      1  0.4458850000000  0.5532600000000  0.5685150000000 1.0
C      1  0.5496720000000  0.5520940000000  0.4620500000000 1.0
C      1  0.5128780000000  0.3963330000000  0.5138820000000 1.0
C      1  0.4428490000000  0.4776080000000  0.5199020000000 1.0
C      1  0.5284140000000  0.4722140000000  0.4361590000000 1.0
C      1  0.5285150000000  0.4915450000000  0.4549450000000 1.0
C      1  0.4652630000000  0.4519040000000  0.5814740000000 1.0
C      1  0.5935940000000  0.4669520000000  0.4958020000000 1.0
C      1  0.5093930000000  0.4610520000000  0.4016170000000 1.0
C      1  0.5909310000000  0.4891810000000  0.4751860000000 1.0
C      1  0.4731220000000  0.5032270000000  0.5000120000000 1.0
C      1  0.5462570000000  0.5810970000000  0.4629180000000 1.0
C      1  0.4450720000000  0.4254440000000  0.4980460000000 1.0
C      1  0.5275360000000  0.4611720000000  0.5281360000000 1.0
C      1  0.5811630000000  0.4810340000000  0.4475340000000 1.0
C      1  0.5790190000000  0.4618240000000  0.5223120000000 1.0
C      1  0.5187330000000  0.4875760000000  0.5368980000000 1.0
C      1  0.4078740000000  0.5131650000000  0.5286180000000 1.0
C      1  0.4763670000000  0.3998920000000  0.4572050000000 1.0
C      1  0.5523390000000  0.4696620000000  0.5149990000000 1.0
C      1  0.4788470000000  0.4298480000000  0.5695210000000 1.0
C      1  0.5283310000000  0.5267290000000  0.4096110000000 1.0
C      1  0.5645000000000  0.4950030000000  0.4295260000000 1.0
C      1  0.4320120000000  0.5057420000000  0.5741800000000 1.0
C      1  0.5130800000000  0.4053990000000  0.4871550000000 1.0
C      1  0.4343470000000  0.4345140000000  0.5469790000000 1.0
C      1  0.5052410000000  0.4682530000000  0.4861390000000 1.0
C      1  0.4502530000000  0.5559630000000  0.5404060000000 1.0
C      1  0.4395850000000  0.5033730000000  0.4382070000000 1.0
C      1  0.4831470000000  0.4643770000000  0.4147140000000 1.0
C      1  0.4896800000000  0.5489970000000  0.4591570000000 1.0
C      1  0.4536830000000  0.5269130000000  0.5360680000000 1.0
C      1  0.4580650000000  0.5494030000000  0.4315960000000 1.0
C      1  0.4371270000000  0.4901410000000  0.4637970000000 1.0
C      1  0.4923870000000  0.5059730000000  0.5881010000000 1.0
C      1  0.5661510000000  0.5802020000000  0.5108790000000 1.0
C      1  0.5588190000000  0.5462260000000  0.5426920000000 1.0
C      1  0.5910430000000  0.5334040000000  0.5052480000000 1.0
C      1  0.5423130000000  0.5174810000000  0.5044180000000 1.0
C      1  0.5073380000000  0.5463820000000  0.4155740000000 1.0
C      1  0.5000760000000  0.5299000000000  0.5278420000000 1.0
C      1  0.4716830000000  0.5550570000000  0.5820430000000 1.0
C      1  0.5155850000000  0.5171220000000  0.4581250000000 1.0
C      1  0.4750020000000  0.4181840000000  0.5429320000000 1.0
C      1  0.4142420000000  0.5273920000000  0.4838030000000 1.0
C      1  0.4366790000000  0.5048370000000  0.5281590000000 1.0
C      1  0.4953220000000  0.4532580000000  0.5819130000000 1.0
C      1  0.5050870000000  0.5648370000000  0.4388500000000 1.0
C      1  0.5217490000000  0.5832830000000  0.5282790000000 1.0
C      1  0.5551650000000  0.5273610000000  0.5647430000000 1.0
C      1  0.4942870000000  0.4857480000000  0.3981120000000 1.0
C      1  0.4800780000000  0.5205540000000  0.5442220000000 1.0
C      1  0.5499970000000  0.4341880000000  0.5531790000000 1.0
C      1  0.5931900000000  0.4474430000000  0.4756230000000 1.0
C      1  0.4799040000000  0.4967750000000  0.5600540000000 1.0
C      1  0.4215020000000  0.4689650000000  0.4770430000000 1.0
C      1  0.5897580000000  0.5624840000000  0.5039430000000 1.0
C      1  0.4874910000000  0.5457030000000  0.5073700000000 1.0
C      1  0.5968340000000  0.5173170000000  0.4799380000000 1.0
C      1  0.4716850000000  0.4356060000000  0.4986550000000 1.0
C      1  0.5544310000000  0.5200310000000  0.4229510000000 1.0
C      1  0.4914310000000  0.4234040000000  0.4777310000000 1.0
C      1  0.4394850000000  0.4655170000000  0.5736100000000 1.0
C      1  0.4332460000000  0.4417990000000  0.4752890000000 1.0
C      1  0.4050640000000  0.4783900000000  0.4995760000000 1.0
C      1  0.5028590000000  0.4141560000000  0.5351350000000 1.0
C      1  0.4231810000000  0.5318840000000  0.5721120000000 1.0
C      1  0.5204030000000  0.4683480000000  0.5803190000000 1.0
C      1  0.4194230000000  0.4569610000000  0.5524370000000 1.0
C      1  0.5295870000000  0.5351140000000  0.4777240000000 1.0
END
