TITL C-883735-9890-82 14.1066781444994 125000 -13238.0975328942 0 0 90 (C1) n - 1
REM
REM in /home/nfs/bkarasulu/CARBON/AIRSS/Generating-Clusters/ReaxFF-fromJPCA2015/Units_Real/with-SteepDescent/Only-C1/SD-CG/Try1-3A/FIRE-CG
REM
REM
REM
REM
REM
REM ./C.cell (11c1c37f851c82e70ff6c80c92926a4b)
REM
REM compiler GCC version 9.2.1 20190827 (Red Hat 9.2.1-1)
REM options -cpp -mtune=generic -march=x86-64 -g -O0 -fpre-include=/usr/include/finclude/math-vector-fortran.h
REM seed 161594598 -1370689662 -977212680 -1960895224 1876002424 2040920247 -375633562 320852734 -804876819 1460747110 1400965713 -331306375 1868907428 -1891402620 -1445129605 550112152 667209160 1037561161 -1673705818 608924285 -895139273 1995384206 -1303369868 1300543971 1288561531 -1173944143 -1317514381 -1396317672 1990904168 -324246081 -385374638 -114829721 -901044941
REM
CELL 1.54180   50.00000   50.00000   50.00000   90.00000   90.00000   90.00000
LATT -1
SFAC C  
C      1  0.5862400000000  0.5032590000000  0.4642440000000 1.0
C      1  0.4419600000000  0.5311180000000  0.4441650000000 1.0
C      1  0.5393360000000  0.5109240000000  0.4946750000000 1.0
C      1  0.4558180000000  0.4578150000000  0.5420950000000 1.0
C      1  0.4882070000000  0.4673580000000  0.4195400000000 1.0
C      1  0.4741930000000  0.4200710000000  0.4919380000000 1.0
C      1  0.4779510000000  0.4312860000000  0.4652590000000 1.0
C      1  0.4399020000000  0.4393750000000  0.5244220000000 1.0
C      1  0.4305870000000  0.5378260000000  0.4705680000000 1.0
C      1  0.4841950000000  0.4581320000000  0.5234810000000 1.0
C      1  0.4913920000000  0.4312260000000  0.5127950000000 1.0
C      1  0.4697220000000  0.5370040000000  0.4351110000000 1.0
C      1  0.5673990000000  0.5420730000000  0.5194880000000 1.0
C      1  0.5049380000000  0.4470470000000  0.5662390000000 1.0
C      1  0.4326320000000  0.5392730000000  0.5209300000000 1.0
C      1  0.5749900000000  0.4901070000000  0.5164940000000 1.0
C      1  0.4614040000000  0.5515280000000  0.5635010000000 1.0
C      1  0.4762810000000  0.4573250000000  0.5652690000000 1.0
C      1  0.5837080000000  0.4737540000000  0.4664920000000 1.0
C      1  0.4712310000000  0.5811340000000  0.4583920000000 1.0
C      1  0.4343700000000  0.4928210000000  0.5193070000000 1.0
C      1  0.4366270000000  0.5023280000000  0.4401370000000 1.0
C      1  0.5668500000000  0.5481630000000  0.4671370000000 1.0
C      1  0.5169040000000  0.4998260000000  0.5070180000000 1.0
C      1  0.4934200000000  0.5218850000000  0.4266270000000 1.0
C      1  0.5314810000000  0.4725070000000  0.4422740000000 1.0
C      1  0.4176620000000  0.5155230000000  0.4816780000000 1.0
C      1  0.4814660000000  0.4960420000000  0.4175250000000 1.0
C      1  0.4413530000000  0.5082250000000  0.5615190000000 1.0
C      1  0.4845530000000  0.5774180000000  0.5039850000000 1.0
C      1  0.5156560000000  0.4886950000000  0.4615660000000 1.0
C      1  0.5212620000000  0.5309980000000  0.4338050000000 1.0
C      1  0.5124900000000  0.4703390000000  0.5804090000000 1.0
C      1  0.5303210000000  0.4340700000000  0.4691530000000 1.0
C      1  0.5885870000000  0.4910200000000  0.4905870000000 1.0
C      1  0.5807400000000  0.5480040000000  0.4939880000000 1.0
C      1  0.5119980000000  0.5498700000000  0.5688320000000 1.0
C      1  0.4180240000000  0.5166470000000  0.5105370000000 1.0
C      1  0.4409140000000  0.5350680000000  0.5476270000000 1.0
C      1  0.5101100000000  0.4543630000000  0.4332230000000 1.0
C      1  0.4875660000000  0.5632260000000  0.5555650000000 1.0
C      1  0.5707780000000  0.4507960000000  0.4739090000000 1.0
C      1  0.5286610000000  0.5588750000000  0.5471420000000 1.0
C      1  0.4606620000000  0.4618960000000  0.4287800000000 1.0
C      1  0.4325180000000  0.4908640000000  0.4672030000000 1.0
C      1  0.5049280000000  0.4352310000000  0.4548790000000 1.0
C      1  0.5424760000000  0.5644490000000  0.4651230000000 1.0
C      1  0.4559040000000  0.4482650000000  0.4548380000000 1.0
C      1  0.4629370000000  0.4982630000000  0.5156970000000 1.0
C      1  0.5626450000000  0.4430090000000  0.5000210000000 1.0
C      1  0.4480390000000  0.5498980000000  0.4937080000000 1.0
C      1  0.4638950000000  0.5079020000000  0.5815510000000 1.0
C      1  0.4985510000000  0.5700820000000  0.4581220000000 1.0
C      1  0.5190600000000  0.4247550000000  0.5195100000000 1.0
C      1  0.5461310000000  0.4539950000000  0.5404150000000 1.0
C      1  0.4609750000000  0.5772590000000  0.4868580000000 1.0
C      1  0.4292550000000  0.4442690000000  0.4966450000000 1.0
C      1  0.5394230000000  0.5012140000000  0.4686920000000 1.0
C      1  0.5494940000000  0.4522270000000  0.4564870000000 1.0
C      1  0.5425680000000  0.5597900000000  0.5229670000000 1.0
C      1  0.5270980000000  0.5243080000000  0.5709920000000 1.0
C      1  0.5671000000000  0.5148250000000  0.5311860000000 1.0
C      1  0.4540000000000  0.4892130000000  0.4236950000000 1.0
C      1  0.4769220000000  0.4869510000000  0.5648700000000 1.0
C      1  0.4760660000000  0.5392440000000  0.4912100000000 1.0
C      1  0.5374600000000  0.4290060000000  0.4968080000000 1.0
C      1  0.4372680000000  0.4835930000000  0.5462630000000 1.0
C      1  0.5310800000000  0.4796240000000  0.5376410000000 1.0
C      1  0.5055290000000  0.5105720000000  0.5303610000000 1.0
C      1  0.4981020000000  0.5589340000000  0.4874300000000 1.0
C      1  0.4603730000000  0.4973270000000  0.4731650000000 1.0
C      1  0.4754150000000  0.5337960000000  0.5796340000000 1.0
C      1  0.5446960000000  0.4883110000000  0.5630890000000 1.0
C      1  0.4795770000000  0.4999960000000  0.5384310000000 1.0
C      1  0.5432750000000  0.5124730000000  0.4411960000000 1.0
C      1  0.5377380000000  0.5355610000000  0.4918840000000 1.0
C      1  0.5286810000000  0.5602250000000  0.4929830000000 1.0
C      1  0.4761870000000  0.5099430000000  0.4887890000000 1.0
C      1  0.4470810000000  0.4211390000000  0.5035490000000 1.0
C      1  0.5252130000000  0.4960750000000  0.5835300000000 1.0
C      1  0.5069290000000  0.4694470000000  0.5305810000000 1.0
C      1  0.5222770000000  0.5580830000000  0.4446810000000 1.0
C      1  0.5522780000000  0.5154150000000  0.5569230000000 1.0
C      1  0.4927730000000  0.5608190000000  0.5261650000000 1.0
C      1  0.5667580000000  0.4617670000000  0.5216580000000 1.0
C      1  0.5252670000000  0.4349830000000  0.5460990000000 1.0
C      1  0.5076600000000  0.5367330000000  0.5182200000000 1.0
C      1  0.5688230000000  0.5229630000000  0.4515370000000 1.0
C      1  0.4993640000000  0.4926190000000  0.4848320000000 1.0
C      1  0.4356760000000  0.4583480000000  0.4724540000000 1.0
END
