TITL C-883735-9890-302 60.2818165733141 125000 -24038.6983460151 0 0 161 (C1) n - 1
REM
REM in /home/nfs/bkarasulu/CARBON/AIRSS/Generating-Clusters/ReaxFF-fromJPCA2015/Units_Real/with-SteepDescent/Only-C1/SD-CG/Try1-3A/FIRE-CG
REM
REM
REM
REM
REM
REM ./C.cell (11c1c37f851c82e70ff6c80c92926a4b)
REM
REM compiler GCC version 9.2.1 20190827 (Red Hat 9.2.1-1)
REM options -cpp -mtune=generic -march=x86-64 -g -O0 -fpre-include=/usr/include/finclude/math-vector-fortran.h
REM seed -712453987 868202794 -616967047 -163421906 1571314096 1998892965 -280048377 380047149 772385718 -653853571 -90092496 1068457429 1887601634 -1167875545 1982211031 -2030608866 1980256827 -358196135 -2111656112 -1001634710 -1112603296 -552599703 1622618281 1351132043 1624181353 -978394536 5443952 -1818545881 -523206936 846860475 255065762 -447395278 876893104
REM
CELL 1.54180   50.00000   50.00000   50.00000   90.00000   90.00000   90.00000
LATT -1
SFAC C  
C      1  0.4256410000000  0.4635810000000  0.4724850000000 1.0
C      1  0.4765100000000  0.5421810000000  0.4073820000000 1.0
C      1  0.5312710000000  0.4109040000000  0.4939810000000 1.0
C      1  0.5036810000000  0.5927740000000  0.4474720000000 1.0
C      1  0.6155490000000  0.4770170000000  0.4672040000000 1.0
C      1  0.5888910000000  0.4876620000000  0.4964120000000 1.0
C      1  0.4063010000000  0.5131100000000  0.4764290000000 1.0
C      1  0.5245870000000  0.5277390000000  0.4866320000000 1.0
C      1  0.4011880000000  0.4800590000000  0.5419330000000 1.0
C      1  0.5398850000000  0.5486340000000  0.4138780000000 1.0
C      1  0.5255460000000  0.4349860000000  0.4272270000000 1.0
C      1  0.4249600000000  0.4913640000000  0.4345480000000 1.0
C      1  0.5235730000000  0.5247890000000  0.5345120000000 1.0
C      1  0.4589700000000  0.4256280000000  0.4882490000000 1.0
C      1  0.4593620000000  0.4951140000000  0.4872080000000 1.0
C      1  0.5656270000000  0.4709060000000  0.4906520000000 1.0
C      1  0.5392420000000  0.5524780000000  0.5949790000000 1.0
C      1  0.4117300000000  0.5407370000000  0.4630300000000 1.0
C      1  0.5349700000000  0.4017580000000  0.5329080000000 1.0
C      1  0.4707350000000  0.4683610000000  0.5343870000000 1.0
C      1  0.5694700000000  0.4719360000000  0.5562600000000 1.0
C      1  0.4865290000000  0.3852410000000  0.4914840000000 1.0
C      1  0.5007030000000  0.5755800000000  0.5904730000000 1.0
C      1  0.5731920000000  0.4998350000000  0.5680770000000 1.0
C      1  0.5261110000000  0.5280480000000  0.3976490000000 1.0
C      1  0.4332500000000  0.4412300000000  0.4519320000000 1.0
C      1  0.5774960000000  0.4191770000000  0.4758120000000 1.0
C      1  0.4485330000000  0.4882920000000  0.5828570000000 1.0
C      1  0.4682100000000  0.5911460000000  0.5553300000000 1.0
C      1  0.5687490000000  0.5443400000000  0.5386050000000 1.0
C      1  0.4561320000000  0.4409800000000  0.5781170000000 1.0
C      1  0.5426060000000  0.4895540000000  0.4906780000000 1.0
C      1  0.6171180000000  0.4744510000000  0.4961790000000 1.0
C      1  0.4801600000000  0.4162150000000  0.4480610000000 1.0
C      1  0.4801860000000  0.4282210000000  0.5813630000000 1.0
C      1  0.3968690000000  0.4816740000000  0.5130530000000 1.0
C      1  0.4713470000000  0.5395800000000  0.4978420000000 1.0
C      1  0.4225840000000  0.5583400000000  0.5614340000000 1.0
C      1  0.5987310000000  0.5291490000000  0.5078600000000 1.0
C      1  0.5377300000000  0.4610050000000  0.4203990000000 1.0
C      1  0.6071250000000  0.4480260000000  0.4948170000000 1.0
C      1  0.5415600000000  0.4791250000000  0.3976610000000 1.0
C      1  0.4955550000000  0.5903450000000  0.5662160000000 1.0
C      1  0.4967580000000  0.4314330000000  0.4284650000000 1.0
C      1  0.5191010000000  0.5550290000000  0.4875180000000 1.0
C      1  0.5477030000000  0.5094030000000  0.4383390000000 1.0
C      1  0.4678240000000  0.5932850000000  0.4825910000000 1.0
C      1  0.4718240000000  0.5981690000000  0.5276810000000 1.0
C      1  0.4524740000000  0.5295770000000  0.5354650000000 1.0
C      1  0.4600920000000  0.4680890000000  0.4763240000000 1.0
C      1  0.5098980000000  0.3974570000000  0.5278810000000 1.0
C      1  0.5905930000000  0.4271220000000  0.5014840000000 1.0
C      1  0.4952620000000  0.4721710000000  0.3922070000000 1.0
C      1  0.4562760000000  0.4607780000000  0.4080780000000 1.0
C      1  0.4837160000000  0.3934850000000  0.5195950000000 1.0
C      1  0.5060970000000  0.4585690000000  0.4659760000000 1.0
C      1  0.4992300000000  0.4314840000000  0.5570540000000 1.0
C      1  0.5190750000000  0.5760890000000  0.5515490000000 1.0
C      1  0.4413530000000  0.4216150000000  0.5103600000000 1.0
C      1  0.4733400000000  0.5167450000000  0.5515960000000 1.0
C      1  0.4853100000000  0.4929520000000  0.5401970000000 1.0
C      1  0.4802210000000  0.4397640000000  0.5337480000000 1.0
C      1  0.4233600000000  0.5808520000000  0.5011730000000 1.0
C      1  0.4075000000000  0.5057050000000  0.5533270000000 1.0
C      1  0.4898350000000  0.4996060000000  0.4535480000000 1.0
C      1  0.5027770000000  0.4594960000000  0.5632580000000 1.0
C      1  0.5161450000000  0.4623910000000  0.6032860000000 1.0
C      1  0.4548270000000  0.4230810000000  0.4607100000000 1.0
C      1  0.4294700000000  0.5460240000000  0.4404130000000 1.0
C      1  0.4320160000000  0.5374450000000  0.5802210000000 1.0
C      1  0.5394440000000  0.5771620000000  0.4804120000000 1.0
C      1  0.5499980000000  0.4115230000000  0.4726880000000 1.0
C      1  0.5751730000000  0.4376050000000  0.4530640000000 1.0
C      1  0.3964040000000  0.5094870000000  0.5051430000000 1.0
C      1  0.5441250000000  0.4327200000000  0.4515030000000 1.0
C      1  0.4443390000000  0.4792540000000  0.5324460000000 1.0
C      1  0.4541940000000  0.5828010000000  0.5079850000000 1.0
C      1  0.4535170000000  0.5293990000000  0.4244250000000 1.0
C      1  0.4913710000000  0.5643890000000  0.4191700000000 1.0
C      1  0.4460480000000  0.5755390000000  0.5684430000000 1.0
C      1  0.4805630000000  0.5882570000000  0.4335380000000 1.0
C      1  0.5036650000000  0.4906030000000  0.6007050000000 1.0
C      1  0.5269990000000  0.4368040000000  0.5041000000000 1.0
C      1  0.5154300000000  0.4840110000000  0.5001850000000 1.0
C      1  0.4833690000000  0.5518610000000  0.5882870000000 1.0
C      1  0.5212700000000  0.4696600000000  0.3774870000000 1.0
C      1  0.4435950000000  0.5374560000000  0.4885960000000 1.0
C      1  0.4392430000000  0.5065060000000  0.5241520000000 1.0
C      1  0.4133510000000  0.4880790000000  0.4589630000000 1.0
C      1  0.5502630000000  0.4504570000000  0.5150480000000 1.0
C      1  0.5793640000000  0.5448660000000  0.4505020000000 1.0
C      1  0.4847900000000  0.4570510000000  0.4188790000000 1.0
C      1  0.5939320000000  0.4880420000000  0.4519260000000 1.0
C      1  0.5905220000000  0.4579900000000  0.5417610000000 1.0
C      1  0.5339080000000  0.4618480000000  0.4620540000000 1.0
C      1  0.5635930000000  0.5597020000000  0.4294760000000 1.0
C      1  0.4114950000000  0.4591880000000  0.4992050000000 1.0
C      1  0.5855170000000  0.5199440000000  0.5519650000000 1.0
C      1  0.4380990000000  0.4538000000000  0.4280020000000 1.0
C      1  0.4402440000000  0.5679180000000  0.4497300000000 1.0
C      1  0.5880610000000  0.5144040000000  0.4858500000000 1.0
C      1  0.4905200000000  0.5553440000000  0.4834030000000 1.0
C      1  0.6035090000000  0.5106120000000  0.5317580000000 1.0
C      1  0.5184720000000  0.5977440000000  0.4699810000000 1.0
C      1  0.5695640000000  0.5712760000000  0.5214880000000 1.0
C      1  0.5481560000000  0.5172060000000  0.4978300000000 1.0
C      1  0.4583420000000  0.5883040000000  0.4552000000000 1.0
C      1  0.5260610000000  0.5081910000000  0.5927920000000 1.0
C      1  0.4389110000000  0.5045200000000  0.4141150000000 1.0
C      1  0.4989570000000  0.6022190000000  0.5165570000000 1.0
C      1  0.5246930000000  0.5916990000000  0.5262050000000 1.0
C      1  0.4218350000000  0.5556940000000  0.4861940000000 1.0
C      1  0.5120450000000  0.4965440000000  0.5306580000000 1.0
C      1  0.4544090000000  0.5560700000000  0.5887560000000 1.0
C      1  0.4840630000000  0.4712000000000  0.4511580000000 1.0
C      1  0.5788940000000  0.5155630000000  0.4571540000000 1.0
C      1  0.5314360000000  0.5351920000000  0.4385430000000 1.0
C      1  0.5618740000000  0.5666160000000  0.4575820000000 1.0
C      1  0.4754420000000  0.4922190000000  0.5925030000000 1.0
C      1  0.5882240000000  0.5523400000000  0.5188680000000 1.0
C      1  0.5338850000000  0.4287360000000  0.5644830000000 1.0
C      1  0.4919810000000  0.4541000000000  0.5895390000000 1.0
C      1  0.4388230000000  0.4611360000000  0.5734500000000 1.0
C      1  0.5733940000000  0.4353520000000  0.5271140000000 1.0
C      1  0.4624860000000  0.5527400000000  0.5206400000000 1.0
C      1  0.5769270000000  0.4654310000000  0.4607710000000 1.0
C      1  0.5044470000000  0.4532840000000  0.4947780000000 1.0
C      1  0.5297620000000  0.5745830000000  0.5842980000000 1.0
C      1  0.5394230000000  0.4806510000000  0.4413940000000 1.0
C      1  0.4020030000000  0.5769530000000  0.5208370000000 1.0
C      1  0.5464230000000  0.4658440000000  0.5400920000000 1.0
C      1  0.5119760000000  0.3931360000000  0.4829860000000 1.0
C      1  0.4859920000000  0.5447800000000  0.4580950000000 1.0
C      1  0.4911940000000  0.3949600000000  0.4643810000000 1.0
C      1  0.5534530000000  0.4190350000000  0.5453520000000 1.0
C      1  0.4223790000000  0.4417160000000  0.5184040000000 1.0
C      1  0.4957950000000  0.5244400000000  0.3957810000000 1.0
C      1  0.5493470000000  0.5275030000000  0.5244700000000 1.0
C      1  0.4286380000000  0.5094260000000  0.5740250000000 1.0
C      1  0.4908990000000  0.5363640000000  0.5646450000000 1.0
C      1  0.4232120000000  0.4599590000000  0.5451250000000 1.0
C      1  0.5359870000000  0.4456740000000  0.5884420000000 1.0
C      1  0.5074400000000  0.5500360000000  0.4399640000000 1.0
C      1  0.5431530000000  0.5069990000000  0.4080330000000 1.0
C      1  0.5036940000000  0.5060040000000  0.4825670000000 1.0
C      1  0.4051720000000  0.5521650000000  0.5383590000000 1.0
C      1  0.4563010000000  0.4886780000000  0.3966610000000 1.0
C      1  0.5472450000000  0.5840010000000  0.5095500000000 1.0
C      1  0.5118820000000  0.5461200000000  0.5474590000000 1.0
C      1  0.4648840000000  0.4160240000000  0.5272190000000 1.0
C      1  0.5544470000000  0.5034230000000  0.5904810000000 1.0
C      1  0.4353620000000  0.5107920000000  0.4942530000000 1.0
C      1  0.5217040000000  0.4762360000000  0.5500930000000 1.0
C      1  0.4946400000000  0.6036630000000  0.4874350000000 1.0
C      1  0.5457100000000  0.5281940000000  0.6050480000000 1.0
C      1  0.4826380000000  0.4986230000000  0.3894250000000 1.0
C      1  0.4736220000000  0.4490460000000  0.4940540000000 1.0
C      1  0.4794810000000  0.5119320000000  0.4948940000000 1.0
C      1  0.6038540000000  0.4817570000000  0.5347320000000 1.0
C      1  0.4002960000000  0.5239540000000  0.5307850000000 1.0
C      1  0.4725080000000  0.5205780000000  0.4477410000000 1.0
END
