TITL C-884131-4643-44 -150166.103279993 125000 -12203.2185321876 0 0 84 (C1) n - 1
REM
REM in /home/nfs/bkarasulu/CARBON/AIRSS/Generating-Clusters/ReaxFF-fromJPCA2015/Units_Real/with-SteepDescent/Only-C1/SD-CG/Try1-3A/FIRE-CG
REM
REM
REM
REM
REM
REM ./C.cell (11c1c37f851c82e70ff6c80c92926a4b)
REM
REM compiler GCC version 9.2.1 20190827 (Red Hat 9.2.1-1)
REM options -cpp -mtune=generic -march=x86-64 -g -O0 -fpre-include=/usr/include/finclude/math-vector-fortran.h
REM seed 1647745627 513806341 -1195620969 471040655 499482410 -707329717 1680216576 1187709712 636278981 1901308795 1601739479 -173638479 175248598 698114358 1259437589 -1366551362 -1236889464 342491437 -201537067 -1422731952 -916201098 -103383972 -1096748671 -687603146 151153118 -28833988 608720040 -50007558 675109853 537523288 224240501 1975567106 1069150134
REM
CELL 1.54180   50.00000   50.00000   50.00000   90.00000   90.00000   90.00000
LATT -1
SFAC C  
C      1  0.5364380000000  0.4661990000000  0.4423510000000 1.0
C      1  0.4751050000000  0.5227340000000  0.4827950000000 1.0
C      1  0.5092500000000  0.4483340000000  0.4424560000000 1.0
C      1  0.4328660000000  0.5533310000000  0.5232540000000 1.0
C      1  0.5261360000000  0.5448560000000  0.4650670000000 1.0
C      1  0.5701940000000  0.5379610000000  0.4423980000000 1.0
C      1  0.4769400000000  0.5477070000000  0.4965840000000 1.0
C      1  0.4571380000000  0.5465110000000  0.5383040000000 1.0
C      1  0.5318160000000  0.5610200000000  0.4860940000000 1.0
C      1  0.5251560000000  0.4927960000000  0.4801580000000 1.0
C      1  0.4290330000000  0.4999340000000  0.4771130000000 1.0
C      1  0.4509330000000  0.4801970000000  0.4793330000000 1.0
C      1  0.5105700000000  0.4778410000000  0.4991830000000 1.0
C      1  0.4487490000000  0.4448630000000  0.4909530000000 1.0
C      1  0.5031350000000  0.4566400000000  0.5733060000000 1.0
C      1  0.5387330000000  0.4277530000000  0.5209690000000 1.0
C      1  0.5105010000000  0.4155590000000  0.4868940000000 1.0
C      1  0.5386930000000  0.4184760000000  0.4943060000000 1.0
C      1  0.4721270000000  0.4927090000000  0.5252070000000 1.0
C      1  0.4160900000000  0.5067040000000  0.5023260000000 1.0
C      1  0.5091440000000  0.5269760000000  0.5489040000000 1.0
C      1  0.5538640000000  0.5291130000000  0.5507700000000 1.0
C      1  0.5623070000000  0.4991180000000  0.5098510000000 1.0
C      1  0.4624900000000  0.5243030000000  0.4561780000000 1.0
C      1  0.4940420000000  0.4781450000000  0.5839220000000 1.0
C      1  0.4323320000000  0.5229860000000  0.4574630000000 1.0
C      1  0.5036510000000  0.4373000000000  0.4688160000000 1.0
C      1  0.4944350000000  0.4292700000000  0.5101220000000 1.0
C      1  0.5422900000000  0.5405850000000  0.4403850000000 1.0
C      1  0.5194730000000  0.5212610000000  0.5882770000000 1.0
C      1  0.4215380000000  0.4659510000000  0.5375780000000 1.0
C      1  0.5352450000000  0.4858500000000  0.5602370000000 1.0
C      1  0.5923850000000  0.5311320000000  0.4595020000000 1.0
C      1  0.5735290000000  0.4972000000000  0.4450020000000 1.0
C      1  0.5583200000000  0.4319910000000  0.4782780000000 1.0
C      1  0.4249460000000  0.5582850000000  0.4949280000000 1.0
C      1  0.5633140000000  0.4699420000000  0.5112680000000 1.0
C      1  0.5412630000000  0.4570380000000  0.5561210000000 1.0
C      1  0.5390540000000  0.5163290000000  0.4240080000000 1.0
C      1  0.4697400000000  0.4969200000000  0.4962440000000 1.0
C      1  0.4635910000000  0.5156000000000  0.4273200000000 1.0
C      1  0.4996060000000  0.4883440000000  0.5225650000000 1.0
C      1  0.5517310000000  0.5243550000000  0.5214830000000 1.0
C      1  0.4892760000000  0.5061450000000  0.4123440000000 1.0
C      1  0.5002940000000  0.5831630000000  0.5165220000000 1.0
C      1  0.5682990000000  0.4566660000000  0.4863110000000 1.0
C      1  0.5565240000000  0.4534410000000  0.4607840000000 1.0
C      1  0.4827060000000  0.4575850000000  0.4340010000000 1.0
C      1  0.4358250000000  0.5546960000000  0.4675620000000 1.0
C      1  0.4811120000000  0.5491300000000  0.5230130000000 1.0
C      1  0.5179510000000  0.4387590000000  0.5584200000000 1.0
C      1  0.5166490000000  0.4869680000000  0.4528620000000 1.0
C      1  0.4453760000000  0.4416070000000  0.5364660000000 1.0
C      1  0.5150520000000  0.4987850000000  0.5448860000000 1.0
C      1  0.5135370000000  0.5704300000000  0.4647300000000 1.0
C      1  0.4140440000000  0.5359990000000  0.5100010000000 1.0
C      1  0.5244260000000  0.5700540000000  0.5630300000000 1.0
C      1  0.5109110000000  0.5442070000000  0.5725950000000 1.0
C      1  0.4587830000000  0.5696990000000  0.4575530000000 1.0
C      1  0.4589380000000  0.4602700000000  0.4542240000000 1.0
C      1  0.4518690000000  0.4221450000000  0.5514750000000 1.0
C      1  0.5527380000000  0.4510690000000  0.5301030000000 1.0
C      1  0.4348200000000  0.5145990000000  0.4254410000000 1.0
C      1  0.4596100000000  0.5011370000000  0.5497420000000 1.0
C      1  0.5145900000000  0.5814810000000  0.5388400000000 1.0
C      1  0.5526750000000  0.4903020000000  0.4280780000000 1.0
C      1  0.4614860000000  0.4320980000000  0.5132170000000 1.0
C      1  0.5509140000000  0.5047620000000  0.4856820000000 1.0
C      1  0.5427100000000  0.5109020000000  0.5732410000000 1.0
C      1  0.4939120000000  0.5049620000000  0.5899750000000 1.0
C      1  0.5299180000000  0.5391160000000  0.5053490000000 1.0
C      1  0.5118450000000  0.5072130000000  0.4315100000000 1.0
C      1  0.5070510000000  0.5385320000000  0.5231360000000 1.0
C      1  0.5441730000000  0.5554810000000  0.5492180000000 1.0
C      1  0.4978340000000  0.4539990000000  0.4923310000000 1.0
C      1  0.5769660000000  0.5045640000000  0.4719070000000 1.0
C      1  0.4179380000000  0.4860990000000  0.5214350000000 1.0
C      1  0.4507920000000  0.4370650000000  0.4649180000000 1.0
C      1  0.4846960000000  0.5755230000000  0.4932530000000 1.0
C      1  0.5134700000000  0.4262150000000  0.5325100000000 1.0
C      1  0.4678310000000  0.5088700000000  0.5760680000000 1.0
C      1  0.4858600000000  0.5801350000000  0.4640890000000 1.0
C      1  0.4540920000000  0.5265000000000  0.5583090000000 1.0
C      1  0.4846190000000  0.4795120000000  0.4165980000000 1.0
END
