TITL C-884136-4169-27 750902.030283036 125000 -20765.0675978411 0 0 140 (C1) n - 1
REM
REM in /home/nfs/bkarasulu/CARBON/AIRSS/Generating-Clusters/ReaxFF-fromJPCA2015/Units_Real/with-SteepDescent/Only-C1/SD-CG/Try1-3A/FIRE-CG
REM
REM
REM
REM
REM
REM ./C.cell (11c1c37f851c82e70ff6c80c92926a4b)
REM
REM compiler GCC version 9.2.1 20190827 (Red Hat 9.2.1-1)
REM options -cpp -mtune=generic -march=x86-64 -g -O0 -fpre-include=/usr/include/finclude/math-vector-fortran.h
REM seed -1799989530 1206248562 -1245259605 12224606 -294594260 1067609857 1591292151 -288907051 1089189879 -279576046 958074964 796513930 368678238 460128649 -1210124767 -1977549599 220023943 -1726490989 -2113000847 225635073 435800165 208446381 529685164 47538068 -636161207 -1409045085 -1632457575 937003710 -1169987869 -876646897 1455705423 1297435292 -1991100055
REM
CELL 1.54180   50.00000   50.00000   50.00000   90.00000   90.00000   90.00000
LATT -1
SFAC C  
C      1  0.4430410000000  0.5623990000000  0.4414100000000 1.0
C      1  0.5893250000000  0.5081080000000  0.5426910000000 1.0
C      1  0.5272550000000  0.5903040000000  0.5298670000000 1.0
C      1  0.5324880000000  0.5072840000000  0.5429930000000 1.0
C      1  0.4604290000000  0.5070080000000  0.4056610000000 1.0
C      1  0.4841270000000  0.5062390000000  0.4475460000000 1.0
C      1  0.4678700000000  0.5603670000000  0.4302100000000 1.0
C      1  0.5964630000000  0.4673920000000  0.4943180000000 1.0
C      1  0.5064330000000  0.5029830000000  0.5909330000000 1.0
C      1  0.5300430000000  0.5554920000000  0.5790050000000 1.0
C      1  0.5527810000000  0.4770470000000  0.4336280000000 1.0
C      1  0.5568710000000  0.4600960000000  0.4592510000000 1.0
C      1  0.5074010000000  0.5741790000000  0.5753290000000 1.0
C      1  0.5127410000000  0.4253320000000  0.5622760000000 1.0
C      1  0.5839680000000  0.4790060000000  0.5415500000000 1.0
C      1  0.5556690000000  0.4138010000000  0.5054520000000 1.0
C      1  0.4110900000000  0.4689110000000  0.4808040000000 1.0
C      1  0.5978740000000  0.4940360000000  0.4994450000000 1.0
C      1  0.4242020000000  0.4228520000000  0.5443330000000 1.0
C      1  0.5962910000000  0.5212990000000  0.4690060000000 1.0
C      1  0.3936390000000  0.4969400000000  0.5201670000000 1.0
C      1  0.5096930000000  0.5953910000000  0.5542970000000 1.0
C      1  0.5546450000000  0.5625170000000  0.5618870000000 1.0
C      1  0.5174800000000  0.5471640000000  0.5243430000000 1.0
C      1  0.4345620000000  0.4971790000000  0.4045970000000 1.0
C      1  0.5511700000000  0.4857920000000  0.5841670000000 1.0
C      1  0.5232670000000  0.5177420000000  0.4734400000000 1.0
C      1  0.5359670000000  0.5258980000000  0.5221350000000 1.0
C      1  0.5486560000000  0.6002510000000  0.4931630000000 1.0
C      1  0.4392450000000  0.4372770000000  0.4515070000000 1.0
C      1  0.5905580000000  0.4592800000000  0.4634000000000 1.0
C      1  0.4756110000000  0.4769010000000  0.4473770000000 1.0
C      1  0.4988080000000  0.5425980000000  0.5463760000000 1.0
C      1  0.5409140000000  0.4340330000000  0.4554620000000 1.0
C      1  0.5232800000000  0.5103550000000  0.3876500000000 1.0
C      1  0.4946580000000  0.4463080000000  0.4105060000000 1.0
C      1  0.4455970000000  0.4220630000000  0.5235890000000 1.0
C      1  0.5547590000000  0.4918270000000  0.5010830000000 1.0
C      1  0.5034360000000  0.5148410000000  0.5486160000000 1.0
C      1  0.4665780000000  0.5275740000000  0.5182470000000 1.0
C      1  0.4561070000000  0.5189580000000  0.5817060000000 1.0
C      1  0.4730640000000  0.6076540000000  0.5159230000000 1.0
C      1  0.4401480000000  0.4520900000000  0.4273160000000 1.0
C      1  0.4796370000000  0.5650970000000  0.4851040000000 1.0
C      1  0.4276540000000  0.4911330000000  0.4711170000000 1.0
C      1  0.5215410000000  0.5703350000000  0.5082140000000 1.0
C      1  0.4808370000000  0.4783450000000  0.5358280000000 1.0
C      1  0.5297020000000  0.4688510000000  0.4200610000000 1.0
C      1  0.4398870000000  0.4775360000000  0.5184020000000 1.0
C      1  0.5569100000000  0.4257870000000  0.5473560000000 1.0
C      1  0.5275240000000  0.5310100000000  0.4092550000000 1.0
C      1  0.4903150000000  0.6056380000000  0.4887150000000 1.0
C      1  0.4683030000000  0.4292770000000  0.4564140000000 1.0
C      1  0.4819400000000  0.5178800000000  0.4205340000000 1.0
C      1  0.5923630000000  0.4306590000000  0.4533470000000 1.0
C      1  0.5785750000000  0.5468010000000  0.5567280000000 1.0
C      1  0.5784740000000  0.5192660000000  0.5677210000000 1.0
C      1  0.5066700000000  0.4945000000000  0.4802310000000 1.0
C      1  0.5654250000000  0.5820100000000  0.5142020000000 1.0
C      1  0.4769300000000  0.4977370000000  0.5891900000000 1.0
C      1  0.4843440000000  0.5591830000000  0.5659320000000 1.0
C      1  0.5413380000000  0.4857590000000  0.5248450000000 1.0
C      1  0.4043860000000  0.5563900000000  0.4835760000000 1.0
C      1  0.4251710000000  0.4429270000000  0.4775690000000 1.0
C      1  0.4316180000000  0.4995170000000  0.5007690000000 1.0
C      1  0.5464290000000  0.4729270000000  0.4824700000000 1.0
C      1  0.5052650000000  0.4654500000000  0.5417350000000 1.0
C      1  0.4312170000000  0.5729980000000  0.5309680000000 1.0
C      1  0.4329240000000  0.5159210000000  0.5688290000000 1.0
C      1  0.5960650000000  0.5103030000000  0.4435080000000 1.0
C      1  0.5600510000000  0.5451300000000  0.4892290000000 1.0
C      1  0.5856090000000  0.4582410000000  0.5196460000000 1.0
C      1  0.4430060000000  0.4256460000000  0.4933400000000 1.0
C      1  0.5653660000000  0.4201120000000  0.4459390000000 1.0
C      1  0.4792700000000  0.4928610000000  0.4885750000000 1.0
C      1  0.5207180000000  0.4635000000000  0.5184160000000 1.0
C      1  0.4248920000000  0.5163850000000  0.4235350000000 1.0
C      1  0.5188140000000  0.6077760000000  0.4902930000000 1.0
C      1  0.4272030000000  0.4720770000000  0.5448100000000 1.0
C      1  0.4728280000000  0.4416380000000  0.5850030000000 1.0
C      1  0.4878080000000  0.6019550000000  0.5387040000000 1.0
C      1  0.5888970000000  0.5362730000000  0.5305040000000 1.0
C      1  0.5781060000000  0.5555710000000  0.5085660000000 1.0
C      1  0.4888170000000  0.4495780000000  0.4509170000000 1.0
C      1  0.4901770000000  0.4011700000000  0.4946220000000 1.0
C      1  0.5194190000000  0.4562340000000  0.5661830000000 1.0
C      1  0.5469310000000  0.5197420000000  0.4951870000000 1.0
C      1  0.5230480000000  0.4792510000000  0.5867130000000 1.0
C      1  0.4215470000000  0.5373530000000  0.4406360000000 1.0
C      1  0.3912060000000  0.4887030000000  0.4929280000000 1.0
C      1  0.4753440000000  0.5846980000000  0.4727290000000 1.0
C      1  0.5131460000000  0.4447420000000  0.4331160000000 1.0
C      1  0.5974760000000  0.4810770000000  0.4427840000000 1.0
C      1  0.5375640000000  0.5615880000000  0.4802110000000 1.0
C      1  0.5193920000000  0.3975630000000  0.4937720000000 1.0
C      1  0.4724470000000  0.4240720000000  0.5353940000000 1.0
C      1  0.5331190000000  0.4235530000000  0.4861390000000 1.0
C      1  0.4287810000000  0.4477730000000  0.5609070000000 1.0
C      1  0.4170680000000  0.4933200000000  0.5646290000000 1.0
C      1  0.5499660000000  0.5888320000000  0.4667260000000 1.0
C      1  0.4505110000000  0.5917400000000  0.5230910000000 1.0
C      1  0.4567750000000  0.5494360000000  0.5744570000000 1.0
C      1  0.3890200000000  0.5173420000000  0.4829230000000 1.0
C      1  0.4385680000000  0.5256960000000  0.5111990000000 1.0
C      1  0.3910860000000  0.5392830000000  0.5024860000000 1.0
C      1  0.4800910000000  0.5071980000000  0.5356410000000 1.0
C      1  0.5350780000000  0.3981780000000  0.5188560000000 1.0
C      1  0.5711160000000  0.4320540000000  0.5224340000000 1.0
C      1  0.4460770000000  0.4512520000000  0.5853010000000 1.0
C      1  0.5201680000000  0.5297540000000  0.5889930000000 1.0
C      1  0.4960230000000  0.4776880000000  0.3811380000000 1.0
C      1  0.4197150000000  0.5499370000000  0.5098400000000 1.0
C      1  0.5541230000000  0.5830490000000  0.5407750000000 1.0
C      1  0.4434290000000  0.5610170000000  0.5529540000000 1.0
C      1  0.5509830000000  0.4481630000000  0.5644290000000 1.0
C      1  0.5230200000000  0.5424230000000  0.4602730000000 1.0
C      1  0.5695190000000  0.4697820000000  0.5654520000000 1.0
C      1  0.5505490000000  0.5113470000000  0.5705660000000 1.0
C      1  0.5763470000000  0.4923520000000  0.4274320000000 1.0
C      1  0.5316540000000  0.4103110000000  0.5461540000000 1.0
C      1  0.4928400000000  0.4223300000000  0.5145800000000 1.0
C      1  0.4729800000000  0.5161350000000  0.4729110000000 1.0
C      1  0.4466380000000  0.4675720000000  0.4054740000000 1.0
C      1  0.5178230000000  0.5475550000000  0.4310030000000 1.0
C      1  0.4677500000000  0.4705090000000  0.5921510000000 1.0
C      1  0.4515780000000  0.4829760000000  0.4588910000000 1.0
C      1  0.4525670000000  0.5810710000000  0.4600250000000 1.0
C      1  0.4669020000000  0.4133340000000  0.4805520000000 1.0
C      1  0.4677710000000  0.4766890000000  0.5100050000000 1.0
C      1  0.4775570000000  0.5379010000000  0.4923760000000 1.0
C      1  0.5166510000000  0.4363360000000  0.5076510000000 1.0
C      1  0.4839110000000  0.4254980000000  0.5625760000000 1.0
C      1  0.5189780000000  0.4712250000000  0.4888450000000 1.0
C      1  0.4017900000000  0.5362170000000  0.4623880000000 1.0
C      1  0.4898140000000  0.5477780000000  0.4191110000000 1.0
C      1  0.4016170000000  0.5049050000000  0.5447030000000 1.0
C      1  0.5221060000000  0.4811470000000  0.3949130000000 1.0
C      1  0.5963050000000  0.5210950000000  0.4950990000000 1.0
C      1  0.4975230000000  0.5066190000000  0.3713590000000 1.0
C      1  0.4753800000000  0.4606810000000  0.3955610000000 1.0
END
