TITL C-883727-9645-297 4.52617404790495 125000 -24314.5268357062 0 0 161 (C1) n - 1
REM
REM in /home/nfs/bkarasulu/CARBON/AIRSS/Generating-Clusters/ReaxFF-fromJPCA2015/Units_Real/with-SteepDescent/Only-C1/SD-CG/Try1-3A/FIRE-CG
REM
REM
REM
REM
REM
REM ./C.cell (11c1c37f851c82e70ff6c80c92926a4b)
REM
REM compiler GCC version 9.2.1 20190827 (Red Hat 9.2.1-1)
REM options -cpp -mtune=generic -march=x86-64 -g -O0 -fpre-include=/usr/include/finclude/math-vector-fortran.h
REM seed -872286107 -1034782772 -880296176 543262871 -471851279 906454129 -1782278193 1741783339 -349312863 739465421 -803498330 1179274637 -2119852348 528912398 -1354800309 -610664766 -2002408322 823348761 -1651604571 303763572 1600470695 432252186 690759441 -1128372841 1658838900 -502564778 -1085178352 1893619556 -1040449218 623585736 1588330352 481569805 680444984
REM
CELL 1.54180   50.00000   50.00000   50.00000   90.00000   90.00000   90.00000
LATT -1
SFAC C  
C      1  0.4797480000000  0.4832470000000  0.5176300000000 1.0
C      1  0.4041950000000  0.5200620000000  0.4731690000000 1.0
C      1  0.4658370000000  0.5945620000000  0.4876210000000 1.0
C      1  0.5068590000000  0.5310150000000  0.5300720000000 1.0
C      1  0.5590400000000  0.4112870000000  0.4691050000000 1.0
C      1  0.5328890000000  0.4644950000000  0.4682150000000 1.0
C      1  0.4548660000000  0.5826640000000  0.5429790000000 1.0
C      1  0.4939750000000  0.5620600000000  0.4674780000000 1.0
C      1  0.4850930000000  0.4219610000000  0.5710710000000 1.0
C      1  0.5227030000000  0.4907350000000  0.3920480000000 1.0
C      1  0.4367830000000  0.5050990000000  0.4249210000000 1.0
C      1  0.4375020000000  0.5554550000000  0.4470750000000 1.0
C      1  0.5447930000000  0.6032070000000  0.4903670000000 1.0
C      1  0.4604050000000  0.4232560000000  0.5594170000000 1.0
C      1  0.5380760000000  0.5191460000000  0.6069980000000 1.0
C      1  0.4079960000000  0.5030350000000  0.5712110000000 1.0
C      1  0.3921340000000  0.4914240000000  0.5016020000000 1.0
C      1  0.5176180000000  0.6042290000000  0.4804860000000 1.0
C      1  0.5450940000000  0.4933020000000  0.4679580000000 1.0
C      1  0.5503480000000  0.5113350000000  0.4918320000000 1.0
C      1  0.4725110000000  0.5256330000000  0.5954180000000 1.0
C      1  0.5474420000000  0.5405440000000  0.5594420000000 1.0
C      1  0.5524160000000  0.3986300000000  0.5477060000000 1.0
C      1  0.4774580000000  0.4876080000000  0.4090010000000 1.0
C      1  0.5670130000000  0.4987920000000  0.4193280000000 1.0
C      1  0.5488780000000  0.5639700000000  0.5437490000000 1.0
C      1  0.5747590000000  0.4647050000000  0.5474530000000 1.0
C      1  0.5799140000000  0.5150960000000  0.4917720000000 1.0
C      1  0.5665310000000  0.5939670000000  0.4709800000000 1.0
C      1  0.3905060000000  0.5138330000000  0.5209860000000 1.0
C      1  0.5446850000000  0.4009950000000  0.5198630000000 1.0
C      1  0.5849480000000  0.5473370000000  0.4554880000000 1.0
C      1  0.5128810000000  0.6009000000000  0.5451630000000 1.0
C      1  0.5220370000000  0.4774930000000  0.5385180000000 1.0
C      1  0.5231190000000  0.4534790000000  0.4418470000000 1.0
C      1  0.4586170000000  0.5122740000000  0.4747590000000 1.0
C      1  0.4838080000000  0.4165170000000  0.4876480000000 1.0
C      1  0.5561140000000  0.4490450000000  0.5307960000000 1.0
C      1  0.4964440000000  0.5415830000000  0.5056190000000 1.0
C      1  0.5890160000000  0.4707350000000  0.4569600000000 1.0
C      1  0.5344280000000  0.5406110000000  0.5864040000000 1.0
C      1  0.5676170000000  0.4346860000000  0.5087490000000 1.0
C      1  0.4216610000000  0.5583090000000  0.4734820000000 1.0
C      1  0.4349740000000  0.5304620000000  0.4356640000000 1.0
C      1  0.4899370000000  0.5158000000000  0.5470800000000 1.0
C      1  0.4689900000000  0.5505540000000  0.4778430000000 1.0
C      1  0.4496310000000  0.4960390000000  0.5151900000000 1.0
C      1  0.4666070000000  0.5323070000000  0.5388370000000 1.0
C      1  0.4151940000000  0.5340900000000  0.5188240000000 1.0
C      1  0.5439670000000  0.4195160000000  0.4946060000000 1.0
C      1  0.4896500000000  0.4191870000000  0.4582370000000 1.0
C      1  0.4111730000000  0.5376850000000  0.4878420000000 1.0
C      1  0.5473980000000  0.4821160000000  0.4066040000000 1.0
C      1  0.4918530000000  0.5967930000000  0.5650820000000 1.0
C      1  0.4970430000000  0.5266670000000  0.6088170000000 1.0
C      1  0.5847060000000  0.4249500000000  0.4681270000000 1.0
C      1  0.4556210000000  0.4503470000000  0.5703090000000 1.0
C      1  0.4862340000000  0.4132350000000  0.5195660000000 1.0
C      1  0.3945440000000  0.4948100000000  0.4722310000000 1.0
C      1  0.5210660000000  0.5013350000000  0.4544120000000 1.0
C      1  0.4959060000000  0.4883170000000  0.5427060000000 1.0
C      1  0.5529300000000  0.5955150000000  0.5175150000000 1.0
C      1  0.5840010000000  0.4444650000000  0.4459530000000 1.0
C      1  0.5385940000000  0.5909100000000  0.5422590000000 1.0
C      1  0.5416730000000  0.5409570000000  0.4829250000000 1.0
C      1  0.5088500000000  0.5670850000000  0.4135230000000 1.0
C      1  0.4597810000000  0.5690980000000  0.4998960000000 1.0
C      1  0.4730760000000  0.5287690000000  0.4942430000000 1.0
C      1  0.5858220000000  0.5205720000000  0.4633430000000 1.0
C      1  0.5906930000000  0.4405090000000  0.4922550000000 1.0
C      1  0.5922230000000  0.4907050000000  0.5039460000000 1.0
C      1  0.5377050000000  0.5474420000000  0.4485160000000 1.0
C      1  0.5216470000000  0.5463320000000  0.3940940000000 1.0
C      1  0.5118970000000  0.5180950000000  0.3893310000000 1.0
C      1  0.5673140000000  0.4553800000000  0.5745650000000 1.0
C      1  0.5790130000000  0.5671540000000  0.4748660000000 1.0
C      1  0.6042050000000  0.3960340000000  0.5399050000000 1.0
C      1  0.4758850000000  0.4311940000000  0.4146430000000 1.0
C      1  0.4719790000000  0.6067400000000  0.5460670000000 1.0
C      1  0.5145860000000  0.5534460000000  0.4867920000000 1.0
C      1  0.5424510000000  0.4559480000000  0.4194210000000 1.0
C      1  0.5909570000000  0.4860660000000  0.5331240000000 1.0
C      1  0.4931410000000  0.6098530000000  0.5252840000000 1.0
C      1  0.4489840000000  0.4507380000000  0.5042430000000 1.0
C      1  0.4403050000000  0.5460520000000  0.5701840000000 1.0
C      1  0.4265880000000  0.4575400000000  0.5256710000000 1.0
C      1  0.4681790000000  0.5603600000000  0.5307100000000 1.0
C      1  0.4103660000000  0.4551560000000  0.4865880000000 1.0
C      1  0.5553300000000  0.6054250000000  0.4460340000000 1.0
C      1  0.4912550000000  0.5320320000000  0.4290070000000 1.0
C      1  0.4294100000000  0.4557500000000  0.5547540000000 1.0
C      1  0.4127220000000  0.4956560000000  0.4351760000000 1.0
C      1  0.5213570000000  0.4510010000000  0.5980920000000 1.0
C      1  0.5155650000000  0.4252120000000  0.4461920000000 1.0
C      1  0.5476530000000  0.5384470000000  0.3986280000000 1.0
C      1  0.5642770000000  0.4799660000000  0.5840190000000 1.0
C      1  0.4430010000000  0.4918120000000  0.4875710000000 1.0
C      1  0.4112300000000  0.4307670000000  0.4711520000000 1.0
C      1  0.4315430000000  0.5734700000000  0.4972800000000 1.0
C      1  0.4425590000000  0.5197310000000  0.5272040000000 1.0
C      1  0.5146180000000  0.5114950000000  0.6232200000000 1.0
C      1  0.5247680000000  0.4460050000000  0.4887670000000 1.0
C      1  0.4203580000000  0.5631880000000  0.5226270000000 1.0
C      1  0.4765230000000  0.4571750000000  0.5076980000000 1.0
C      1  0.5631350000000  0.5680080000000  0.5188570000000 1.0
C      1  0.4471090000000  0.4547180000000  0.4476180000000 1.0
C      1  0.5060660000000  0.4818250000000  0.6217960000000 1.0
C      1  0.4882330000000  0.5714030000000  0.5810960000000 1.0
C      1  0.4625850000000  0.5719220000000  0.4409500000000 1.0
C      1  0.5071350000000  0.4251700000000  0.5359690000000 1.0
C      1  0.4259090000000  0.4101940000000  0.4858280000000 1.0
C      1  0.5868670000000  0.5116210000000  0.5483140000000 1.0
C      1  0.4837080000000  0.4352210000000  0.3660700000000 1.0
C      1  0.4505710000000  0.4226060000000  0.4922700000000 1.0
C      1  0.4819440000000  0.5593960000000  0.4225450000000 1.0
C      1  0.4984600000000  0.4919120000000  0.4689220000000 1.0
C      1  0.5801950000000  0.3972370000000  0.5435120000000 1.0
C      1  0.5572230000000  0.5162260000000  0.5458330000000 1.0
C      1  0.5661930000000  0.5448440000000  0.4355150000000 1.0
C      1  0.5115180000000  0.5572480000000  0.5863930000000 1.0
C      1  0.5093490000000  0.4108480000000  0.5627090000000 1.0
C      1  0.4575340000000  0.5007080000000  0.5856890000000 1.0
C      1  0.5656760000000  0.5529070000000  0.4953820000000 1.0
C      1  0.5698160000000  0.5270200000000  0.4117060000000 1.0
C      1  0.4183540000000  0.4480500000000  0.4473200000000 1.0
C      1  0.4688280000000  0.4725560000000  0.5848180000000 1.0
C      1  0.3925860000000  0.5091510000000  0.5481630000000 1.0
C      1  0.4590540000000  0.4829740000000  0.4335250000000 1.0
C      1  0.4128470000000  0.4771090000000  0.5608940000000 1.0
C      1  0.4600790000000  0.4105290000000  0.5305400000000 1.0
C      1  0.5257720000000  0.5988180000000  0.4519710000000 1.0
C      1  0.4382910000000  0.4642880000000  0.4791540000000 1.0
C      1  0.5170080000000  0.5267770000000  0.4421160000000 1.0
C      1  0.4724430000000  0.4936970000000  0.4575060000000 1.0
C      1  0.4868910000000  0.5147740000000  0.4046710000000 1.0
C      1  0.5423530000000  0.4379690000000  0.5823230000000 1.0
C      1  0.5607050000000  0.4358170000000  0.4296800000000 1.0
C      1  0.4308090000000  0.5665940000000  0.5496380000000 1.0
C      1  0.4018190000000  0.4650430000000  0.5124350000000 1.0
C      1  0.4379650000000  0.4060540000000  0.5124350000000 1.0
C      1  0.4771980000000  0.5866420000000  0.4619220000000 1.0
C      1  0.4920750000000  0.6049660000000  0.4960830000000 1.0
C      1  0.5263170000000  0.4497860000000  0.5346220000000 1.0
C      1  0.5441060000000  0.4159260000000  0.4448420000000 1.0
C      1  0.4680160000000  0.4316100000000  0.4416780000000 1.0
C      1  0.4896510000000  0.4436200000000  0.3902240000000 1.0
C      1  0.4356950000000  0.5168130000000  0.5757540000000 1.0
C      1  0.4986370000000  0.4744730000000  0.3957660000000 1.0
C      1  0.4961940000000  0.4439940000000  0.4924570000000 1.0
C      1  0.5246980000000  0.5728590000000  0.4374290000000 1.0
C      1  0.5428350000000  0.4988380000000  0.5250630000000 1.0
C      1  0.5177080000000  0.5091380000000  0.5146510000000 1.0
C      1  0.5001210000000  0.4942180000000  0.4971200000000 1.0
C      1  0.5742250000000  0.4961270000000  0.4487170000000 1.0
C      1  0.5513830000000  0.4926930000000  0.6044750000000 1.0
C      1  0.4943120000000  0.4675780000000  0.5989290000000 1.0
C      1  0.4028540000000  0.4738310000000  0.4488100000000 1.0
C      1  0.5376120000000  0.4126060000000  0.5708380000000 1.0
C      1  0.5959310000000  0.4687700000000  0.4850540000000 1.0
C      1  0.4646490000000  0.5517950000000  0.5833840000000 1.0
C      1  0.5324850000000  0.4707110000000  0.6163730000000 1.0
END
