TITL C-883740-3686-291 55.3236684711226 125000 -16973.1545086517 0 0 114 (C1) n - 1
REM
REM in /home/nfs/bkarasulu/CARBON/AIRSS/Generating-Clusters/ReaxFF-fromJPCA2015/Units_Real/with-SteepDescent/Only-C1/SD-CG/Try1-3A/FIRE-CG
REM
REM
REM
REM
REM
REM ./C.cell (11c1c37f851c82e70ff6c80c92926a4b)
REM
REM compiler GCC version 9.2.1 20190827 (Red Hat 9.2.1-1)
REM options -cpp -mtune=generic -march=x86-64 -g -O0 -fpre-include=/usr/include/finclude/math-vector-fortran.h
REM seed -874450604 -439104546 -160587915 -1310549373 997821212 -862216222 -2061051645 1151665068 -661401021 1534940383 -377399512 -1004596335 1271995671 -1246402811 922765701 -1602353186 -1533165537 629889846 -695778962 1476924842 1793787902 -59861162 -773817707 -1940630037 -546651979 -845780676 -737363851 517928596 -125722508 446144143 372310029 491697453 2098770447
REM
CELL 1.54180   50.00000   50.00000   50.00000   90.00000   90.00000   90.00000
LATT -1
SFAC C  
C      1  0.4873900000000  0.5080230000000  0.4233580000000 1.0
C      1  0.4904520000000  0.5097240000000  0.5947070000000 1.0
C      1  0.5788900000000  0.5511700000000  0.4704910000000 1.0
C      1  0.5416210000000  0.5392230000000  0.5300880000000 1.0
C      1  0.5618050000000  0.5273300000000  0.5691990000000 1.0
C      1  0.5039670000000  0.5788970000000  0.5438050000000 1.0
C      1  0.4438670000000  0.4844790000000  0.4337660000000 1.0
C      1  0.5329390000000  0.5083970000000  0.5308980000000 1.0
C      1  0.4652060000000  0.5645640000000  0.5470790000000 1.0
C      1  0.4131670000000  0.4890570000000  0.5268610000000 1.0
C      1  0.5532070000000  0.4384810000000  0.4626410000000 1.0
C      1  0.5269840000000  0.5111810000000  0.4084780000000 1.0
C      1  0.4835150000000  0.4380330000000  0.4384300000000 1.0
C      1  0.5290320000000  0.4829400000000  0.4121440000000 1.0
C      1  0.5433790000000  0.4644820000000  0.4315420000000 1.0
C      1  0.4804360000000  0.4630830000000  0.5020080000000 1.0
C      1  0.5754770000000  0.4897450000000  0.5047050000000 1.0
C      1  0.5538090000000  0.4859680000000  0.4490860000000 1.0
C      1  0.5200060000000  0.5516910000000  0.4181520000000 1.0
C      1  0.4867610000000  0.5084000000000  0.5118340000000 1.0
C      1  0.4384270000000  0.5328920000000  0.5033010000000 1.0
C      1  0.4474750000000  0.4185250000000  0.5201240000000 1.0
C      1  0.4835640000000  0.4582940000000  0.4174160000000 1.0
C      1  0.5759060000000  0.4258200000000  0.4958290000000 1.0
C      1  0.4912240000000  0.5346970000000  0.5198460000000 1.0
C      1  0.4736570000000  0.5704540000000  0.4361770000000 1.0
C      1  0.4236940000000  0.5462280000000  0.4370530000000 1.0
C      1  0.5037090000000  0.4589140000000  0.4843560000000 1.0
C      1  0.5295890000000  0.4708860000000  0.4935620000000 1.0
C      1  0.4571950000000  0.4712320000000  0.5851480000000 1.0
C      1  0.5833340000000  0.4756450000000  0.4783540000000 1.0
C      1  0.5261180000000  0.4792820000000  0.5733510000000 1.0
C      1  0.5154290000000  0.5222890000000  0.5946010000000 1.0
C      1  0.4250360000000  0.4638260000000  0.5373320000000 1.0
C      1  0.5034790000000  0.5693340000000  0.4346060000000 1.0
C      1  0.5069070000000  0.5475450000000  0.4998480000000 1.0
C      1  0.4045740000000  0.4953790000000  0.5001080000000 1.0
C      1  0.4453620000000  0.5065540000000  0.4885480000000 1.0
C      1  0.4627750000000  0.5066220000000  0.4390830000000 1.0
C      1  0.5241580000000  0.4503290000000  0.5356410000000 1.0
C      1  0.5458880000000  0.5468630000000  0.4330810000000 1.0
C      1  0.4833660000000  0.4802610000000  0.5937960000000 1.0
C      1  0.5429610000000  0.4889000000000  0.5124840000000 1.0
C      1  0.4328450000000  0.4581280000000  0.4937460000000 1.0
C      1  0.5304820000000  0.5596130000000  0.5110470000000 1.0
C      1  0.5740580000000  0.5597960000000  0.4977100000000 1.0
C      1  0.4407410000000  0.5492560000000  0.5508090000000 1.0
C      1  0.5620790000000  0.5653710000000  0.4505380000000 1.0
C      1  0.5833010000000  0.5222490000000  0.4726020000000 1.0
C      1  0.5440150000000  0.4643220000000  0.5568630000000 1.0
C      1  0.5828000000000  0.4316500000000  0.5237590000000 1.0
C      1  0.5002200000000  0.4820640000000  0.4207640000000 1.0
C      1  0.5794420000000  0.5255460000000  0.5487150000000 1.0
C      1  0.5379430000000  0.5381030000000  0.5805310000000 1.0
C      1  0.5313100000000  0.4420690000000  0.4473880000000 1.0
C      1  0.5718970000000  0.4702040000000  0.5590840000000 1.0
C      1  0.4508760000000  0.5532990000000  0.4281840000000 1.0
C      1  0.4252060000000  0.5351370000000  0.5292680000000 1.0
C      1  0.4344430000000  0.5574090000000  0.4880510000000 1.0
C      1  0.5108440000000  0.5051680000000  0.4685910000000 1.0
C      1  0.4365450000000  0.4294750000000  0.4547990000000 1.0
C      1  0.4851010000000  0.4892130000000  0.5333990000000 1.0
C      1  0.5799170000000  0.5175120000000  0.4997290000000 1.0
C      1  0.5577840000000  0.4178220000000  0.5180090000000 1.0
C      1  0.4812480000000  0.4180040000000  0.4807000000000 1.0
C      1  0.5083680000000  0.5591970000000  0.5621770000000 1.0
C      1  0.5172850000000  0.5001570000000  0.5545280000000 1.0
C      1  0.5211800000000  0.4275330000000  0.5538630000000 1.0
C      1  0.4799580000000  0.5847080000000  0.5307380000000 1.0
C      1  0.4094240000000  0.5288480000000  0.4564010000000 1.0
C      1  0.4683180000000  0.5876810000000  0.4598680000000 1.0
C      1  0.5001230000000  0.4377930000000  0.5701370000000 1.0
C      1  0.5767820000000  0.4468630000000  0.4746980000000 1.0
C      1  0.4766210000000  0.4404950000000  0.5513490000000 1.0
C      1  0.5357990000000  0.5338970000000  0.4558870000000 1.0
C      1  0.5142940000000  0.5828860000000  0.4582830000000 1.0
C      1  0.4775060000000  0.5868040000000  0.5006440000000 1.0
C      1  0.4543730000000  0.4357360000000  0.4344940000000 1.0
C      1  0.5423570000000  0.5803570000000  0.4665080000000 1.0
C      1  0.4547370000000  0.4770270000000  0.4967770000000 1.0
C      1  0.4924690000000  0.5937790000000  0.4753810000000 1.0
C      1  0.4730830000000  0.4094800000000  0.5080030000000 1.0
C      1  0.5732910000000  0.5381620000000  0.5186940000000 1.0
C      1  0.4435830000000  0.5233240000000  0.5643880000000 1.0
C      1  0.4156570000000  0.5546290000000  0.4654820000000 1.0
C      1  0.4150390000000  0.5019600000000  0.4723670000000 1.0
C      1  0.4229820000000  0.4533150000000  0.4660180000000 1.0
C      1  0.4891880000000  0.4998280000000  0.5563710000000 1.0
C      1  0.4700720000000  0.4173820000000  0.5348440000000 1.0
C      1  0.5343050000000  0.5546630000000  0.5561280000000 1.0
C      1  0.5799180000000  0.4959790000000  0.4586130000000 1.0
C      1  0.4549170000000  0.4520130000000  0.5670190000000 1.0
C      1  0.4386120000000  0.4739270000000  0.5609850000000 1.0
C      1  0.4247070000000  0.5104040000000  0.5460310000000 1.0
C      1  0.5953260000000  0.4831490000000  0.5278930000000 1.0
C      1  0.4304420000000  0.4422850000000  0.5186980000000 1.0
C      1  0.5311270000000  0.4242440000000  0.5273010000000 1.0
C      1  0.4568520000000  0.4190320000000  0.4714280000000 1.0
C      1  0.5863260000000  0.4974950000000  0.5515930000000 1.0
C      1  0.4540600000000  0.5796620000000  0.4851090000000 1.0
C      1  0.5051060000000  0.5282300000000  0.4087770000000 1.0
C      1  0.4881310000000  0.5035710000000  0.4828180000000 1.0
C      1  0.5018830000000  0.4384160000000  0.4621500000000 1.0
C      1  0.4855610000000  0.5434660000000  0.5498250000000 1.0
C      1  0.4230010000000  0.4788230000000  0.4530060000000 1.0
C      1  0.4541890000000  0.4606400000000  0.4197260000000 1.0
C      1  0.5186110000000  0.5309700000000  0.4770510000000 1.0
C      1  0.4741360000000  0.5209040000000  0.5674550000000 1.0
C      1  0.5043570000000  0.4625360000000  0.5848720000000 1.0
C      1  0.5886730000000  0.4567950000000  0.5384680000000 1.0
C      1  0.4658830000000  0.5122750000000  0.4676800000000 1.0
C      1  0.5311620000000  0.4855940000000  0.4683070000000 1.0
C      1  0.4919690000000  0.4612610000000  0.5293040000000 1.0
C      1  0.5494230000000  0.5747740000000  0.4946610000000 1.0
END
