TITL C-884137-4758-429 41.0759390217893 125000 -26098.768056153 0 0 172 (C1) n - 1
REM
REM in /home/nfs/bkarasulu/CARBON/AIRSS/Generating-Clusters/ReaxFF-fromJPCA2015/Units_Real/with-SteepDescent/Only-C1/SD-CG/Try1-3A/FIRE-CG
REM
REM
REM
REM
REM
REM ./C.cell (11c1c37f851c82e70ff6c80c92926a4b)
REM
REM compiler GCC version 9.2.1 20190827 (Red Hat 9.2.1-1)
REM options -cpp -mtune=generic -march=x86-64 -g -O0 -fpre-include=/usr/include/finclude/math-vector-fortran.h
REM seed -2081185043 -454808593 2095497764 315063266 914342181 -999277092 278703789 -1251412589 -184958287 1551744451 -11400498 1272367085 -1881101603 345972331 -1686581942 -1646423785 493395588 1780479379 36580170 -634684863 -50083034 -2019100348 596595297 349186038 -1492459189 -386103871 -1192262539 -1756043401 -1088951008 -1393666916 294210894 951959100 517879446
REM
CELL 1.54180   50.00000   50.00000   50.00000   90.00000   90.00000   90.00000
LATT -1
SFAC C  
C      1  0.5894510000000  0.4789750000000  0.5738650000000 1.0
C      1  0.3950170000000  0.4729430000000  0.4690070000000 1.0
C      1  0.4892880000000  0.5350560000000  0.5598690000000 1.0
C      1  0.5364430000000  0.5327730000000  0.4511780000000 1.0
C      1  0.5600640000000  0.4462450000000  0.4173390000000 1.0
C      1  0.5355790000000  0.4019450000000  0.5474460000000 1.0
C      1  0.5187330000000  0.4567390000000  0.4865450000000 1.0
C      1  0.4766430000000  0.5222150000000  0.6081640000000 1.0
C      1  0.5039810000000  0.4690580000000  0.4009150000000 1.0
C      1  0.4885000000000  0.4160950000000  0.5708980000000 1.0
C      1  0.4806870000000  0.4429920000000  0.5158950000000 1.0
C      1  0.4619230000000  0.5085440000000  0.5850950000000 1.0
C      1  0.3923630000000  0.5234960000000  0.4758960000000 1.0
C      1  0.4830620000000  0.5050850000000  0.5581870000000 1.0
C      1  0.4828690000000  0.4849870000000  0.3890570000000 1.0
C      1  0.4693200000000  0.5495870000000  0.6005490000000 1.0
C      1  0.4512600000000  0.5707830000000  0.4570800000000 1.0
C      1  0.5409910000000  0.5944770000000  0.5215740000000 1.0
C      1  0.5504020000000  0.4132620000000  0.4571710000000 1.0
C      1  0.5655600000000  0.4974530000000  0.4771370000000 1.0
C      1  0.4833940000000  0.5400560000000  0.5122320000000 1.0
C      1  0.5842770000000  0.5673780000000  0.5191540000000 1.0
C      1  0.4406590000000  0.5868240000000  0.5363900000000 1.0
C      1  0.4243920000000  0.5313740000000  0.5492310000000 1.0
C      1  0.5837200000000  0.4627250000000  0.4240340000000 1.0
C      1  0.5080260000000  0.3957910000000  0.5060530000000 1.0
C      1  0.4650010000000  0.4969190000000  0.5097040000000 1.0
C      1  0.5426220000000  0.4676740000000  0.4275060000000 1.0
C      1  0.3957160000000  0.4801110000000  0.5320360000000 1.0
C      1  0.4994720000000  0.5567080000000  0.4582050000000 1.0
C      1  0.5031720000000  0.5997110000000  0.4840510000000 1.0
C      1  0.4731760000000  0.4310140000000  0.4254300000000 1.0
C      1  0.5878720000000  0.5378940000000  0.5045140000000 1.0
C      1  0.4850820000000  0.5335990000000  0.4570090000000 1.0
C      1  0.6125720000000  0.4997180000000  0.5366670000000 1.0
C      1  0.4770780000000  0.6029620000000  0.4705320000000 1.0
C      1  0.5190850000000  0.4642980000000  0.4602460000000 1.0
C      1  0.5575500000000  0.4716580000000  0.5124460000000 1.0
C      1  0.4449290000000  0.4673380000000  0.5325020000000 1.0
C      1  0.5994820000000  0.5037690000000  0.5629350000000 1.0
C      1  0.5370160000000  0.5528930000000  0.4076740000000 1.0
C      1  0.5540420000000  0.5048300000000  0.6041500000000 1.0
C      1  0.5120510000000  0.4052240000000  0.5621420000000 1.0
C      1  0.3890620000000  0.4895960000000  0.4451590000000 1.0
C      1  0.4381390000000  0.4781510000000  0.4469210000000 1.0
C      1  0.4211130000000  0.5026560000000  0.5058220000000 1.0
C      1  0.4392000000000  0.5296980000000  0.5745090000000 1.0
C      1  0.5720800000000  0.5865940000000  0.4783200000000 1.0
C      1  0.4151990000000  0.4887340000000  0.4317820000000 1.0
C      1  0.5607190000000  0.5153770000000  0.5009520000000 1.0
C      1  0.4559640000000  0.5393110000000  0.4551020000000 1.0
C      1  0.5595780000000  0.4044940000000  0.5057730000000 1.0
C      1  0.3952860000000  0.5460990000000  0.4944090000000 1.0
C      1  0.5272470000000  0.5087640000000  0.4517040000000 1.0
C      1  0.4975190000000  0.4455610000000  0.4173710000000 1.0
C      1  0.5444560000000  0.5591520000000  0.4499610000000 1.0
C      1  0.5030920000000  0.4035190000000  0.4774720000000 1.0
C      1  0.5349010000000  0.4553410000000  0.5099630000000 1.0
C      1  0.4736980000000  0.5856720000000  0.4466530000000 1.0
C      1  0.4613780000000  0.4802560000000  0.4303020000000 1.0
C      1  0.3910030000000  0.5193310000000  0.4467370000000 1.0
C      1  0.4968050000000  0.5103900000000  0.4424430000000 1.0
C      1  0.5470500000000  0.4642790000000  0.6015380000000 1.0
C      1  0.5196010000000  0.4706250000000  0.6029010000000 1.0
C      1  0.5257670000000  0.4986780000000  0.6115410000000 1.0
C      1  0.5928240000000  0.5434290000000  0.4758800000000 1.0
C      1  0.4934860000000  0.5524640000000  0.5842520000000 1.0
C      1  0.5785320000000  0.4912390000000  0.4178570000000 1.0
C      1  0.4271960000000  0.4911150000000  0.5725990000000 1.0
C      1  0.4855140000000  0.4484360000000  0.5708750000000 1.0
C      1  0.4571550000000  0.4766360000000  0.3997900000000 1.0
C      1  0.4704630000000  0.4183110000000  0.5040730000000 1.0
C      1  0.5783500000000  0.5760710000000  0.5464230000000 1.0
C      1  0.5865300000000  0.5520350000000  0.5573290000000 1.0
C      1  0.5520920000000  0.4973410000000  0.5224770000000 1.0
C      1  0.5369890000000  0.5567630000000  0.5569170000000 1.0
C      1  0.4140990000000  0.5682850000000  0.4966580000000 1.0
C      1  0.5476070000000  0.5822040000000  0.5463270000000 1.0
C      1  0.4484400000000  0.5563570000000  0.5807790000000 1.0
C      1  0.5337580000000  0.5628280000000  0.4929920000000 1.0
C      1  0.3880980000000  0.5353270000000  0.5214950000000 1.0
C      1  0.5084960000000  0.5302360000000  0.5031290000000 1.0
C      1  0.5658820000000  0.4204230000000  0.4813690000000 1.0
C      1  0.4371540000000  0.4368350000000  0.5697470000000 1.0
C      1  0.4447020000000  0.4518240000000  0.4043310000000 1.0
C      1  0.5535700000000  0.5009980000000  0.4036540000000 1.0
C      1  0.4261250000000  0.4304770000000  0.4500230000000 1.0
C      1  0.4453410000000  0.4718510000000  0.4752680000000 1.0
C      1  0.4986760000000  0.5260230000000  0.4131930000000 1.0
C      1  0.5807600000000  0.5367240000000  0.4199700000000 1.0
C      1  0.4234550000000  0.4209740000000  0.4985650000000 1.0
C      1  0.5079890000000  0.4690320000000  0.5753710000000 1.0
C      1  0.4827970000000  0.3989190000000  0.5221430000000 1.0
C      1  0.4596610000000  0.6007280000000  0.5181230000000 1.0
C      1  0.4242820000000  0.4231540000000  0.5475050000000 1.0
C      1  0.5917070000000  0.5125540000000  0.4635250000000 1.0
C      1  0.4881520000000  0.5525940000000  0.5385870000000 1.0
C      1  0.4550750000000  0.5356260000000  0.5053390000000 1.0
C      1  0.3983670000000  0.4974900000000  0.4881650000000 1.0
C      1  0.4641970000000  0.4895460000000  0.5366100000000 1.0
C      1  0.4912220000000  0.4602120000000  0.4919880000000 1.0
C      1  0.5413320000000  0.4813710000000  0.4541070000000 1.0
C      1  0.4068910000000  0.4577790000000  0.5132800000000 1.0
C      1  0.5551030000000  0.5298600000000  0.4052470000000 1.0
C      1  0.4348050000000  0.5806690000000  0.4787460000000 1.0
C      1  0.4815210000000  0.5805570000000  0.5488100000000 1.0
C      1  0.5077740000000  0.5535820000000  0.4140730000000 1.0
C      1  0.4502540000000  0.4297600000000  0.5457680000000 1.0
C      1  0.4960880000000  0.4482900000000  0.5396830000000 1.0
C      1  0.4541650000000  0.6002780000000  0.4890030000000 1.0
C      1  0.5046320000000  0.5070840000000  0.4990440000000 1.0
C      1  0.4196890000000  0.4774380000000  0.5493120000000 1.0
C      1  0.6106130000000  0.5080470000000  0.4855420000000 1.0
C      1  0.5250040000000  0.4467600000000  0.5362930000000 1.0
C      1  0.5938290000000  0.4570050000000  0.5548150000000 1.0
C      1  0.5414290000000  0.5482630000000  0.5855280000000 1.0
C      1  0.4470620000000  0.5275030000000  0.4796250000000 1.0
C      1  0.4737540000000  0.4641190000000  0.4674780000000 1.0
C      1  0.5872350000000  0.5297320000000  0.5731550000000 1.0
C      1  0.5731870000000  0.4212840000000  0.5229280000000 1.0
C      1  0.5167240000000  0.5449790000000  0.6005510000000 1.0
C      1  0.4342160000000  0.4636870000000  0.5054440000000 1.0
C      1  0.4166850000000  0.5733050000000  0.5253470000000 1.0
C      1  0.5694340000000  0.4798220000000  0.5968550000000 1.0
C      1  0.4808060000000  0.5147970000000  0.3928710000000 1.0
C      1  0.5354710000000  0.5348220000000  0.5387040000000 1.0
C      1  0.5815500000000  0.5633280000000  0.4324770000000 1.0
C      1  0.4338550000000  0.5233760000000  0.5219520000000 1.0
C      1  0.4408820000000  0.5307600000000  0.4269860000000 1.0
C      1  0.4581490000000  0.5234280000000  0.4077580000000 1.0
C      1  0.4873810000000  0.6000310000000  0.5277830000000 1.0
C      1  0.4141900000000  0.5183370000000  0.4280480000000 1.0
C      1  0.5795940000000  0.4463370000000  0.4761160000000 1.0
C      1  0.4972820000000  0.5713050000000  0.4356890000000 1.0
C      1  0.5546130000000  0.5702490000000  0.4236190000000 1.0
C      1  0.4544340000000  0.5776310000000  0.5602470000000 1.0
C      1  0.6105050000000  0.5173330000000  0.5111050000000 1.0
C      1  0.5071770000000  0.5705250000000  0.4829210000000 1.0
C      1  0.4436650000000  0.4313720000000  0.4231330000000 1.0
C      1  0.4748160000000  0.4124210000000  0.4752620000000 1.0
C      1  0.5680030000000  0.5881270000000  0.5074820000000 1.0
C      1  0.5739720000000  0.4338520000000  0.5469480000000 1.0
C      1  0.4448760000000  0.4997430000000  0.4889140000000 1.0
C      1  0.5104730000000  0.4405420000000  0.4446870000000 1.0
C      1  0.5337290000000  0.5062230000000  0.5437270000000 1.0
C      1  0.5315110000000  0.4812690000000  0.4046170000000 1.0
C      1  0.4479760000000  0.4811390000000  0.5884540000000 1.0
C      1  0.4777670000000  0.4343480000000  0.4553340000000 1.0
C      1  0.5622590000000  0.5290980000000  0.5905970000000 1.0
C      1  0.4334450000000  0.4183390000000  0.4740700000000 1.0
C      1  0.4098700000000  0.4494580000000  0.4627730000000 1.0
C      1  0.6081110000000  0.4725510000000  0.5373030000000 1.0
C      1  0.5501680000000  0.5718150000000  0.4740350000000 1.0
C      1  0.5728400000000  0.4716030000000  0.4889110000000 1.0
C      1  0.4108240000000  0.4290520000000  0.5220980000000 1.0
C      1  0.5911950000000  0.5126040000000  0.4321520000000 1.0
C      1  0.5684020000000  0.4258360000000  0.4371960000000 1.0
C      1  0.5107900000000  0.4928570000000  0.5585620000000 1.0
C      1  0.5446560000000  0.4305110000000  0.5520640000000 1.0
C      1  0.4573030000000  0.4548230000000  0.5797810000000 1.0
C      1  0.5059040000000  0.5201780000000  0.6119280000000 1.0
C      1  0.5375420000000  0.5387110000000  0.5077600000000 1.0
C      1  0.5126050000000  0.6005380000000  0.5117340000000 1.0
C      1  0.5212510000000  0.4143970000000  0.4574950000000 1.0
C      1  0.5882950000000  0.4452160000000  0.4480150000000 1.0
C      1  0.5336880000000  0.3954550000000  0.5183110000000 1.0
C      1  0.3864600000000  0.5066340000000  0.5266340000000 1.0
C      1  0.4862630000000  0.4813980000000  0.4459730000000 1.0
C      1  0.4893120000000  0.4886020000000  0.4993430000000 1.0
C      1  0.4044750000000  0.5512500000000  0.5401280000000 1.0
C      1  0.5875940000000  0.5673440000000  0.4614470000000 1.0
C      1  0.4725270000000  0.4087450000000  0.5478460000000 1.0
END
