TITL C-884128-4793-397 32.3223701878917 125000 -25304.7312329626 0 0 172 (C1) n - 1
REM
REM in /home/nfs/bkarasulu/CARBON/AIRSS/Generating-Clusters/ReaxFF-fromJPCA2015/Units_Real/with-SteepDescent/Only-C1/SD-CG/Try1-3A/FIRE-CG
REM
REM
REM
REM
REM
REM ./C.cell (11c1c37f851c82e70ff6c80c92926a4b)
REM
REM compiler GCC version 9.2.1 20190827 (Red Hat 9.2.1-1)
REM options -cpp -mtune=generic -march=x86-64 -g -O0 -fpre-include=/usr/include/finclude/math-vector-fortran.h
REM seed -91729286 1418718258 1553898802 105158329 644314733 -143852470 -702632592 -73230039 1267301847 -1018380000 -592717272 -1636962452 1054302648 1467231202 -1692382084 534626177 198924775 2127041571 743761713 -1711934930 -1770438934 970706047 -749527423 -1818040485 -109946367 -1473582273 1803060429 -574668681 904460801 1767117551 -404041668 1401703149 572226809
REM
CELL 1.54180   50.00000   50.00000   50.00000   90.00000   90.00000   90.00000
LATT -1
SFAC C  
C      1  0.5367550000000  0.4719090000000  0.4665590000000 1.0
C      1  0.5802860000000  0.5455720000000  0.5513270000000 1.0
C      1  0.4940420000000  0.5156530000000  0.4647460000000 1.0
C      1  0.4263840000000  0.5087820000000  0.5728230000000 1.0
C      1  0.5623660000000  0.5848620000000  0.4909180000000 1.0
C      1  0.5894240000000  0.4369000000000  0.5137810000000 1.0
C      1  0.4348080000000  0.4817100000000  0.4608910000000 1.0
C      1  0.5061740000000  0.4674400000000  0.4783100000000 1.0
C      1  0.5938010000000  0.4138760000000  0.4989820000000 1.0
C      1  0.5233830000000  0.4273840000000  0.5813310000000 1.0
C      1  0.4936480000000  0.5223660000000  0.5828250000000 1.0
C      1  0.5103340000000  0.4138690000000  0.4619880000000 1.0
C      1  0.4114450000000  0.4372830000000  0.5198530000000 1.0
C      1  0.4857610000000  0.4742240000000  0.6114040000000 1.0
C      1  0.5453520000000  0.4893860000000  0.5638230000000 1.0
C      1  0.5266870000000  0.5917430000000  0.4360990000000 1.0
C      1  0.4894810000000  0.5765840000000  0.4731010000000 1.0
C      1  0.4526850000000  0.5322090000000  0.5189870000000 1.0
C      1  0.5134570000000  0.5268400000000  0.6046400000000 1.0
C      1  0.4670050000000  0.4158430000000  0.5710600000000 1.0
C      1  0.4294540000000  0.4163450000000  0.5179330000000 1.0
C      1  0.5122490000000  0.4662740000000  0.4015660000000 1.0
C      1  0.4874100000000  0.5924230000000  0.5575230000000 1.0
C      1  0.5667350000000  0.5708480000000  0.4635910000000 1.0
C      1  0.5871870000000  0.5230780000000  0.5365710000000 1.0
C      1  0.5559210000000  0.5896720000000  0.5426910000000 1.0
C      1  0.5193950000000  0.5602510000000  0.5292090000000 1.0
C      1  0.4438470000000  0.4960620000000  0.4828410000000 1.0
C      1  0.5716460000000  0.4760750000000  0.4097170000000 1.0
C      1  0.4492770000000  0.5292250000000  0.4836600000000 1.0
C      1  0.4338120000000  0.5393570000000  0.5729960000000 1.0
C      1  0.5077860000000  0.4395730000000  0.4006120000000 1.0
C      1  0.4862600000000  0.5981920000000  0.5282420000000 1.0
C      1  0.6062410000000  0.5392870000000  0.5208250000000 1.0
C      1  0.5434290000000  0.5002200000000  0.4643030000000 1.0
C      1  0.5542480000000  0.5341020000000  0.5002210000000 1.0
C      1  0.5545580000000  0.4641700000000  0.5513330000000 1.0
C      1  0.3851570000000  0.4928270000000  0.4661190000000 1.0
C      1  0.4901960000000  0.5584350000000  0.5214160000000 1.0
C      1  0.4473290000000  0.5934900000000  0.4478210000000 1.0
C      1  0.4698610000000  0.5006720000000  0.5465250000000 1.0
C      1  0.3939660000000  0.5368510000000  0.5143190000000 1.0
C      1  0.5887190000000  0.4213690000000  0.4757240000000 1.0
C      1  0.4218170000000  0.4551410000000  0.4189760000000 1.0
C      1  0.4247580000000  0.5549230000000  0.5491230000000 1.0
C      1  0.4227660000000  0.4852390000000  0.4997320000000 1.0
C      1  0.5923380000000  0.4434700000000  0.5424520000000 1.0
C      1  0.5570380000000  0.4961970000000  0.4020200000000 1.0
C      1  0.4813160000000  0.5670600000000  0.5711630000000 1.0
C      1  0.5448530000000  0.4241160000000  0.5599200000000 1.0
C      1  0.4961820000000  0.5402160000000  0.3903220000000 1.0
C      1  0.4763040000000  0.3935140000000  0.4510670000000 1.0
C      1  0.4804740000000  0.4595650000000  0.5582410000000 1.0
C      1  0.5831540000000  0.5009330000000  0.4153920000000 1.0
C      1  0.4381380000000  0.4835810000000  0.5811120000000 1.0
C      1  0.4019340000000  0.5368870000000  0.5405220000000 1.0
C      1  0.4957580000000  0.5398260000000  0.5586190000000 1.0
C      1  0.5564560000000  0.5083480000000  0.6023020000000 1.0
C      1  0.5110160000000  0.4638160000000  0.5082080000000 1.0
C      1  0.4350870000000  0.4820290000000  0.5252980000000 1.0
C      1  0.4580520000000  0.4674760000000  0.4421820000000 1.0
C      1  0.4703320000000  0.4521600000000  0.5086820000000 1.0
C      1  0.3962360000000  0.4858320000000  0.5393060000000 1.0
C      1  0.5070090000000  0.4663870000000  0.5493100000000 1.0
C      1  0.4915980000000  0.4392880000000  0.4677890000000 1.0
C      1  0.5511310000000  0.4710500000000  0.5259180000000 1.0
C      1  0.4070850000000  0.4741690000000  0.4610820000000 1.0
C      1  0.4300550000000  0.4586560000000  0.5694580000000 1.0
C      1  0.4037250000000  0.4446010000000  0.4648340000000 1.0
C      1  0.4999650000000  0.5687730000000  0.4000380000000 1.0
C      1  0.4765980000000  0.4312250000000  0.4903260000000 1.0
C      1  0.4809800000000  0.4828410000000  0.4367020000000 1.0
C      1  0.5712330000000  0.4921450000000  0.5810790000000 1.0
C      1  0.5917960000000  0.5633120000000  0.5314710000000 1.0
C      1  0.5007770000000  0.5850280000000  0.4236320000000 1.0
C      1  0.5563410000000  0.5473490000000  0.5655790000000 1.0
C      1  0.5630760000000  0.5125500000000  0.5221640000000 1.0
C      1  0.5903350000000  0.4909710000000  0.4425080000000 1.0
C      1  0.4365810000000  0.4966980000000  0.3974960000000 1.0
C      1  0.4678640000000  0.4447510000000  0.5370990000000 1.0
C      1  0.4928350000000  0.4884750000000  0.4618900000000 1.0
C      1  0.5939380000000  0.4683710000000  0.4610460000000 1.0
C      1  0.6028480000000  0.4710270000000  0.5408920000000 1.0
C      1  0.6105170000000  0.5109600000000  0.4744040000000 1.0
C      1  0.5752200000000  0.4599780000000  0.4967060000000 1.0
C      1  0.4670610000000  0.4421670000000  0.4521120000000 1.0
C      1  0.4357790000000  0.5279120000000  0.4039100000000 1.0
C      1  0.5442040000000  0.5422740000000  0.4314170000000 1.0
C      1  0.4375940000000  0.5703200000000  0.4586670000000 1.0
C      1  0.5770020000000  0.5432620000000  0.4565720000000 1.0
C      1  0.4646950000000  0.4779040000000  0.4973330000000 1.0
C      1  0.5286110000000  0.4407940000000  0.5094900000000 1.0
C      1  0.3956450000000  0.4897400000000  0.5103480000000 1.0
C      1  0.5141170000000  0.4751520000000  0.6133280000000 1.0
C      1  0.5817340000000  0.4412390000000  0.4569230000000 1.0
C      1  0.5289440000000  0.5585920000000  0.5000350000000 1.0
C      1  0.4946840000000  0.5143570000000  0.5044560000000 1.0
C      1  0.4021980000000  0.5073060000000  0.4246570000000 1.0
C      1  0.5347240000000  0.5878560000000  0.4998450000000 1.0
C      1  0.4284740000000  0.5459160000000  0.4696920000000 1.0
C      1  0.4895700000000  0.4877470000000  0.4084910000000 1.0
C      1  0.3857630000000  0.5341580000000  0.4880680000000 1.0
C      1  0.4496690000000  0.4589200000000  0.4116160000000 1.0
C      1  0.5290930000000  0.5030450000000  0.6104970000000 1.0
C      1  0.5182020000000  0.4280170000000  0.4182970000000 1.0
C      1  0.5029420000000  0.5165710000000  0.4059780000000 1.0
C      1  0.5419010000000  0.5157190000000  0.4410780000000 1.0
C      1  0.5214150000000  0.4743170000000  0.5730250000000 1.0
C      1  0.5413680000000  0.4733230000000  0.4142610000000 1.0
C      1  0.5659010000000  0.4853100000000  0.5084330000000 1.0
C      1  0.5359930000000  0.5173980000000  0.4855080000000 1.0
C      1  0.4671290000000  0.5770500000000  0.5203810000000 1.0
C      1  0.4441310000000  0.5601460000000  0.5276740000000 1.0
C      1  0.4067140000000  0.4380290000000  0.4924560000000 1.0
C      1  0.5305840000000  0.5513670000000  0.6018490000000 1.0
C      1  0.4642750000000  0.4164380000000  0.5416550000000 1.0
C      1  0.5371760000000  0.5101700000000  0.5398870000000 1.0
C      1  0.5139870000000  0.4860640000000  0.5283430000000 1.0
C      1  0.5311060000000  0.4211050000000  0.5335760000000 1.0
C      1  0.6070930000000  0.5338970000000  0.4924140000000 1.0
C      1  0.5962780000000  0.5186520000000  0.4506720000000 1.0
C      1  0.4161730000000  0.4633580000000  0.5410480000000 1.0
C      1  0.5285130000000  0.5369140000000  0.5483230000000 1.0
C      1  0.6072440000000  0.4823770000000  0.4838800000000 1.0
C      1  0.4148720000000  0.4833280000000  0.4114780000000 1.0
C      1  0.4205160000000  0.4363470000000  0.4417030000000 1.0
C      1  0.5479420000000  0.4518900000000  0.4905250000000 1.0
C      1  0.4795880000000  0.5375380000000  0.5336720000000 1.0
C      1  0.5543760000000  0.5364850000000  0.5959050000000 1.0
C      1  0.4605900000000  0.4811360000000  0.3971430000000 1.0
C      1  0.5467170000000  0.5695200000000  0.4432150000000 1.0
C      1  0.5270320000000  0.5882480000000  0.5406890000000 1.0
C      1  0.5081990000000  0.4115570000000  0.5463620000000 1.0
C      1  0.5085290000000  0.5255210000000  0.4847780000000 1.0
C      1  0.4935950000000  0.3928390000000  0.4728770000000 1.0
C      1  0.6074950000000  0.4787180000000  0.5129620000000 1.0
C      1  0.4526250000000  0.3985930000000  0.4651580000000 1.0
C      1  0.5147520000000  0.5926320000000  0.5673870000000 1.0
C      1  0.4681030000000  0.4038460000000  0.4919230000000 1.0
C      1  0.4988400000000  0.6041140000000  0.4810070000000 1.0
C      1  0.4568950000000  0.5542440000000  0.5750260000000 1.0
C      1  0.4774450000000  0.5778660000000  0.4451350000000 1.0
C      1  0.4685890000000  0.4751400000000  0.5851380000000 1.0
C      1  0.4716870000000  0.5477750000000  0.4404050000000 1.0
C      1  0.4980830000000  0.4142880000000  0.5714090000000 1.0
C      1  0.5549200000000  0.5767400000000  0.5690690000000 1.0
C      1  0.5054040000000  0.5543390000000  0.4821440000000 1.0
C      1  0.4162660000000  0.5309340000000  0.4242610000000 1.0
C      1  0.5791180000000  0.5375600000000  0.4848230000000 1.0
C      1  0.5946330000000  0.4875730000000  0.5656910000000 1.0
C      1  0.4482780000000  0.4369580000000  0.5739110000000 1.0
C      1  0.5318740000000  0.5768050000000  0.5862330000000 1.0
C      1  0.5092270000000  0.6040670000000  0.5091010000000 1.0
C      1  0.5721360000000  0.5815630000000  0.5189210000000 1.0
C      1  0.4044720000000  0.5092920000000  0.5542980000000 1.0
C      1  0.5211700000000  0.5257040000000  0.4259600000000 1.0
C      1  0.4525740000000  0.4013830000000  0.5187390000000 1.0
C      1  0.3888000000000  0.5148200000000  0.4490970000000 1.0
C      1  0.4010180000000  0.5373650000000  0.4626720000000 1.0
C      1  0.5552620000000  0.4358150000000  0.4437170000000 1.0
C      1  0.4901060000000  0.4995520000000  0.5262950000000 1.0
C      1  0.5144470000000  0.6055710000000  0.4574230000000 1.0
C      1  0.4549320000000  0.5407400000000  0.4196480000000 1.0
C      1  0.5427390000000  0.4613190000000  0.4411270000000 1.0
C      1  0.4729560000000  0.5344930000000  0.4670790000000 1.0
C      1  0.5314730000000  0.4175260000000  0.4416000000000 1.0
C      1  0.3788770000000  0.5048990000000  0.4917820000000 1.0
C      1  0.5693650000000  0.4402910000000  0.5601320000000 1.0
C      1  0.4460280000000  0.4227290000000  0.4486910000000 1.0
C      1  0.4451400000000  0.5073250000000  0.5342170000000 1.0
C      1  0.4765060000000  0.5018520000000  0.5747860000000 1.0
C      1  0.5246440000000  0.4541090000000  0.5932100000000 1.0
END
