TITL C-883740-3686-165 0.178486173992515 125000 -5709.15258180504 0 0 39 (C1) n - 1
REM
REM in /home/nfs/bkarasulu/CARBON/AIRSS/Generating-Clusters/ReaxFF-fromJPCA2015/Units_Real/with-SteepDescent/Only-C1/SD-CG/Try1-3A/FIRE-CG
REM
REM
REM
REM
REM
REM ./C.cell (11c1c37f851c82e70ff6c80c92926a4b)
REM
REM compiler GCC version 9.2.1 20190827 (Red Hat 9.2.1-1)
REM options -cpp -mtune=generic -march=x86-64 -g -O0 -fpre-include=/usr/include/finclude/math-vector-fortran.h
REM seed -1499628157 -1778205652 -1638131362 1248656264 1673844606 1620544974 2054895853 -1296681518 -2110635106 1460191143 2007182876 1523762327 1857063592 -525469348 1299811570 -357580644 -2004154982 -1543667550 1409396745 185576531 -987188425 -912570873 1921878196 -294217964 -945607400 -437982697 691559491 -1289993438 180576760 -1757157230 -1096325086 -1703038308 59932550
REM
CELL 1.54180   50.00000   50.00000   50.00000   90.00000   90.00000   90.00000
LATT -1
SFAC C  
C      1  0.5164690000000  0.4430900000000  0.5064270000000 1.0
C      1  0.5569550000000  0.4588830000000  0.4881480000000 1.0
C      1  0.4286670000000  0.5241890000000  0.4923110000000 1.0
C      1  0.4927270000000  0.5167800000000  0.4628950000000 1.0
C      1  0.4936170000000  0.5461140000000  0.4997570000000 1.0
C      1  0.4671610000000  0.4865900000000  0.5114960000000 1.0
C      1  0.5103000000000  0.5851250000000  0.4978410000000 1.0
C      1  0.4512530000000  0.4918650000000  0.4666210000000 1.0
C      1  0.5362130000000  0.5148250000000  0.5321490000000 1.0
C      1  0.4583020000000  0.4695440000000  0.4759140000000 1.0
C      1  0.4886610000000  0.4547510000000  0.5421190000000 1.0
C      1  0.5133930000000  0.4704950000000  0.5445280000000 1.0
C      1  0.4984970000000  0.4933180000000  0.4485630000000 1.0
C      1  0.5844440000000  0.5043020000000  0.4726870000000 1.0
C      1  0.4637250000000  0.4657910000000  0.5547520000000 1.0
C      1  0.5553700000000  0.4698630000000  0.5153160000000 1.0
C      1  0.5135550000000  0.5608720000000  0.5148030000000 1.0
C      1  0.5368490000000  0.5437100000000  0.5230940000000 1.0
C      1  0.5323050000000  0.4564240000000  0.5272370000000 1.0
C      1  0.4460390000000  0.5191130000000  0.4658760000000 1.0
C      1  0.4936110000000  0.5001700000000  0.5131510000000 1.0
C      1  0.5734000000000  0.5162550000000  0.5013000000000 1.0
C      1  0.4423710000000  0.4990090000000  0.5251080000000 1.0
C      1  0.4160740000000  0.5007510000000  0.5044240000000 1.0
C      1  0.5590370000000  0.5389800000000  0.5073940000000 1.0
C      1  0.5175870000000  0.4578800000000  0.4581280000000 1.0
C      1  0.5000970000000  0.5186720000000  0.4915270000000 1.0
C      1  0.4667950000000  0.4590250000000  0.5003780000000 1.0
C      1  0.4693160000000  0.5353440000000  0.4607150000000 1.0
C      1  0.5120070000000  0.4986830000000  0.5360110000000 1.0
C      1  0.5581460000000  0.4993120000000  0.5198060000000 1.0
C      1  0.4886680000000  0.4445300000000  0.5146470000000 1.0
C      1  0.4899550000000  0.5844520000000  0.4753100000000 1.0
C      1  0.4769780000000  0.5576510000000  0.4781330000000 1.0
C      1  0.5060280000000  0.4712050000000  0.4410760000000 1.0
C      1  0.4416310000000  0.5304550000000  0.5186740000000 1.0
C      1  0.5710810000000  0.4801900000000  0.4773970000000 1.0
C      1  0.5303970000000  0.4467850000000  0.4806730000000 1.0
C      1  0.4423180000000  0.4850080000000  0.5536160000000 1.0
END
