TITL C-883735-9890-187 43.1361647362418 125000 -16132.756589422 0 0 110 (C1) n - 1
REM
REM in /home/nfs/bkarasulu/CARBON/AIRSS/Generating-Clusters/ReaxFF-fromJPCA2015/Units_Real/with-SteepDescent/Only-C1/SD-CG/Try1-3A/FIRE-CG
REM
REM
REM
REM
REM
REM ./C.cell (11c1c37f851c82e70ff6c80c92926a4b)
REM
REM compiler GCC version 9.2.1 20190827 (Red Hat 9.2.1-1)
REM options -cpp -mtune=generic -march=x86-64 -g -O0 -fpre-include=/usr/include/finclude/math-vector-fortran.h
REM seed -230124995 -1846634914 -611356016 -1864937485 -51466082 1008856008 -1450340023 2130517521 85623246 1589618880 -1088571440 84183984 -882609275 -2009601047 -918707410 925649667 2064688079 -1743347192 -706190512 -1237598290 -536957828 -1370781237 495014892 341112042 -1743350078 166568345 1898671998 -1330702943 -592372553 1153520311 -1924333296 823518617 1659785390
REM
CELL 1.54180   50.00000   50.00000   50.00000   90.00000   90.00000   90.00000
LATT -1
SFAC C  
C      1  0.5578100000000  0.5257360000000  0.5616880000000 1.0
C      1  0.5616600000000  0.5482210000000  0.5192630000000 1.0
C      1  0.5215770000000  0.5721860000000  0.4400950000000 1.0
C      1  0.5499070000000  0.4570760000000  0.4341720000000 1.0
C      1  0.4268460000000  0.4583950000000  0.5472270000000 1.0
C      1  0.5169670000000  0.4842710000000  0.4049760000000 1.0
C      1  0.4657360000000  0.5421030000000  0.4252840000000 1.0
C      1  0.5029400000000  0.5278060000000  0.4491900000000 1.0
C      1  0.5757160000000  0.5166630000000  0.5427390000000 1.0
C      1  0.4875800000000  0.4044660000000  0.5107170000000 1.0
C      1  0.5894940000000  0.5243820000000  0.4851450000000 1.0
C      1  0.4421050000000  0.4362040000000  0.5363140000000 1.0
C      1  0.4981030000000  0.5514760000000  0.5686140000000 1.0
C      1  0.5770850000000  0.4880180000000  0.4437420000000 1.0
C      1  0.4694640000000  0.4842310000000  0.5009800000000 1.0
C      1  0.5535000000000  0.5360390000000  0.4505720000000 1.0
C      1  0.5077370000000  0.4862870000000  0.5861730000000 1.0
C      1  0.4841300000000  0.5575540000000  0.5457300000000 1.0
C      1  0.4667660000000  0.4593380000000  0.5108390000000 1.0
C      1  0.5138610000000  0.4110590000000  0.5428650000000 1.0
C      1  0.5351880000000  0.4891190000000  0.5381340000000 1.0
C      1  0.4402690000000  0.4430340000000  0.4748870000000 1.0
C      1  0.5878830000000  0.4696880000000  0.5236000000000 1.0
C      1  0.4497060000000  0.5032510000000  0.5423720000000 1.0
C      1  0.5371210000000  0.5487280000000  0.4293740000000 1.0
C      1  0.4908090000000  0.5233330000000  0.4220310000000 1.0
C      1  0.4473500000000  0.5274480000000  0.5603740000000 1.0
C      1  0.5174510000000  0.5754620000000  0.4701520000000 1.0
C      1  0.4362460000000  0.5721170000000  0.4825430000000 1.0
C      1  0.5013490000000  0.4442540000000  0.4280120000000 1.0
C      1  0.5293270000000  0.4269470000000  0.5622740000000 1.0
C      1  0.5408550000000  0.5316930000000  0.4769030000000 1.0
C      1  0.4953680000000  0.5493090000000  0.5222990000000 1.0
C      1  0.5814360000000  0.4671240000000  0.4951950000000 1.0
C      1  0.4361920000000  0.4859040000000  0.4437890000000 1.0
C      1  0.4685380000000  0.4330390000000  0.5463240000000 1.0
C      1  0.5471900000000  0.5714460000000  0.5118220000000 1.0
C      1  0.5247110000000  0.5855710000000  0.5254850000000 1.0
C      1  0.4227120000000  0.5431290000000  0.5229990000000 1.0
C      1  0.5296050000000  0.5752040000000  0.5494720000000 1.0
C      1  0.4303040000000  0.5683830000000  0.5104620000000 1.0
C      1  0.5313540000000  0.5105210000000  0.5181160000000 1.0
C      1  0.4455480000000  0.5750730000000  0.5346470000000 1.0
C      1  0.3944050000000  0.4844520000000  0.5148990000000 1.0
C      1  0.4660940000000  0.5683360000000  0.4723890000000 1.0
C      1  0.4922950000000  0.5798400000000  0.4834150000000 1.0
C      1  0.5532690000000  0.4860120000000  0.4267570000000 1.0
C      1  0.5007430000000  0.5242610000000  0.5747930000000 1.0
C      1  0.5254870000000  0.5604150000000  0.5725100000000 1.0
C      1  0.5909620000000  0.5079340000000  0.4609690000000 1.0
C      1  0.4642820000000  0.4289480000000  0.4671960000000 1.0
C      1  0.4842790000000  0.4091990000000  0.5402020000000 1.0
C      1  0.4401890000000  0.4819320000000  0.5604050000000 1.0
C      1  0.4485400000000  0.5160340000000  0.5878140000000 1.0
C      1  0.5776320000000  0.4863640000000  0.5454190000000 1.0
C      1  0.5176000000000  0.4515050000000  0.4908190000000 1.0
C      1  0.5571010000000  0.4660160000000  0.4790170000000 1.0
C      1  0.4195250000000  0.5549150000000  0.4651500000000 1.0
C      1  0.5246230000000  0.4315790000000  0.4713280000000 1.0
C      1  0.5270770000000  0.4402700000000  0.4421450000000 1.0
C      1  0.4476580000000  0.4364790000000  0.5047020000000 1.0
C      1  0.5290950000000  0.4771340000000  0.4790950000000 1.0
C      1  0.4493450000000  0.4974190000000  0.4218800000000 1.0
C      1  0.5843860000000  0.4419430000000  0.5118510000000 1.0
C      1  0.4425670000000  0.5250480000000  0.4312940000000 1.0
C      1  0.4347500000000  0.5510940000000  0.5481020000000 1.0
C      1  0.5630460000000  0.4243550000000  0.5034780000000 1.0
C      1  0.4853840000000  0.4452510000000  0.4523340000000 1.0
C      1  0.4072960000000  0.4690200000000  0.5293870000000 1.0
C      1  0.4946750000000  0.5712390000000  0.4342590000000 1.0
C      1  0.5479980000000  0.4498180000000  0.5671580000000 1.0
C      1  0.5779210000000  0.5287930000000  0.5135460000000 1.0
C      1  0.4858410000000  0.5010000000000  0.5165000000000 1.0
C      1  0.4972730000000  0.4991980000000  0.5616440000000 1.0
C      1  0.5815860000000  0.5357480000000  0.4593990000000 1.0
C      1  0.4540690000000  0.4860080000000  0.5869420000000 1.0
C      1  0.4987080000000  0.4700740000000  0.4595480000000 1.0
C      1  0.4938640000000  0.4704240000000  0.4116660000000 1.0
C      1  0.5442860000000  0.4391820000000  0.5402520000000 1.0
C      1  0.5370540000000  0.4152770000000  0.4929260000000 1.0
C      1  0.5224050000000  0.5294610000000  0.4134610000000 1.0
C      1  0.4848280000000  0.4569740000000  0.5338940000000 1.0
C      1  0.4804900000000  0.4909260000000  0.4628680000000 1.0
C      1  0.5037270000000  0.5235880000000  0.5111360000000 1.0
C      1  0.4560970000000  0.4919020000000  0.4778540000000 1.0
C      1  0.5717830000000  0.4602800000000  0.4545130000000 1.0
C      1  0.4997370000000  0.5087070000000  0.4668060000000 1.0
C      1  0.4075240000000  0.5066940000000  0.5130630000000 1.0
C      1  0.5167560000000  0.4070580000000  0.5134520000000 1.0
C      1  0.4463080000000  0.5210340000000  0.4824770000000 1.0
C      1  0.5342420000000  0.4625080000000  0.5263600000000 1.0
C      1  0.5532990000000  0.4776800000000  0.5591650000000 1.0
C      1  0.4943240000000  0.5331210000000  0.4774050000000 1.0
C      1  0.5399160000000  0.5338340000000  0.5804430000000 1.0
C      1  0.4812160000000  0.4771610000000  0.5957820000000 1.0
C      1  0.4737610000000  0.5814950000000  0.5357010000000 1.0
C      1  0.5364320000000  0.5041430000000  0.4081890000000 1.0
C      1  0.5212310000000  0.5130180000000  0.5916700000000 1.0
C      1  0.4783730000000  0.4951060000000  0.4159470000000 1.0
C      1  0.4683260000000  0.5669630000000  0.4395440000000 1.0
C      1  0.5362860000000  0.5055310000000  0.4904960000000 1.0
C      1  0.5372290000000  0.5598210000000  0.4859760000000 1.0
C      1  0.4671840000000  0.4154630000000  0.4926910000000 1.0
C      1  0.4679860000000  0.5403730000000  0.4801580000000 1.0
C      1  0.4291540000000  0.5275180000000  0.4578100000000 1.0
C      1  0.5110640000000  0.4487610000000  0.5186110000000 1.0
C      1  0.4338800000000  0.5178830000000  0.5144750000000 1.0
C      1  0.4804980000000  0.4901840000000  0.5413950000000 1.0
C      1  0.4954640000000  0.5785130000000  0.5131260000000 1.0
C      1  0.4340840000000  0.4704970000000  0.4667490000000 1.0
END
