TITL C-884137-4758-102 3.19856830732426 125000 -13114.0613996718 0 0 89 (C1) n - 1
REM
REM in /home/nfs/bkarasulu/CARBON/AIRSS/Generating-Clusters/ReaxFF-fromJPCA2015/Units_Real/with-SteepDescent/Only-C1/SD-CG/Try1-3A/FIRE-CG
REM
REM
REM
REM
REM
REM ./C.cell (11c1c37f851c82e70ff6c80c92926a4b)
REM
REM compiler GCC version 9.2.1 20190827 (Red Hat 9.2.1-1)
REM options -cpp -mtune=generic -march=x86-64 -g -O0 -fpre-include=/usr/include/finclude/math-vector-fortran.h
REM seed 1363441510 -1791875037 -1363455051 1025672201 -2030609733 1996450125 1848222684 -1498883214 1364306385 712390687 326366060 1811451831 -1892039448 -688179655 323698787 -1120263358 -1909438252 -2147380179 2026107670 1680634267 -1529656477 -854246273 -885867537 -1705800798 -1531652955 -506924151 1849778228 586033998 598861318 1429812856 -1773478838 1508668309 -1115663142
REM
CELL 1.54180   50.00000   50.00000   50.00000   90.00000   90.00000   90.00000
LATT -1
SFAC C  
C      1  0.5440240000000  0.5000790000000  0.5123240000000 1.0
C      1  0.5465590000000  0.5228980000000  0.5645040000000 1.0
C      1  0.5245510000000  0.4978440000000  0.5618810000000 1.0
C      1  0.4765270000000  0.5704920000000  0.5461860000000 1.0
C      1  0.5066810000000  0.5179110000000  0.5759610000000 1.0
C      1  0.5236480000000  0.5366190000000  0.4878650000000 1.0
C      1  0.5705670000000  0.4888720000000  0.5018680000000 1.0
C      1  0.4688890000000  0.4690510000000  0.5082060000000 1.0
C      1  0.5695020000000  0.5089300000000  0.4816870000000 1.0
C      1  0.5804250000000  0.5314730000000  0.5227180000000 1.0
C      1  0.5684090000000  0.4620310000000  0.4820790000000 1.0
C      1  0.5144070000000  0.5762210000000  0.4910930000000 1.0
C      1  0.5883840000000  0.5028260000000  0.5221030000000 1.0
C      1  0.4327420000000  0.5424260000000  0.5523310000000 1.0
C      1  0.4850000000000  0.5826750000000  0.4973560000000 1.0
C      1  0.4352940000000  0.4789390000000  0.5515710000000 1.0
C      1  0.4436040000000  0.4782250000000  0.5097300000000 1.0
C      1  0.5596490000000  0.5579700000000  0.4754440000000 1.0
C      1  0.5516220000000  0.5351320000000  0.4293290000000 1.0
C      1  0.4351620000000  0.5611270000000  0.4838640000000 1.0
C      1  0.4867300000000  0.4682370000000  0.5287230000000 1.0
C      1  0.4632370000000  0.4233100000000  0.5135170000000 1.0
C      1  0.5444170000000  0.5174880000000  0.4919490000000 1.0
C      1  0.5090210000000  0.4298620000000  0.4597030000000 1.0
C      1  0.5408630000000  0.4819030000000  0.4392160000000 1.0
C      1  0.4857740000000  0.5175450000000  0.4951440000000 1.0
C      1  0.5532870000000  0.4407090000000  0.4897720000000 1.0
C      1  0.4396860000000  0.5507530000000  0.4567770000000 1.0
C      1  0.4696590000000  0.5561810000000  0.5688980000000 1.0
C      1  0.4187400000000  0.4844270000000  0.4714860000000 1.0
C      1  0.5202450000000  0.4982690000000  0.5298410000000 1.0
C      1  0.4764930000000  0.4637190000000  0.5553890000000 1.0
C      1  0.5252640000000  0.4683230000000  0.5699600000000 1.0
C      1  0.4582830000000  0.4684090000000  0.4344080000000 1.0
C      1  0.4267210000000  0.5125720000000  0.4724870000000 1.0
C      1  0.4580110000000  0.4801100000000  0.4845810000000 1.0
C      1  0.4677990000000  0.4212170000000  0.4846720000000 1.0
C      1  0.5564190000000  0.5064130000000  0.4342130000000 1.0
C      1  0.4711730000000  0.4424020000000  0.4376840000000 1.0
C      1  0.5143480000000  0.4700240000000  0.5209330000000 1.0
C      1  0.5044690000000  0.5529550000000  0.4314310000000 1.0
C      1  0.4103970000000  0.4663530000000  0.4914510000000 1.0
C      1  0.4976460000000  0.4293940000000  0.5510460000000 1.0
C      1  0.5771950000000  0.5140740000000  0.4543620000000 1.0
C      1  0.4359970000000  0.5323650000000  0.4951140000000 1.0
C      1  0.5293170000000  0.5373220000000  0.5837150000000 1.0
C      1  0.5343580000000  0.5722710000000  0.4694920000000 1.0
C      1  0.4722860000000  0.5203730000000  0.5394450000000 1.0
C      1  0.4807970000000  0.5285090000000  0.5658840000000 1.0
C      1  0.5101860000000  0.4143220000000  0.5053390000000 1.0
C      1  0.5147890000000  0.4717630000000  0.4875290000000 1.0
C      1  0.5688890000000  0.5525520000000  0.5035250000000 1.0
C      1  0.4956990000000  0.4112310000000  0.4804150000000 1.0
C      1  0.4900690000000  0.4164340000000  0.5269130000000 1.0
C      1  0.4773870000000  0.4900460000000  0.4313450000000 1.0
C      1  0.4885950000000  0.5351080000000  0.4474080000000 1.0
C      1  0.4483430000000  0.4539320000000  0.5517430000000 1.0
C      1  0.5302560000000  0.5518520000000  0.4224810000000 1.0
C      1  0.4425200000000  0.4379190000000  0.5273550000000 1.0
C      1  0.4810190000000  0.5784530000000  0.5248960000000 1.0
C      1  0.5787560000000  0.4854170000000  0.5410420000000 1.0
C      1  0.5062330000000  0.4775720000000  0.4391470000000 1.0
C      1  0.5104090000000  0.4903740000000  0.4657850000000 1.0
C      1  0.5690560000000  0.5424620000000  0.4520000000000 1.0
C      1  0.5116360000000  0.4487880000000  0.4783650000000 1.0
C      1  0.4415010000000  0.5252400000000  0.5302790000000 1.0
C      1  0.4618870000000  0.5743610000000  0.4818330000000 1.0
C      1  0.4383290000000  0.5602540000000  0.5739870000000 1.0
C      1  0.5042760000000  0.5199580000000  0.4719300000000 1.0
C      1  0.5425080000000  0.4510830000000  0.5568380000000 1.0
C      1  0.5235680000000  0.5711240000000  0.4422720000000 1.0
C      1  0.4682640000000  0.5521720000000  0.4635540000000 1.0
C      1  0.4931280000000  0.5130950000000  0.5220250000000 1.0
C      1  0.5353680000000  0.4498910000000  0.5299140000000 1.0
C      1  0.5532520000000  0.4666620000000  0.4592080000000 1.0
C      1  0.4230980000000  0.4562830000000  0.5139340000000 1.0
C      1  0.4998670000000  0.4477870000000  0.4379650000000 1.0
C      1  0.5489060000000  0.5587210000000  0.5239030000000 1.0
C      1  0.4305280000000  0.5033370000000  0.5459650000000 1.0
C      1  0.5604520000000  0.5383790000000  0.5427750000000 1.0
C      1  0.5005660000000  0.4514170000000  0.5685960000000 1.0
C      1  0.4452120000000  0.4647740000000  0.4618810000000 1.0
C      1  0.4671850000000  0.5155000000000  0.4375050000000 1.0
C      1  0.5227960000000  0.5555830000000  0.5098540000000 1.0
C      1  0.4399610000000  0.5227610000000  0.4486960000000 1.0
C      1  0.5366850000000  0.4284760000000  0.5091230000000 1.0
C      1  0.4562910000000  0.4362990000000  0.4622400000000 1.0
C      1  0.4642870000000  0.5327120000000  0.4871380000000 1.0
C      1  0.5639640000000  0.4686760000000  0.5539030000000 1.0
END
