TITL C-883728-9229-194 -1.18866897695026 125000 -9680.22857261505 0 0 66 (C1) n - 1
REM
REM in /home/nfs/bkarasulu/CARBON/AIRSS/Generating-Clusters/ReaxFF-fromJPCA2015/Units_Real/with-SteepDescent/Only-C1/SD-CG/Try1-3A/FIRE-CG
REM
REM
REM
REM
REM
REM ./C.cell (11c1c37f851c82e70ff6c80c92926a4b)
REM
REM compiler GCC version 9.2.1 20190827 (Red Hat 9.2.1-1)
REM options -cpp -mtune=generic -march=x86-64 -g -O0 -fpre-include=/usr/include/finclude/math-vector-fortran.h
REM seed -508976133 755648827 -1093442871 2110019903 2032856826 -373783924 1243340988 184242399 296316892 -417636 684722865 1127096950 544775902 232828271 -189178580 1942189281 -622609259 -513177856 1294058552 503017510 -154417044 573382697 -498721760 -1551764679 130619580 70567726 1186368712 -954310891 -1708060181 1113936551 1534951604 1703876033 979888521
REM
CELL 1.54180   50.00000   50.00000   50.00000   90.00000   90.00000   90.00000
LATT -1
SFAC C  
C      1  0.5245550000000  0.5553840000000  0.4654290000000 1.0
C      1  0.4778730000000  0.5007760000000  0.4275970000000 1.0
C      1  0.4965980000000  0.5209500000000  0.4792670000000 1.0
C      1  0.4194260000000  0.4704250000000  0.5231230000000 1.0
C      1  0.5078270000000  0.5001710000000  0.5620500000000 1.0
C      1  0.5135360000000  0.4301570000000  0.5111820000000 1.0
C      1  0.4615920000000  0.4899910000000  0.5356020000000 1.0
C      1  0.4424760000000  0.4662030000000  0.5388950000000 1.0
C      1  0.5729480000000  0.5016380000000  0.4745700000000 1.0
C      1  0.5030540000000  0.5755600000000  0.5478480000000 1.0
C      1  0.5116440000000  0.5289750000000  0.5498010000000 1.0
C      1  0.5529490000000  0.4570540000000  0.4622730000000 1.0
C      1  0.5314940000000  0.5704330000000  0.5416140000000 1.0
C      1  0.4737240000000  0.5632450000000  0.4663970000000 1.0
C      1  0.5277590000000  0.4593320000000  0.5509370000000 1.0
C      1  0.4494970000000  0.4166700000000  0.5014480000000 1.0
C      1  0.5192810000000  0.4743020000000  0.4914280000000 1.0
C      1  0.5623450000000  0.4841600000000  0.5224410000000 1.0
C      1  0.5324990000000  0.4849700000000  0.5618890000000 1.0
C      1  0.4703040000000  0.5365630000000  0.4820550000000 1.0
C      1  0.5004850000000  0.4897060000000  0.5039300000000 1.0
C      1  0.5010570000000  0.4914900000000  0.4190700000000 1.0
C      1  0.4577960000000  0.4730280000000  0.4625680000000 1.0
C      1  0.4545700000000  0.5436590000000  0.4586760000000 1.0
C      1  0.5685090000000  0.5228130000000  0.4951790000000 1.0
C      1  0.4828790000000  0.4858450000000  0.5599120000000 1.0
C      1  0.4463470000000  0.5125510000000  0.5218270000000 1.0
C      1  0.5385740000000  0.5455990000000  0.5546440000000 1.0
C      1  0.4596170000000  0.4961130000000  0.4415570000000 1.0
C      1  0.4301010000000  0.4941200000000  0.5033410000000 1.0
C      1  0.5384850000000  0.5656340000000  0.4879420000000 1.0
C      1  0.5185750000000  0.5270070000000  0.4615220000000 1.0
C      1  0.4090950000000  0.5071950000000  0.4807260000000 1.0
C      1  0.5328300000000  0.4293630000000  0.4877910000000 1.0
C      1  0.4238440000000  0.5164650000000  0.4597720000000 1.0
C      1  0.5281590000000  0.4409260000000  0.4614020000000 1.0
C      1  0.5494030000000  0.5308300000000  0.5165620000000 1.0
C      1  0.5314680000000  0.5780350000000  0.5120680000000 1.0
C      1  0.5070040000000  0.4626500000000  0.4656160000000 1.0
C      1  0.4455530000000  0.5211880000000  0.4421930000000 1.0
C      1  0.5567400000000  0.4466400000000  0.4902300000000 1.0
C      1  0.5212060000000  0.4411620000000  0.5351380000000 1.0
C      1  0.4763790000000  0.4517300000000  0.4668680000000 1.0
C      1  0.5548430000000  0.4862660000000  0.4581890000000 1.0
C      1  0.4577220000000  0.5365780000000  0.5122290000000 1.0
C      1  0.5438050000000  0.4687920000000  0.5047040000000 1.0
C      1  0.4856890000000  0.5804360000000  0.5241440000000 1.0
C      1  0.4760740000000  0.4757930000000  0.5096900000000 1.0
C      1  0.5213670000000  0.5269960000000  0.5206390000000 1.0
C      1  0.5555200000000  0.4975230000000  0.5473110000000 1.0
C      1  0.5000950000000  0.5720830000000  0.4737420000000 1.0
C      1  0.4891640000000  0.5502290000000  0.5522850000000 1.0
C      1  0.4533100000000  0.4791700000000  0.4900770000000 1.0
C      1  0.4642000000000  0.4420910000000  0.5395150000000 1.0
C      1  0.5032420000000  0.5158730000000  0.5045310000000 1.0
C      1  0.5113750000000  0.4824270000000  0.4429370000000 1.0
C      1  0.5322690000000  0.5040700000000  0.4460030000000 1.0
C      1  0.5247190000000  0.5080350000000  0.4133680000000 1.0
C      1  0.4498380000000  0.4159070000000  0.5309540000000 1.0
C      1  0.4697840000000  0.5555750000000  0.5307180000000 1.0
C      1  0.5581820000000  0.5267050000000  0.5449110000000 1.0
C      1  0.5037840000000  0.5832840000000  0.5011610000000 1.0
C      1  0.5801190000000  0.4978260000000  0.5033530000000 1.0
C      1  0.4717820000000  0.4331000000000  0.4887790000000 1.0
C      1  0.4858450000000  0.4432200000000  0.5130320000000 1.0
C      1  0.4772170000000  0.4573140000000  0.5633460000000 1.0
END
