TITL C-883737-113-308 1.65433029713972 125000 -5568.04443373957 0 0 39 (C1) n - 1
REM
REM in /home/nfs/bkarasulu/CARBON/AIRSS/Generating-Clusters/ReaxFF-fromJPCA2015/Units_Real/with-SteepDescent/Only-C1/SD-CG/Try1-3A/FIRE-CG
REM
REM
REM
REM
REM
REM ./C.cell (11c1c37f851c82e70ff6c80c92926a4b)
REM
REM compiler GCC version 9.2.1 20190827 (Red Hat 9.2.1-1)
REM options -cpp -mtune=generic -march=x86-64 -g -O0 -fpre-include=/usr/include/finclude/math-vector-fortran.h
REM seed 557116288 1278661840 -1304587696 723230748 -934434555 751103572 2135897727 1664929898 -821814603 1708759632 734668150 -2048741944 -1006284198 1239278091 986150434 107192662 -1994988608 619508211 -331498974 885630526 -1936376487 -1390334190 -902543087 1544426879 -1059743812 -146936293 58979072 2037661154 -1257072376 704868779 1728383008 -347699464 1617250715
REM
CELL 1.54180   50.00000   50.00000   50.00000   90.00000   90.00000   90.00000
LATT -1
SFAC C  
C      1  0.5408880000000  0.4505800000000  0.4673220000000 1.0
C      1  0.5149630000000  0.4596560000000  0.4580270000000 1.0
C      1  0.4981340000000  0.4468490000000  0.5059100000000 1.0
C      1  0.4405250000000  0.5384640000000  0.5078730000000 1.0
C      1  0.5701000000000  0.4750440000000  0.5023680000000 1.0
C      1  0.4970910000000  0.5003100000000  0.4897310000000 1.0
C      1  0.4493010000000  0.4912630000000  0.5191980000000 1.0
C      1  0.5646170000000  0.4649410000000  0.4745680000000 1.0
C      1  0.5259750000000  0.5041180000000  0.4519360000000 1.0
C      1  0.4427760000000  0.5173380000000  0.5299340000000 1.0
C      1  0.5474310000000  0.5127930000000  0.5331070000000 1.0
C      1  0.5229900000000  0.4672030000000  0.5443380000000 1.0
C      1  0.4764040000000  0.4848240000000  0.5333180000000 1.0
C      1  0.4866110000000  0.5305520000000  0.5321660000000 1.0
C      1  0.4681110000000  0.5117670000000  0.4772850000000 1.0
C      1  0.4744390000000  0.4586870000000  0.4639580000000 1.0
C      1  0.5064660000000  0.5038960000000  0.5681810000000 1.0
C      1  0.4845640000000  0.5593020000000  0.4945170000000 1.0
C      1  0.5299950000000  0.4949580000000  0.5521890000000 1.0
C      1  0.5230140000000  0.5137490000000  0.4776050000000 1.0
C      1  0.4492050000000  0.4914110000000  0.4904660000000 1.0
C      1  0.4936840000000  0.5583540000000  0.5232840000000 1.0
C      1  0.4492400000000  0.4684570000000  0.4731530000000 1.0
C      1  0.4968840000000  0.4670140000000  0.4807240000000 1.0
C      1  0.5343180000000  0.5394060000000  0.4895910000000 1.0
C      1  0.5584730000000  0.4944050000000  0.5181340000000 1.0
C      1  0.5502560000000  0.4541230000000  0.4939650000000 1.0
C      1  0.5163450000000  0.4821340000000  0.4370960000000 1.0
C      1  0.4930120000000  0.5056330000000  0.5180320000000 1.0
C      1  0.4916900000000  0.4968200000000  0.4333930000000 1.0
C      1  0.5232090000000  0.5601360000000  0.5304960000000 1.0
C      1  0.4593470000000  0.4755810000000  0.4469750000000 1.0
C      1  0.5404690000000  0.5392710000000  0.5188860000000 1.0
C      1  0.4779040000000  0.5002490000000  0.5606650000000 1.0
C      1  0.4617930000000  0.5402890000000  0.4880030000000 1.0
C      1  0.4971890000000  0.4594770000000  0.5310170000000 1.0
C      1  0.4638460000000  0.5234010000000  0.5496500000000 1.0
C      1  0.5105870000000  0.5537990000000  0.4859980000000 1.0
C      1  0.4681540000000  0.5037470000000  0.4469420000000 1.0
END
