TITL C-884131-4643-360 59.8547069531234 125000 -24790.0305985749 0 0 169 (C1) n - 1
REM
REM in /home/nfs/bkarasulu/CARBON/AIRSS/Generating-Clusters/ReaxFF-fromJPCA2015/Units_Real/with-SteepDescent/Only-C1/SD-CG/Try1-3A/FIRE-CG
REM
REM
REM
REM
REM
REM ./C.cell (11c1c37f851c82e70ff6c80c92926a4b)
REM
REM compiler GCC version 9.2.1 20190827 (Red Hat 9.2.1-1)
REM options -cpp -mtune=generic -march=x86-64 -g -O0 -fpre-include=/usr/include/finclude/math-vector-fortran.h
REM seed -1123249588 -2015404573 -2034292026 -1640656984 1861764111 -900057309 1146074356 -1656327256 1705664033 -1634676488 719235031 888201178 1371250625 -1476759015 -152938810 -1852630842 648107124 -564036594 870047557 1207659336 -942298701 -1872603961 -618504419 -1816492710 1277932532 -688949059 -1042776247 1545776793 -1680077557 886755849 -993594027 1794656977 655771923
REM
CELL 1.54180   50.00000   50.00000   50.00000   90.00000   90.00000   90.00000
LATT -1
SFAC C  
C      1  0.4372750000000  0.5273880000000  0.4109370000000 1.0
C      1  0.5517240000000  0.4575520000000  0.4024810000000 1.0
C      1  0.4235710000000  0.4808050000000  0.4304840000000 1.0
C      1  0.5505620000000  0.5064830000000  0.4914470000000 1.0
C      1  0.5049790000000  0.4018980000000  0.4350560000000 1.0
C      1  0.4602950000000  0.5396760000000  0.5173440000000 1.0
C      1  0.5376900000000  0.3941750000000  0.4768510000000 1.0
C      1  0.5863380000000  0.4512970000000  0.4638330000000 1.0
C      1  0.4795610000000  0.4455880000000  0.5924950000000 1.0
C      1  0.5112840000000  0.3946930000000  0.4628350000000 1.0
C      1  0.5181180000000  0.5727830000000  0.4249260000000 1.0
C      1  0.5777360000000  0.4269030000000  0.4723780000000 1.0
C      1  0.4902540000000  0.4855720000000  0.5580530000000 1.0
C      1  0.4454880000000  0.5781700000000  0.4537120000000 1.0
C      1  0.5143110000000  0.4789200000000  0.4798280000000 1.0
C      1  0.5858560000000  0.5182720000000  0.4602070000000 1.0
C      1  0.4243070000000  0.5330590000000  0.4364030000000 1.0
C      1  0.5099110000000  0.4405600000000  0.5429250000000 1.0
C      1  0.4992510000000  0.5106690000000  0.5956560000000 1.0
C      1  0.5649310000000  0.5017690000000  0.5187770000000 1.0
C      1  0.6077430000000  0.4889510000000  0.4808010000000 1.0
C      1  0.5521830000000  0.4816760000000  0.5343340000000 1.0
C      1  0.4821580000000  0.4865500000000  0.4024980000000 1.0
C      1  0.5272200000000  0.4931560000000  0.5030520000000 1.0
C      1  0.4768270000000  0.5863040000000  0.5443590000000 1.0
C      1  0.4710920000000  0.5563110000000  0.4255180000000 1.0
C      1  0.5885130000000  0.4525220000000  0.5136760000000 1.0
C      1  0.4859280000000  0.3926380000000  0.4774420000000 1.0
C      1  0.4102230000000  0.5406170000000  0.5663510000000 1.0
C      1  0.5021880000000  0.5178210000000  0.4440920000000 1.0
C      1  0.5658860000000  0.4553740000000  0.5717150000000 1.0
C      1  0.5725950000000  0.5582610000000  0.5625080000000 1.0
C      1  0.6092830000000  0.5295250000000  0.4493950000000 1.0
C      1  0.5793060000000  0.4754910000000  0.5539770000000 1.0
C      1  0.5267890000000  0.5064440000000  0.3918460000000 1.0
C      1  0.4027220000000  0.5286950000000  0.5210370000000 1.0
C      1  0.4973480000000  0.5084090000000  0.3898480000000 1.0
C      1  0.5041830000000  0.4687120000000  0.4091060000000 1.0
C      1  0.4947190000000  0.5885150000000  0.4353910000000 1.0
C      1  0.4508760000000  0.5845990000000  0.4825990000000 1.0
C      1  0.4349860000000  0.4547920000000  0.4373360000000 1.0
C      1  0.5157280000000  0.5937350000000  0.4920490000000 1.0
C      1  0.3988620000000  0.4609600000000  0.4924600000000 1.0
C      1  0.4221620000000  0.4347500000000  0.4539170000000 1.0
C      1  0.5442700000000  0.5283080000000  0.5917630000000 1.0
C      1  0.4578690000000  0.4272820000000  0.5922390000000 1.0
C      1  0.5951330000000  0.5406630000000  0.4925960000000 1.0
C      1  0.5095900000000  0.3952970000000  0.5213580000000 1.0
C      1  0.5345250000000  0.3996060000000  0.5057020000000 1.0
C      1  0.5645610000000  0.4379610000000  0.5236450000000 1.0
C      1  0.5593650000000  0.5032530000000  0.5871020000000 1.0
C      1  0.4055440000000  0.4901680000000  0.4999320000000 1.0
C      1  0.4151150000000  0.5587800000000  0.4810890000000 1.0
C      1  0.6135080000000  0.4955950000000  0.5219610000000 1.0
C      1  0.5211590000000  0.4526220000000  0.4688390000000 1.0
C      1  0.5626090000000  0.4658480000000  0.4563040000000 1.0
C      1  0.5794830000000  0.5031000000000  0.5665330000000 1.0
C      1  0.5696280000000  0.5076960000000  0.4398030000000 1.0
C      1  0.5264720000000  0.5349740000000  0.5325770000000 1.0
C      1  0.5410630000000  0.4283620000000  0.5089050000000 1.0
C      1  0.5184310000000  0.4403860000000  0.4942750000000 1.0
C      1  0.5158280000000  0.5636020000000  0.5673210000000 1.0
C      1  0.4800500000000  0.4333290000000  0.4248110000000 1.0
C      1  0.5449610000000  0.5521740000000  0.5737060000000 1.0
C      1  0.4620800000000  0.4915980000000  0.5522400000000 1.0
C      1  0.4762950000000  0.4283050000000  0.5169790000000 1.0
C      1  0.4642090000000  0.4013850000000  0.5231490000000 1.0
C      1  0.4567850000000  0.5030560000000  0.4516200000000 1.0
C      1  0.4082740000000  0.5088550000000  0.4786850000000 1.0
C      1  0.5185360000000  0.4955710000000  0.4514940000000 1.0
C      1  0.4662500000000  0.5814080000000  0.4335390000000 1.0
C      1  0.5009910000000  0.4778940000000  0.4374060000000 1.0
C      1  0.4085850000000  0.5517040000000  0.5386850000000 1.0
C      1  0.5893260000000  0.5440060000000  0.5412220000000 1.0
C      1  0.5365230000000  0.4396180000000  0.4217790000000 1.0
C      1  0.4300690000000  0.4999680000000  0.4115000000000 1.0
C      1  0.4574560000000  0.5213950000000  0.5605740000000 1.0
C      1  0.5330190000000  0.5514320000000  0.4722620000000 1.0
C      1  0.4555660000000  0.5659650000000  0.5729930000000 1.0
C      1  0.4273370000000  0.5768980000000  0.5002340000000 1.0
C      1  0.4826940000000  0.6052060000000  0.5216020000000 1.0
C      1  0.5482690000000  0.5350490000000  0.4904720000000 1.0
C      1  0.5351900000000  0.6065930000000  0.5356200000000 1.0
C      1  0.4150430000000  0.4817050000000  0.5527640000000 1.0
C      1  0.5037960000000  0.5103390000000  0.5091640000000 1.0
C      1  0.4849470000000  0.4756650000000  0.4879400000000 1.0
C      1  0.5793520000000  0.5165730000000  0.5406890000000 1.0
C      1  0.4260760000000  0.4156390000000  0.4982160000000 1.0
C      1  0.5060180000000  0.4113300000000  0.5465280000000 1.0
C      1  0.4212330000000  0.4535850000000  0.5479510000000 1.0
C      1  0.6013850000000  0.4705910000000  0.5320440000000 1.0
C      1  0.4480540000000  0.5799060000000  0.5496830000000 1.0
C      1  0.4949780000000  0.5616490000000  0.5462400000000 1.0
C      1  0.4629060000000  0.4422350000000  0.5339320000000 1.0
C      1  0.5047220000000  0.5388960000000  0.5144040000000 1.0
C      1  0.4733700000000  0.4521540000000  0.4724630000000 1.0
C      1  0.5231980000000  0.5141330000000  0.5520670000000 1.0
C      1  0.4853330000000  0.3885570000000  0.5066640000000 1.0
C      1  0.5976140000000  0.4604420000000  0.4866380000000 1.0
C      1  0.4035730000000  0.5339890000000  0.4918980000000 1.0
C      1  0.6078730000000  0.5008730000000  0.4541200000000 1.0
C      1  0.5452240000000  0.5739460000000  0.4372940000000 1.0
C      1  0.5615720000000  0.4102790000000  0.4742310000000 1.0
C      1  0.4898650000000  0.4366350000000  0.4903910000000 1.0
C      1  0.4652790000000  0.5392410000000  0.4079570000000 1.0
C      1  0.4905740000000  0.5829520000000  0.5027980000000 1.0
C      1  0.4495120000000  0.4919940000000  0.5936000000000 1.0
C      1  0.5360120000000  0.6095890000000  0.5047340000000 1.0
C      1  0.4820650000000  0.5454180000000  0.4727140000000 1.0
C      1  0.4271450000000  0.5725970000000  0.5290030000000 1.0
C      1  0.5364710000000  0.5299950000000  0.4056530000000 1.0
C      1  0.5004270000000  0.4813170000000  0.5986450000000 1.0
C      1  0.4707570000000  0.5510820000000  0.5906580000000 1.0
C      1  0.5880220000000  0.5571380000000  0.5149620000000 1.0
C      1  0.5175000000000  0.5320600000000  0.6029250000000 1.0
C      1  0.4497480000000  0.4591070000000  0.5507620000000 1.0
C      1  0.5440350000000  0.5876130000000  0.4865530000000 1.0
C      1  0.5591410000000  0.5311740000000  0.4251110000000 1.0
C      1  0.6065510000000  0.5130310000000  0.4978660000000 1.0
C      1  0.3974140000000  0.4489910000000  0.4640490000000 1.0
C      1  0.4240180000000  0.4924760000000  0.5785670000000 1.0
C      1  0.4829030000000  0.5039250000000  0.4904480000000 1.0
C      1  0.4979250000000  0.5127620000000  0.5653100000000 1.0
C      1  0.5086470000000  0.4280960000000  0.4199610000000 1.0
C      1  0.5073730000000  0.6126110000000  0.5338870000000 1.0
C      1  0.5570460000000  0.4354700000000  0.5523020000000 1.0
C      1  0.5152780000000  0.5500720000000  0.4069730000000 1.0
C      1  0.5423130000000  0.4461950000000  0.4496820000000 1.0
C      1  0.4120820000000  0.4386250000000  0.5010300000000 1.0
C      1  0.4977200000000  0.4670470000000  0.5371870000000 1.0
C      1  0.4911930000000  0.5357400000000  0.3963780000000 1.0
C      1  0.4800870000000  0.4734060000000  0.5156270000000 1.0
C      1  0.5451020000000  0.5806660000000  0.5445470000000 1.0
C      1  0.4721020000000  0.6111170000000  0.4805170000000 1.0
C      1  0.4600290000000  0.4911550000000  0.5229490000000 1.0
C      1  0.4730990000000  0.4853740000000  0.4332110000000 1.0
C      1  0.4271390000000  0.4233320000000  0.5498510000000 1.0
C      1  0.4906110000000  0.6074250000000  0.4579240000000 1.0
C      1  0.5901590000000  0.5476780000000  0.4615120000000 1.0
C      1  0.4652430000000  0.4541200000000  0.4430150000000 1.0
C      1  0.5088480000000  0.5456580000000  0.4862210000000 1.0
C      1  0.4207540000000  0.5218220000000  0.5855090000000 1.0
C      1  0.4869090000000  0.5406750000000  0.4425100000000 1.0
C      1  0.5502740000000  0.4743250000000  0.5876380000000 1.0
C      1  0.4255670000000  0.5573390000000  0.4532970000000 1.0
C      1  0.4524880000000  0.5233870000000  0.5899180000000 1.0
C      1  0.4756060000000  0.4066130000000  0.4355470000000 1.0
C      1  0.5301920000000  0.4772790000000  0.3962880000000 1.0
C      1  0.5657490000000  0.5538730000000  0.4401380000000 1.0
C      1  0.5297570000000  0.4258690000000  0.5580350000000 1.0
C      1  0.5488280000000  0.5446150000000  0.5175600000000 1.0
C      1  0.4261080000000  0.5062450000000  0.4522120000000 1.0
C      1  0.4375470000000  0.4146430000000  0.4701580000000 1.0
C      1  0.5223490000000  0.4732870000000  0.5791650000000 1.0
C      1  0.4696650000000  0.5620350000000  0.4954640000000 1.0
C      1  0.4161790000000  0.5022030000000  0.5255770000000 1.0
C      1  0.4764340000000  0.4236340000000  0.5720610000000 1.0
C      1  0.4480630000000  0.4157980000000  0.5687110000000 1.0
C      1  0.4355530000000  0.4081490000000  0.5258040000000 1.0
C      1  0.5524080000000  0.4932620000000  0.4590350000000 1.0
C      1  0.4720920000000  0.4734240000000  0.5971640000000 1.0
C      1  0.5311840000000  0.4872720000000  0.5532460000000 1.0
C      1  0.5006300000000  0.5530630000000  0.5905260000000 1.0
C      1  0.4750270000000  0.5380330000000  0.5429910000000 1.0
C      1  0.5375700000000  0.5768910000000  0.4632490000000 1.0
C      1  0.5609600000000  0.5695230000000  0.5232360000000 1.0
C      1  0.4688940000000  0.5181950000000  0.4725690000000 1.0
C      1  0.4624320000000  0.4023170000000  0.4621230000000 1.0
C      1  0.4454990000000  0.5149100000000  0.5154130000000 1.0
END
