TITL C-883740-3686-197 20.7468772597429 125000 -30514.958184409 0 0 199 (C1) n - 1
REM
REM in /home/nfs/bkarasulu/CARBON/AIRSS/Generating-Clusters/ReaxFF-fromJPCA2015/Units_Real/with-SteepDescent/Only-C1/SD-CG/Try1-3A/FIRE-CG
REM
REM
REM
REM
REM
REM ./C.cell (11c1c37f851c82e70ff6c80c92926a4b)
REM
REM compiler GCC version 9.2.1 20190827 (Red Hat 9.2.1-1)
REM options -cpp -mtune=generic -march=x86-64 -g -O0 -fpre-include=/usr/include/finclude/math-vector-fortran.h
REM seed 454657984 -1655086529 -171843782 843580403 551731957 -1278621941 1665300090 -1291219378 -2004982021 239183480 -977245256 1417187864 940452291 -250323341 -1879536942 -142842940 1387148956 -1667253817 -1320474754 184763155 1835338270 -961486312 -1941621864 -1944391202 -1962225236 -502024805 -703547476 -900245194 303270859 1532280585 8010926 -2061482106 52396044
REM
CELL 1.54180   50.00000   50.00000   50.00000   90.00000   90.00000   90.00000
LATT -1
SFAC C  
C      1  0.5221240000000  0.4023160000000  0.4641780000000 1.0
C      1  0.5559510000000  0.4754260000000  0.4473600000000 1.0
C      1  0.5611830000000  0.4188620000000  0.5529970000000 1.0
C      1  0.5637580000000  0.4488340000000  0.5905760000000 1.0
C      1  0.5080300000000  0.4056570000000  0.5265910000000 1.0
C      1  0.4930500000000  0.5725580000000  0.4160640000000 1.0
C      1  0.5558040000000  0.4189500000000  0.4338410000000 1.0
C      1  0.5521200000000  0.5252640000000  0.6066240000000 1.0
C      1  0.5819480000000  0.4639000000000  0.5490670000000 1.0
C      1  0.5978740000000  0.4909140000000  0.4816300000000 1.0
C      1  0.4306380000000  0.4222550000000  0.4654100000000 1.0
C      1  0.6018990000000  0.5346950000000  0.5275330000000 1.0
C      1  0.5715930000000  0.4165210000000  0.5249160000000 1.0
C      1  0.3890220000000  0.5068660000000  0.4899610000000 1.0
C      1  0.4502720000000  0.5158000000000  0.4452440000000 1.0
C      1  0.4145090000000  0.5565860000000  0.4259540000000 1.0
C      1  0.5212660000000  0.4530730000000  0.5593040000000 1.0
C      1  0.4996850000000  0.5966880000000  0.4311650000000 1.0
C      1  0.5399460000000  0.4454290000000  0.4716840000000 1.0
C      1  0.5283120000000  0.5537220000000  0.5577180000000 1.0
C      1  0.5879860000000  0.5774100000000  0.5417430000000 1.0
C      1  0.5364340000000  0.4834800000000  0.4283610000000 1.0
C      1  0.3771100000000  0.5166130000000  0.5168830000000 1.0
C      1  0.4687600000000  0.5385200000000  0.6123860000000 1.0
C      1  0.5199880000000  0.5254370000000  0.5492100000000 1.0
C      1  0.4673120000000  0.4944760000000  0.4417990000000 1.0
C      1  0.4093660000000  0.5764380000000  0.5380080000000 1.0
C      1  0.4634200000000  0.4733630000000  0.4592290000000 1.0
C      1  0.4221980000000  0.4586880000000  0.4076940000000 1.0
C      1  0.4903730000000  0.4442180000000  0.5964390000000 1.0
C      1  0.5798100000000  0.5898730000000  0.5186310000000 1.0
C      1  0.5079140000000  0.4064690000000  0.5550150000000 1.0
C      1  0.4877160000000  0.5222070000000  0.4849020000000 1.0
C      1  0.5674180000000  0.4796220000000  0.5942230000000 1.0
C      1  0.4060160000000  0.5284970000000  0.4250430000000 1.0
C      1  0.3944600000000  0.5318250000000  0.4751930000000 1.0
C      1  0.4448180000000  0.3979300000000  0.4695800000000 1.0
C      1  0.5836010000000  0.5383880000000  0.5070080000000 1.0
C      1  0.4450900000000  0.5192420000000  0.5341990000000 1.0
C      1  0.5410250000000  0.5750470000000  0.5940840000000 1.0
C      1  0.4433950000000  0.5116330000000  0.3979610000000 1.0
C      1  0.5167470000000  0.4328490000000  0.4677020000000 1.0
C      1  0.4908440000000  0.4416430000000  0.4717300000000 1.0
C      1  0.4719860000000  0.4347270000000  0.4064890000000 1.0
C      1  0.4729020000000  0.3914060000000  0.4601140000000 1.0
C      1  0.4772640000000  0.6149620000000  0.4945780000000 1.0
C      1  0.4216970000000  0.4788210000000  0.5833330000000 1.0
C      1  0.5344970000000  0.5496040000000  0.6101900000000 1.0
C      1  0.4676700000000  0.4598620000000  0.5062020000000 1.0
C      1  0.5503450000000  0.4075100000000  0.5065210000000 1.0
C      1  0.4943500000000  0.4560700000000  0.5693070000000 1.0
C      1  0.5468050000000  0.5224110000000  0.5380150000000 1.0
C      1  0.4615860000000  0.5694130000000  0.5475450000000 1.0
C      1  0.4015710000000  0.4362630000000  0.5105020000000 1.0
C      1  0.4876770000000  0.5325230000000  0.4571000000000 1.0
C      1  0.4668780000000  0.4039800000000  0.4339640000000 1.0
C      1  0.5908910000000  0.5058240000000  0.4574180000000 1.0
C      1  0.4150380000000  0.5705620000000  0.4519130000000 1.0
C      1  0.6014290000000  0.4392920000000  0.4869680000000 1.0
C      1  0.4299880000000  0.5096010000000  0.4620600000000 1.0
C      1  0.5726920000000  0.5121410000000  0.4139510000000 1.0
C      1  0.4579330000000  0.4329650000000  0.4324790000000 1.0
C      1  0.5485660000000  0.6105550000000  0.4865920000000 1.0
C      1  0.4815290000000  0.4745270000000  0.5251600000000 1.0
C      1  0.5561380000000  0.6070090000000  0.5137980000000 1.0
C      1  0.5838280000000  0.4979050000000  0.5067500000000 1.0
C      1  0.4557350000000  0.5996150000000  0.4839590000000 1.0
C      1  0.4004220000000  0.4800950000000  0.4838990000000 1.0
C      1  0.5392580000000  0.4914480000000  0.3988240000000 1.0
C      1  0.5199860000000  0.4362420000000  0.3946880000000 1.0
C      1  0.5784940000000  0.5550960000000  0.4534090000000 1.0
C      1  0.4615490000000  0.5716570000000  0.4935110000000 1.0
C      1  0.4128580000000  0.4117070000000  0.5007100000000 1.0
C      1  0.4923560000000  0.5138540000000  0.4014880000000 1.0
C      1  0.4953870000000  0.5200700000000  0.5310740000000 1.0
C      1  0.5203530000000  0.4650900000000  0.6172940000000 1.0
C      1  0.5352430000000  0.4144120000000  0.5661390000000 1.0
C      1  0.5979410000000  0.4896130000000  0.5562930000000 1.0
C      1  0.5035160000000  0.4995720000000  0.4890410000000 1.0
C      1  0.5983520000000  0.5058530000000  0.5315720000000 1.0
C      1  0.5346520000000  0.6035740000000  0.5639630000000 1.0
C      1  0.4956620000000  0.4525430000000  0.3990990000000 1.0
C      1  0.5496040000000  0.4030820000000  0.4784190000000 1.0
C      1  0.4468630000000  0.4708620000000  0.5950170000000 1.0
C      1  0.4143390000000  0.5541220000000  0.4769840000000 1.0
C      1  0.4650060000000  0.5540980000000  0.4180340000000 1.0
C      1  0.4135830000000  0.4620260000000  0.5598800000000 1.0
C      1  0.5111000000000  0.5546810000000  0.4075640000000 1.0
C      1  0.5722870000000  0.5279710000000  0.4613810000000 1.0
C      1  0.5052740000000  0.5680060000000  0.5625910000000 1.0
C      1  0.5998000000000  0.5540870000000  0.5510530000000 1.0
C      1  0.4171400000000  0.5059300000000  0.5746800000000 1.0
C      1  0.5538490000000  0.5645100000000  0.4397840000000 1.0
C      1  0.5925040000000  0.4427860000000  0.4598430000000 1.0
C      1  0.5307680000000  0.4056140000000  0.4326580000000 1.0
C      1  0.5584890000000  0.4837920000000  0.5634750000000 1.0
C      1  0.5657200000000  0.4409050000000  0.4180010000000 1.0
C      1  0.5184010000000  0.4924470000000  0.6170840000000 1.0
C      1  0.5376020000000  0.6147220000000  0.5375530000000 1.0
C      1  0.4802440000000  0.4374690000000  0.4963000000000 1.0
C      1  0.4400810000000  0.4644200000000  0.3846890000000 1.0
C      1  0.5903780000000  0.5656670000000  0.5018740000000 1.0
C      1  0.5470640000000  0.4985110000000  0.6116040000000 1.0
C      1  0.4951990000000  0.6203680000000  0.4723130000000 1.0
C      1  0.4842240000000  0.4087570000000  0.4106130000000 1.0
C      1  0.5533460000000  0.5634650000000  0.5701530000000 1.0
C      1  0.4196420000000  0.5051740000000  0.4155920000000 1.0
C      1  0.5795030000000  0.4616750000000  0.4356290000000 1.0
C      1  0.4097440000000  0.4164520000000  0.5280780000000 1.0
C      1  0.4398340000000  0.5014710000000  0.4880870000000 1.0
C      1  0.4055670000000  0.4654410000000  0.5091420000000 1.0
C      1  0.5521690000000  0.5934900000000  0.4426710000000 1.0
C      1  0.5256480000000  0.4965130000000  0.4709920000000 1.0
C      1  0.5119650000000  0.5563210000000  0.5015770000000 1.0
C      1  0.4991420000000  0.4997670000000  0.5942740000000 1.0
C      1  0.4828830000000  0.5560710000000  0.5977370000000 1.0
C      1  0.3936700000000  0.5259520000000  0.5383780000000 1.0
C      1  0.4184290000000  0.5063100000000  0.5436500000000 1.0
C      1  0.4863950000000  0.4896100000000  0.3860610000000 1.0
C      1  0.5669740000000  0.5973440000000  0.4678280000000 1.0
C      1  0.5275580000000  0.4244250000000  0.5166730000000 1.0
C      1  0.4281320000000  0.4374840000000  0.5665000000000 1.0
C      1  0.4793430000000  0.5535160000000  0.5649590000000 1.0
C      1  0.5109950000000  0.6085040000000  0.5309660000000 1.0
C      1  0.4602890000000  0.3973400000000  0.5169540000000 1.0
C      1  0.5048170000000  0.5582040000000  0.4574740000000 1.0
C      1  0.5622460000000  0.4253700000000  0.4637070000000 1.0
C      1  0.5749040000000  0.5235050000000  0.5840010000000 1.0
C      1  0.5559050000000  0.5357340000000  0.5152200000000 1.0
C      1  0.4547110000000  0.6022920000000  0.4559850000000 1.0
C      1  0.4423960000000  0.5249370000000  0.5058790000000 1.0
C      1  0.5887320000000  0.4364200000000  0.5117350000000 1.0
C      1  0.5004810000000  0.4691670000000  0.3832650000000 1.0
C      1  0.5839680000000  0.5745240000000  0.4747860000000 1.0
C      1  0.5254450000000  0.6052300000000  0.4434260000000 1.0
C      1  0.4735670000000  0.4495150000000  0.4516180000000 1.0
C      1  0.4333550000000  0.5732230000000  0.5566900000000 1.0
C      1  0.4953830000000  0.3945950000000  0.4766530000000 1.0
C      1  0.4240580000000  0.4450290000000  0.4532070000000 1.0
C      1  0.4099590000000  0.4689030000000  0.4572410000000 1.0
C      1  0.5167200000000  0.4928760000000  0.4442370000000 1.0
C      1  0.4628990000000  0.5405110000000  0.4448650000000 1.0
C      1  0.5270700000000  0.4501490000000  0.5307370000000 1.0
C      1  0.6060010000000  0.4636380000000  0.4753930000000 1.0
C      1  0.5208560000000  0.5311690000000  0.3994830000000 1.0
C      1  0.5065290000000  0.5490700000000  0.6108210000000 1.0
C      1  0.4030880000000  0.5165600000000  0.4520070000000 1.0
C      1  0.5480960000000  0.5195860000000  0.3981770000000 1.0
C      1  0.4379420000000  0.5512520000000  0.4927720000000 1.0
C      1  0.4570520000000  0.4893250000000  0.3852540000000 1.0
C      1  0.5802350000000  0.5515100000000  0.5728310000000 1.0
C      1  0.5462510000000  0.4740900000000  0.4759800000000 1.0
C      1  0.5883310000000  0.4937490000000  0.4302430000000 1.0
C      1  0.4383060000000  0.3975230000000  0.4980080000000 1.0
C      1  0.4154350000000  0.4782390000000  0.4292770000000 1.0
C      1  0.4893970000000  0.5379540000000  0.5095620000000 1.0
C      1  0.4570120000000  0.4043280000000  0.5444110000000 1.0
C      1  0.4114570000000  0.4765300000000  0.5351770000000 1.0
C      1  0.5426080000000  0.5276720000000  0.4692600000000 1.0
C      1  0.5626810000000  0.5115320000000  0.5580860000000 1.0
C      1  0.4811490000000  0.6103050000000  0.4485660000000 1.0
C      1  0.4697890000000  0.4976300000000  0.5659710000000 1.0
C      1  0.5907650000000  0.4963530000000  0.5834970000000 1.0
C      1  0.4943490000000  0.5683270000000  0.4822310000000 1.0
C      1  0.5326530000000  0.4779020000000  0.5235650000000 1.0
C      1  0.5373210000000  0.5435940000000  0.4947700000000 1.0
C      1  0.5743290000000  0.4570090000000  0.5218090000000 1.0
C      1  0.4260730000000  0.5292160000000  0.5884500000000 1.0
C      1  0.4935490000000  0.5063730000000  0.4342450000000 1.0
C      1  0.4651340000000  0.4953690000000  0.5941420000000 1.0
C      1  0.4769020000000  0.4734110000000  0.5537810000000 1.0
C      1  0.4793260000000  0.4086830000000  0.5634020000000 1.0
C      1  0.4490590000000  0.4430390000000  0.5865560000000 1.0
C      1  0.4395600000000  0.5700750000000  0.4188620000000 1.0
C      1  0.4865200000000  0.6021060000000  0.5199500000000 1.0
C      1  0.5763050000000  0.4394470000000  0.5671500000000 1.0
C      1  0.5183900000000  0.5889240000000  0.5812140000000 1.0
C      1  0.5151580000000  0.5027870000000  0.5709230000000 1.0
C      1  0.5486540000000  0.4456840000000  0.3946250000000 1.0
C      1  0.4860620000000  0.4070380000000  0.5040200000000 1.0
C      1  0.4716100000000  0.4237750000000  0.5870710000000 1.0
C      1  0.5316210000000  0.5492570000000  0.4507490000000 1.0
C      1  0.5238330000000  0.6164510000000  0.4700060000000 1.0
C      1  0.4562620000000  0.4774040000000  0.4863570000000 1.0
C      1  0.5601080000000  0.4779730000000  0.5074220000000 1.0
C      1  0.4739290000000  0.5738690000000  0.5212720000000 1.0
C      1  0.5035810000000  0.4923420000000  0.5166010000000 1.0
C      1  0.5312930000000  0.4802770000000  0.5570810000000 1.0
C      1  0.4663080000000  0.5284060000000  0.4004800000000 1.0
C      1  0.4703940000000  0.5216990000000  0.5494890000000 1.0
C      1  0.4303560000000  0.4159700000000  0.5479740000000 1.0
C      1  0.4182680000000  0.5532440000000  0.5728660000000 1.0
C      1  0.4370210000000  0.5867100000000  0.4419960000000 1.0
C      1  0.5392430000000  0.4321190000000  0.5894390000000 1.0
C      1  0.5170620000000  0.4389150000000  0.6093200000000 1.0
C      1  0.5140980000000  0.4120460000000  0.4105870000000 1.0
C      1  0.5533970000000  0.4716760000000  0.3806660000000 1.0
C      1  0.3969210000000  0.5524060000000  0.5522750000000 1.0
C      1  0.4491960000000  0.5205650000000  0.6051040000000 1.0
END
