TITL C-884139-6216-87 138.99811909499 125000 -21992.6464507312 0 0 151 (C1) n - 1
REM
REM in /home/nfs/bkarasulu/CARBON/AIRSS/Generating-Clusters/ReaxFF-fromJPCA2015/Units_Real/with-SteepDescent/Only-C1/SD-CG/Try1-3A/FIRE-CG
REM
REM
REM
REM
REM
REM ./C.cell (11c1c37f851c82e70ff6c80c92926a4b)
REM
REM compiler GCC version 9.2.1 20190827 (Red Hat 9.2.1-1)
REM options -cpp -mtune=generic -march=x86-64 -g -O0 -fpre-include=/usr/include/finclude/math-vector-fortran.h
REM seed -55578012 1438460549 2055007532 1656882929 515246014 2009798945 951817561 174192458 -1535999320 1040986146 582452855 -529021147 245890059 -1462153343 -620000717 138636315 -1860852859 1447861806 -1383337131 -756869352 1639203409 1909909697 -1559270936 -987062479 -1442425251 -22888981 -1874483594 -40591705 1092666240 1810395990 -144964493 212973916 -1825233701
REM
CELL 1.54180   50.00000   50.00000   50.00000   90.00000   90.00000   90.00000
LATT -1
SFAC C  
C      1  0.4546900000000  0.3961900000000  0.4867890000000 1.0
C      1  0.4316570000000  0.4321400000000  0.4506410000000 1.0
C      1  0.5276290000000  0.4140680000000  0.5050190000000 1.0
C      1  0.5107720000000  0.4706860000000  0.4825190000000 1.0
C      1  0.5994190000000  0.4856770000000  0.5323930000000 1.0
C      1  0.5461650000000  0.4965410000000  0.4192140000000 1.0
C      1  0.4151680000000  0.5174300000000  0.5449840000000 1.0
C      1  0.4544140000000  0.4414840000000  0.5785460000000 1.0
C      1  0.5214400000000  0.5433870000000  0.5331550000000 1.0
C      1  0.4872620000000  0.4664390000000  0.4662000000000 1.0
C      1  0.4025710000000  0.4938390000000  0.5345770000000 1.0
C      1  0.4827710000000  0.4374890000000  0.5842720000000 1.0
C      1  0.5755880000000  0.5229400000000  0.5026240000000 1.0
C      1  0.5236710000000  0.6054960000000  0.4663040000000 1.0
C      1  0.4551830000000  0.4096300000000  0.5368970000000 1.0
C      1  0.5337760000000  0.5689960000000  0.4281090000000 1.0
C      1  0.5242590000000  0.5760210000000  0.5037760000000 1.0
C      1  0.5544360000000  0.5067890000000  0.4916070000000 1.0
C      1  0.4929250000000  0.6040840000000  0.5007020000000 1.0
C      1  0.4945470000000  0.3933570000000  0.5237720000000 1.0
C      1  0.4666360000000  0.5393050000000  0.4081420000000 1.0
C      1  0.5085930000000  0.5866210000000  0.5511690000000 1.0
C      1  0.3956600000000  0.5049880000000  0.4795220000000 1.0
C      1  0.5639390000000  0.5292270000000  0.5557870000000 1.0
C      1  0.5041530000000  0.5503550000000  0.4661780000000 1.0
C      1  0.5410250000000  0.5125820000000  0.4662230000000 1.0
C      1  0.4558390000000  0.4802910000000  0.4247030000000 1.0
C      1  0.4663240000000  0.3945820000000  0.5171830000000 1.0
C      1  0.4151390000000  0.4507270000000  0.4670730000000 1.0
C      1  0.5230630000000  0.6030190000000  0.4953690000000 1.0
C      1  0.4444370000000  0.4101380000000  0.4657600000000 1.0
C      1  0.5599690000000  0.5536920000000  0.4363410000000 1.0
C      1  0.5295710000000  0.5116060000000  0.3988900000000 1.0
C      1  0.4272940000000  0.4372920000000  0.4929710000000 1.0
C      1  0.4980870000000  0.4855800000000  0.6042470000000 1.0
C      1  0.4786430000000  0.5850870000000  0.5461500000000 1.0
C      1  0.4751550000000  0.5893060000000  0.5182310000000 1.0
C      1  0.4429630000000  0.4263320000000  0.5549800000000 1.0
C      1  0.5916430000000  0.4375320000000  0.4764880000000 1.0
C      1  0.4379180000000  0.4960250000000  0.4111160000000 1.0
C      1  0.4589620000000  0.5652120000000  0.4765060000000 1.0
C      1  0.4906540000000  0.4539960000000  0.5265850000000 1.0
C      1  0.5222960000000  0.5006610000000  0.5970520000000 1.0
C      1  0.4410790000000  0.5199150000000  0.4663830000000 1.0
C      1  0.5707130000000  0.4569080000000  0.5621670000000 1.0
C      1  0.5753840000000  0.5566420000000  0.5529600000000 1.0
C      1  0.4605580000000  0.4882650000000  0.5158420000000 1.0
C      1  0.5339260000000  0.5306840000000  0.5569920000000 1.0
C      1  0.4850290000000  0.4417570000000  0.5001550000000 1.0
C      1  0.4056030000000  0.5494550000000  0.5038370000000 1.0
C      1  0.5178040000000  0.4624620000000  0.5345060000000 1.0
C      1  0.6057160000000  0.4824030000000  0.4902850000000 1.0
C      1  0.5138270000000  0.4602900000000  0.4278050000000 1.0
C      1  0.5346910000000  0.5537270000000  0.5798470000000 1.0
C      1  0.6134920000000  0.4652140000000  0.5139510000000 1.0
C      1  0.5584400000000  0.5670530000000  0.5730530000000 1.0
C      1  0.4917370000000  0.5025280000000  0.5522130000000 1.0
C      1  0.4576880000000  0.5384740000000  0.5114520000000 1.0
C      1  0.4820980000000  0.4929440000000  0.4549980000000 1.0
C      1  0.4863640000000  0.5349930000000  0.5753410000000 1.0
C      1  0.4974250000000  0.5420300000000  0.5205160000000 1.0
C      1  0.5155920000000  0.4648640000000  0.4000520000000 1.0
C      1  0.4529660000000  0.5685290000000  0.5049200000000 1.0
C      1  0.4771650000000  0.5424300000000  0.4715560000000 1.0
C      1  0.5558090000000  0.4107040000000  0.5001730000000 1.0
C      1  0.5242870000000  0.4094290000000  0.4504100000000 1.0
C      1  0.5711850000000  0.5053340000000  0.5718690000000 1.0
C      1  0.5278470000000  0.4766470000000  0.5575850000000 1.0
C      1  0.4989350000000  0.6138460000000  0.4555260000000 1.0
C      1  0.4567690000000  0.5147590000000  0.3965050000000 1.0
C      1  0.5397840000000  0.4618660000000  0.4772630000000 1.0
C      1  0.4682740000000  0.5179040000000  0.4572030000000 1.0
C      1  0.5015640000000  0.4166710000000  0.4351600000000 1.0
C      1  0.5113450000000  0.4903200000000  0.5027940000000 1.0
C      1  0.5074700000000  0.4924080000000  0.3898040000000 1.0
C      1  0.4994210000000  0.5007350000000  0.5255640000000 1.0
C      1  0.4101260000000  0.4797450000000  0.4698800000000 1.0
C      1  0.5643610000000  0.4433670000000  0.5369940000000 1.0
C      1  0.4697520000000  0.5203580000000  0.5575110000000 1.0
C      1  0.4038780000000  0.5341630000000  0.4786190000000 1.0
C      1  0.4029290000000  0.5407020000000  0.5324270000000 1.0
C      1  0.4399470000000  0.5668870000000  0.4550050000000 1.0
C      1  0.5693610000000  0.5269210000000  0.4346840000000 1.0
C      1  0.4203240000000  0.5619050000000  0.5398260000000 1.0
C      1  0.4795370000000  0.5323700000000  0.6028410000000 1.0
C      1  0.4240450000000  0.5421440000000  0.4583060000000 1.0
C      1  0.5221700000000  0.5779660000000  0.5738520000000 1.0
C      1  0.5646670000000  0.5756300000000  0.4560090000000 1.0
C      1  0.5971410000000  0.5039000000000  0.5092710000000 1.0
C      1  0.4141210000000  0.4683690000000  0.5445260000000 1.0
C      1  0.5095680000000  0.5591720000000  0.4147590000000 1.0
C      1  0.4299250000000  0.4694740000000  0.4172300000000 1.0
C      1  0.4146380000000  0.4752830000000  0.4987530000000 1.0
C      1  0.5672160000000  0.4198090000000  0.4749830000000 1.0
C      1  0.4824300000000  0.5034460000000  0.3931090000000 1.0
C      1  0.4820650000000  0.5316720000000  0.5024820000000 1.0
C      1  0.4395760000000  0.5527090000000  0.5585190000000 1.0
C      1  0.4476420000000  0.4703520000000  0.5828600000000 1.0
C      1  0.5496440000000  0.4994830000000  0.5900590000000 1.0
C      1  0.5063200000000  0.4242010000000  0.5712490000000 1.0
C      1  0.5380090000000  0.4515820000000  0.4146780000000 1.0
C      1  0.4506350000000  0.4984250000000  0.5862040000000 1.0
C      1  0.5786840000000  0.5527820000000  0.5030800000000 1.0
C      1  0.4359260000000  0.4934130000000  0.5058950000000 1.0
C      1  0.4744110000000  0.5035850000000  0.6026950000000 1.0
C      1  0.4674110000000  0.4546680000000  0.4249620000000 1.0
C      1  0.5102260000000  0.4048240000000  0.5487040000000 1.0
C      1  0.5536080000000  0.4773020000000  0.4984700000000 1.0
C      1  0.4611420000000  0.5785940000000  0.4375040000000 1.0
C      1  0.5919110000000  0.4668100000000  0.4681740000000 1.0
C      1  0.4398190000000  0.5226940000000  0.5620890000000 1.0
C      1  0.4755350000000  0.5572010000000  0.5883110000000 1.0
C      1  0.5181590000000  0.5285200000000  0.4598290000000 1.0
C      1  0.5513050000000  0.4253540000000  0.4518090000000 1.0
C      1  0.4773330000000  0.5615040000000  0.4185950000000 1.0
C      1  0.4739140000000  0.6020290000000  0.4495640000000 1.0
C      1  0.4647320000000  0.4659690000000  0.5329330000000 1.0
C      1  0.5059250000000  0.5064370000000  0.4459020000000 1.0
C      1  0.5113020000000  0.3891830000000  0.5000490000000 1.0
C      1  0.5322110000000  0.4937960000000  0.4451650000000 1.0
C      1  0.5175200000000  0.5029830000000  0.5658980000000 1.0
C      1  0.5601920000000  0.4143520000000  0.5298370000000 1.0
C      1  0.6046020000000  0.4425390000000  0.5001020000000 1.0
C      1  0.5401930000000  0.5896510000000  0.4478880000000 1.0
C      1  0.5447580000000  0.4612970000000  0.5763300000000 1.0
C      1  0.5840830000000  0.4822950000000  0.5569090000000 1.0
C      1  0.4409170000000  0.4429310000000  0.4247390000000 1.0
C      1  0.4841590000000  0.5021720000000  0.5031870000000 1.0
C      1  0.5241920000000  0.5703460000000  0.5311470000000 1.0
C      1  0.5006080000000  0.4568650000000  0.5980590000000 1.0
C      1  0.5241220000000  0.4425430000000  0.5868740000000 1.0
C      1  0.5140220000000  0.5629530000000  0.4846330000000 1.0
C      1  0.4422350000000  0.5187170000000  0.4960850000000 1.0
C      1  0.5758760000000  0.4720390000000  0.4448740000000 1.0
C      1  0.4800000000000  0.6129170000000  0.4760630000000 1.0
C      1  0.5047590000000  0.4018670000000  0.4732740000000 1.0
C      1  0.4385900000000  0.4525270000000  0.5403160000000 1.0
C      1  0.5192800000000  0.5355590000000  0.4066390000000 1.0
C      1  0.5734480000000  0.4990180000000  0.4301450000000 1.0
C      1  0.4620070000000  0.5689680000000  0.5652410000000 1.0
C      1  0.5452110000000  0.4611900000000  0.5227750000000 1.0
C      1  0.3918230000000  0.4925120000000  0.5056130000000 1.0
C      1  0.5583390000000  0.4493020000000  0.4362480000000 1.0
C      1  0.5765830000000  0.5709120000000  0.5259220000000 1.0
C      1  0.4243000000000  0.5701690000000  0.5128630000000 1.0
C      1  0.4898670000000  0.4480740000000  0.4416640000000 1.0
C      1  0.4569180000000  0.4376750000000  0.4945460000000 1.0
C      1  0.5605000000000  0.5917320000000  0.5090230000000 1.0
C      1  0.5365950000000  0.4114800000000  0.5452590000000 1.0
C      1  0.5660750000000  0.5727820000000  0.4852530000000 1.0
C      1  0.5083500000000  0.4279120000000  0.4867770000000 1.0
END
