TITL C-883729-9652-111 56.7523219262532 125000 -27555.3467900259 0 0 183 (C1) n - 1
REM
REM in /home/nfs/bkarasulu/CARBON/AIRSS/Generating-Clusters/ReaxFF-fromJPCA2015/Units_Real/with-SteepDescent/Only-C1/SD-CG/Try1-3A/FIRE-CG
REM
REM
REM
REM
REM
REM ./C.cell (11c1c37f851c82e70ff6c80c92926a4b)
REM
REM compiler GCC version 9.2.1 20190827 (Red Hat 9.2.1-1)
REM options -cpp -mtune=generic -march=x86-64 -g -O0 -fpre-include=/usr/include/finclude/math-vector-fortran.h
REM seed -1141270282 902031444 2004512332 1571488500 312423302 -1533210310 -985895144 -1828211852 1855668290 1426869141 -1810495296 -1507735399 1125557724 -1692535238 1831161971 1184373002 2050940897 1751706085 -570864635 301520589 -1438289430 -1784004085 -1109277397 742606698 1879206787 -1944434272 1178786783 -801036421 -1453524199 -1977573836 -2128758913 704982381 -1735146606
REM
CELL 1.54180   50.00000   50.00000   50.00000   90.00000   90.00000   90.00000
LATT -1
SFAC C  
C      1  0.5592620000000  0.4881520000000  0.5038630000000 1.0
C      1  0.5165660000000  0.4048110000000  0.4670300000000 1.0
C      1  0.4856000000000  0.5537960000000  0.4998510000000 1.0
C      1  0.6019370000000  0.4924550000000  0.4580130000000 1.0
C      1  0.5099650000000  0.4435400000000  0.4040680000000 1.0
C      1  0.5226470000000  0.4971050000000  0.4365760000000 1.0
C      1  0.5608420000000  0.5624070000000  0.4120850000000 1.0
C      1  0.4153420000000  0.5316010000000  0.5671700000000 1.0
C      1  0.4949110000000  0.4516810000000  0.5115790000000 1.0
C      1  0.4708060000000  0.4211020000000  0.4434910000000 1.0
C      1  0.4162300000000  0.5458890000000  0.4431800000000 1.0
C      1  0.5182820000000  0.5806640000000  0.4282810000000 1.0
C      1  0.4373100000000  0.4898380000000  0.4126790000000 1.0
C      1  0.5050520000000  0.5170580000000  0.5346800000000 1.0
C      1  0.5567980000000  0.4621710000000  0.5773860000000 1.0
C      1  0.5666280000000  0.4107330000000  0.5292070000000 1.0
C      1  0.4733910000000  0.4483130000000  0.6033020000000 1.0
C      1  0.4520830000000  0.5343260000000  0.5153320000000 1.0
C      1  0.3958730000000  0.5420170000000  0.4610030000000 1.0
C      1  0.4973110000000  0.4674850000000  0.5970440000000 1.0
C      1  0.5572440000000  0.4108920000000  0.5572710000000 1.0
C      1  0.5781850000000  0.5437920000000  0.4284160000000 1.0
C      1  0.5325720000000  0.5177580000000  0.5363760000000 1.0
C      1  0.4926290000000  0.5005500000000  0.5572140000000 1.0
C      1  0.5509280000000  0.5142000000000  0.4048220000000 1.0
C      1  0.5120710000000  0.4928100000000  0.4913190000000 1.0
C      1  0.5216010000000  0.6024210000000  0.4709280000000 1.0
C      1  0.4752950000000  0.5759790000000  0.4542210000000 1.0
C      1  0.5537450000000  0.5261570000000  0.4689600000000 1.0
C      1  0.4130710000000  0.4275460000000  0.5483890000000 1.0
C      1  0.4025360000000  0.5176710000000  0.5211870000000 1.0
C      1  0.4236220000000  0.5794720000000  0.5194930000000 1.0
C      1  0.4441680000000  0.4123280000000  0.5736050000000 1.0
C      1  0.4475380000000  0.4392910000000  0.4361300000000 1.0
C      1  0.6179990000000  0.5515560000000  0.5163980000000 1.0
C      1  0.4197710000000  0.4434690000000  0.4478860000000 1.0
C      1  0.5484630000000  0.5784760000000  0.5144660000000 1.0
C      1  0.5036280000000  0.5625990000000  0.5504450000000 1.0
C      1  0.5490570000000  0.4340050000000  0.5752050000000 1.0
C      1  0.4083100000000  0.4429340000000  0.4974670000000 1.0
C      1  0.5028960000000  0.5747350000000  0.4018030000000 1.0
C      1  0.4511310000000  0.3986600000000  0.5464320000000 1.0
C      1  0.5757420000000  0.5480900000000  0.4566040000000 1.0
C      1  0.6147810000000  0.4717990000000  0.4711900000000 1.0
C      1  0.4801450000000  0.4499870000000  0.4853170000000 1.0
C      1  0.4646330000000  0.4948100000000  0.6048640000000 1.0
C      1  0.5515670000000  0.5868430000000  0.5672830000000 1.0
C      1  0.4464640000000  0.5022050000000  0.5444260000000 1.0
C      1  0.4592060000000  0.4794750000000  0.5339110000000 1.0
C      1  0.4191470000000  0.5101030000000  0.5823840000000 1.0
C      1  0.5034710000000  0.5758490000000  0.4973090000000 1.0
C      1  0.4171350000000  0.4860240000000  0.4306910000000 1.0
C      1  0.4374050000000  0.4608840000000  0.5290200000000 1.0
C      1  0.4842800000000  0.5273000000000  0.4561460000000 1.0
C      1  0.4497890000000  0.4003320000000  0.4956420000000 1.0
C      1  0.4382060000000  0.5447180000000  0.4258780000000 1.0
C      1  0.4574840000000  0.4394690000000  0.5389370000000 1.0
C      1  0.5818570000000  0.4412190000000  0.4395170000000 1.0
C      1  0.4615050000000  0.5640770000000  0.4281790000000 1.0
C      1  0.5744840000000  0.4374190000000  0.5212150000000 1.0
C      1  0.5209090000000  0.3949140000000  0.5271590000000 1.0
C      1  0.5116730000000  0.4713130000000  0.3945890000000 1.0
C      1  0.5751150000000  0.5158340000000  0.4194910000000 1.0
C      1  0.5257930000000  0.5481970000000  0.4326180000000 1.0
C      1  0.5494270000000  0.4474140000000  0.5067890000000 1.0
C      1  0.4781390000000  0.3951690000000  0.4917650000000 1.0
C      1  0.4515650000000  0.4678050000000  0.6008350000000 1.0
C      1  0.5092690000000  0.5254520000000  0.4423440000000 1.0
C      1  0.5933090000000  0.5754800000000  0.4807200000000 1.0
C      1  0.5877950000000  0.4310270000000  0.4672270000000 1.0
C      1  0.4611620000000  0.5364590000000  0.5981860000000 1.0
C      1  0.5447780000000  0.5017300000000  0.4552390000000 1.0
C      1  0.5401120000000  0.6077830000000  0.5499850000000 1.0
C      1  0.5587790000000  0.5592460000000  0.5584800000000 1.0
C      1  0.5081650000000  0.4475960000000  0.4439930000000 1.0
C      1  0.4797340000000  0.3985180000000  0.5417140000000 1.0
C      1  0.4809370000000  0.4297150000000  0.5475830000000 1.0
C      1  0.5385660000000  0.4424980000000  0.4112520000000 1.0
C      1  0.4033860000000  0.5663110000000  0.4771660000000 1.0
C      1  0.6034290000000  0.4802750000000  0.5252140000000 1.0
C      1  0.5409450000000  0.4942920000000  0.5495680000000 1.0
C      1  0.4443410000000  0.5151690000000  0.6006990000000 1.0
C      1  0.5585580000000  0.5335290000000  0.5722760000000 1.0
C      1  0.5712690000000  0.5763070000000  0.4631400000000 1.0
C      1  0.4008140000000  0.5460890000000  0.5305800000000 1.0
C      1  0.4839030000000  0.4771390000000  0.5216740000000 1.0
C      1  0.4886330000000  0.4359510000000  0.4254180000000 1.0
C      1  0.4028950000000  0.5666100000000  0.5083960000000 1.0
C      1  0.5225900000000  0.4481030000000  0.5110640000000 1.0
C      1  0.4279300000000  0.5811030000000  0.4715890000000 1.0
C      1  0.4762670000000  0.5630700000000  0.4040850000000 1.0
C      1  0.4670810000000  0.4799160000000  0.4439830000000 1.0
C      1  0.5208530000000  0.4274320000000  0.5697930000000 1.0
C      1  0.4823500000000  0.4700620000000  0.4658550000000 1.0
C      1  0.4625030000000  0.5608330000000  0.5870650000000 1.0
C      1  0.4933690000000  0.5013140000000  0.5091610000000 1.0
C      1  0.4282010000000  0.4608670000000  0.5845720000000 1.0
C      1  0.5296460000000  0.5391930000000  0.4589690000000 1.0
C      1  0.5107580000000  0.5499830000000  0.5761270000000 1.0
C      1  0.4648330000000  0.5405800000000  0.5410560000000 1.0
C      1  0.4877460000000  0.4050570000000  0.4662810000000 1.0
C      1  0.5379260000000  0.5405450000000  0.4055030000000 1.0
C      1  0.5212680000000  0.5030420000000  0.5945880000000 1.0
C      1  0.4920490000000  0.5444290000000  0.5288030000000 1.0
C      1  0.6027610000000  0.4497010000000  0.4847910000000 1.0
C      1  0.5291730000000  0.4028110000000  0.5548020000000 1.0
C      1  0.6190360000000  0.4978020000000  0.4808340000000 1.0
C      1  0.4220090000000  0.4328660000000  0.5745980000000 1.0
C      1  0.4884920000000  0.5875790000000  0.5536000000000 1.0
C      1  0.4120800000000  0.4209590000000  0.5220980000000 1.0
C      1  0.4642080000000  0.5092100000000  0.4452170000000 1.0
C      1  0.5670210000000  0.4132570000000  0.4763890000000 1.0
C      1  0.3903400000000  0.4835340000000  0.4726270000000 1.0
C      1  0.5086060000000  0.4750350000000  0.4519400000000 1.0
C      1  0.5497960000000  0.5868350000000  0.4201450000000 1.0
C      1  0.5035750000000  0.4471470000000  0.5568540000000 1.0
C      1  0.3929970000000  0.4713240000000  0.4982540000000 1.0
C      1  0.4871260000000  0.5118580000000  0.3843320000000 1.0
C      1  0.5884580000000  0.4931130000000  0.4325830000000 1.0
C      1  0.3967690000000  0.5131860000000  0.4738050000000 1.0
C      1  0.4949730000000  0.4945060000000  0.6064540000000 1.0
C      1  0.5314540000000  0.5286290000000  0.5830690000000 1.0
C      1  0.4931930000000  0.4894830000000  0.3869080000000 1.0
C      1  0.5139150000000  0.5517900000000  0.3882870000000 1.0
C      1  0.4934420000000  0.3908060000000  0.5176070000000 1.0
C      1  0.5212440000000  0.4327420000000  0.4641250000000 1.0
C      1  0.4792410000000  0.5503760000000  0.4722540000000 1.0
C      1  0.5791270000000  0.4667450000000  0.4251950000000 1.0
C      1  0.5398700000000  0.4866720000000  0.5781670000000 1.0
C      1  0.4109160000000  0.4753760000000  0.5429740000000 1.0
C      1  0.4173700000000  0.5547920000000  0.5542260000000 1.0
C      1  0.4912100000000  0.5647690000000  0.5928540000000 1.0
C      1  0.6018460000000  0.5295240000000  0.5459210000000 1.0
C      1  0.5445200000000  0.5845930000000  0.4731910000000 1.0
C      1  0.4680450000000  0.5148250000000  0.5564020000000 1.0
C      1  0.5571720000000  0.5559930000000  0.5297270000000 1.0
C      1  0.5187140000000  0.6138020000000  0.4991670000000 1.0
C      1  0.5269900000000  0.6001190000000  0.5757080000000 1.0
C      1  0.5976290000000  0.4533780000000  0.5126810000000 1.0
C      1  0.4159320000000  0.4281510000000  0.4713100000000 1.0
C      1  0.4481280000000  0.5641600000000  0.5587740000000 1.0
C      1  0.5372650000000  0.6042610000000  0.5208590000000 1.0
C      1  0.5574610000000  0.4654840000000  0.4824420000000 1.0
C      1  0.4437960000000  0.4197430000000  0.4744310000000 1.0
C      1  0.4546150000000  0.5923650000000  0.4721020000000 1.0
C      1  0.5545800000000  0.4664010000000  0.4095720000000 1.0
C      1  0.5461650000000  0.4458540000000  0.4625640000000 1.0
C      1  0.5923080000000  0.4892870000000  0.5513080000000 1.0
C      1  0.5831730000000  0.5174880000000  0.5616330000000 1.0
C      1  0.6161170000000  0.5002010000000  0.5094760000000 1.0
C      1  0.5305420000000  0.4843240000000  0.4736170000000 1.0
C      1  0.6213340000000  0.5252840000000  0.5259580000000 1.0
C      1  0.5459500000000  0.3979850000000  0.5115450000000 1.0
C      1  0.5361320000000  0.4894620000000  0.4082910000000 1.0
C      1  0.5729030000000  0.4679930000000  0.5535590000000 1.0
C      1  0.4662910000000  0.5172290000000  0.4975850000000 1.0
C      1  0.4990510000000  0.5915070000000  0.5809890000000 1.0
C      1  0.5030430000000  0.5910060000000  0.4513110000000 1.0
C      1  0.4228280000000  0.5107970000000  0.4751390000000 1.0
C      1  0.4636750000000  0.6028560000000  0.4975130000000 1.0
C      1  0.4309770000000  0.5172820000000  0.5249700000000 1.0
C      1  0.4041860000000  0.4696940000000  0.4485540000000 1.0
C      1  0.4143590000000  0.4823570000000  0.5707450000000 1.0
C      1  0.5567280000000  0.4797770000000  0.5319360000000 1.0
C      1  0.5499990000000  0.5304280000000  0.5198880000000 1.0
C      1  0.4455040000000  0.5160130000000  0.4222230000000 1.0
C      1  0.5574340000000  0.5155010000000  0.4977890000000 1.0
C      1  0.4349290000000  0.4557670000000  0.5004580000000 1.0
C      1  0.4504200000000  0.5098370000000  0.4750400000000 1.0
C      1  0.4879670000000  0.5395990000000  0.3842900000000 1.0
C      1  0.5438140000000  0.3990740000000  0.4822220000000 1.0
C      1  0.4352590000000  0.4029090000000  0.5213850000000 1.0
C      1  0.6075750000000  0.5661630000000  0.4989790000000 1.0
C      1  0.3951680000000  0.4882150000000  0.5225090000000 1.0
C      1  0.4596320000000  0.5884590000000  0.5472610000000 1.0
C      1  0.4540000000000  0.4467970000000  0.4825910000000 1.0
C      1  0.4923960000000  0.6024230000000  0.5039110000000 1.0
C      1  0.4533880000000  0.4657230000000  0.4238670000000 1.0
C      1  0.4985760000000  0.4735810000000  0.5679760000000 1.0
C      1  0.4468330000000  0.5952860000000  0.5213500000000 1.0
C      1  0.5537460000000  0.4350080000000  0.4367560000000 1.0
C      1  0.4613910000000  0.4276000000000  0.5891350000000 1.0
C      1  0.5317510000000  0.5691290000000  0.4930430000000 1.0
END
