TITL C-883738-3659-358 22.5504397629564 125000 -17527.6353691839 0 0 120 (C1) n - 1
REM
REM in /home/nfs/bkarasulu/CARBON/AIRSS/Generating-Clusters/ReaxFF-fromJPCA2015/Units_Real/with-SteepDescent/Only-C1/SD-CG/Try1-3A/FIRE-CG
REM
REM
REM
REM
REM
REM ./C.cell (11c1c37f851c82e70ff6c80c92926a4b)
REM
REM compiler GCC version 9.2.1 20190827 (Red Hat 9.2.1-1)
REM options -cpp -mtune=generic -march=x86-64 -g -O0 -fpre-include=/usr/include/finclude/math-vector-fortran.h
REM seed 1544489157 13158607 -137125138 -525137500 566143059 1297127637 1929665158 -1270753066 -328287839 -149764760 632820135 -758502891 1473100418 190323519 -1200455268 -1030172989 2090159757 147744826 -590537632 -1017460938 -1387018190 -1876232294 -1425121586 519179589 165718697 -1649626837 -1382063545 -681939653 1362895657 -681358245 -1843073094 1548720093 1192268735
REM
CELL 1.54180   50.00000   50.00000   50.00000   90.00000   90.00000   90.00000
LATT -1
SFAC C  
C      1  0.5699470000000  0.4987800000000  0.5501750000000 1.0
C      1  0.4775250000000  0.5527160000000  0.4807650000000 1.0
C      1  0.5736600000000  0.5210780000000  0.4275780000000 1.0
C      1  0.4780420000000  0.5060800000000  0.4363140000000 1.0
C      1  0.4786820000000  0.5216870000000  0.4947380000000 1.0
C      1  0.5872850000000  0.5382680000000  0.4831780000000 1.0
C      1  0.4652440000000  0.4868990000000  0.4184320000000 1.0
C      1  0.4130610000000  0.4765160000000  0.4711610000000 1.0
C      1  0.5398590000000  0.5816110000000  0.5112600000000 1.0
C      1  0.5246810000000  0.4237840000000  0.4489220000000 1.0
C      1  0.4894150000000  0.4350990000000  0.5437460000000 1.0
C      1  0.5528940000000  0.4620880000000  0.5263360000000 1.0
C      1  0.4681440000000  0.5046080000000  0.5368540000000 1.0
C      1  0.5367100000000  0.5463270000000  0.4753780000000 1.0
C      1  0.5602880000000  0.5544410000000  0.5474980000000 1.0
C      1  0.4003850000000  0.4904420000000  0.4947900000000 1.0
C      1  0.5325300000000  0.4149920000000  0.5067420000000 1.0
C      1  0.5154410000000  0.4863460000000  0.3949870000000 1.0
C      1  0.4263010000000  0.5289760000000  0.4720110000000 1.0
C      1  0.4318320000000  0.5066900000000  0.4293960000000 1.0
C      1  0.4746210000000  0.6081440000000  0.5169760000000 1.0
C      1  0.5078410000000  0.5578230000000  0.4205970000000 1.0
C      1  0.4552470000000  0.5054580000000  0.5787160000000 1.0
C      1  0.4726640000000  0.4948010000000  0.4637150000000 1.0
C      1  0.4701460000000  0.4977330000000  0.6036930000000 1.0
C      1  0.4218410000000  0.4582440000000  0.5304660000000 1.0
C      1  0.5551720000000  0.5439470000000  0.4231800000000 1.0
C      1  0.4939680000000  0.5178810000000  0.5362110000000 1.0
C      1  0.5091780000000  0.4080080000000  0.5198720000000 1.0
C      1  0.5542950000000  0.4338620000000  0.5172530000000 1.0
C      1  0.5286810000000  0.5393240000000  0.4116420000000 1.0
C      1  0.5676410000000  0.4951170000000  0.4371700000000 1.0
C      1  0.5234290000000  0.4673050000000  0.4391480000000 1.0
C      1  0.5865990000000  0.4851800000000  0.4975120000000 1.0
C      1  0.5696420000000  0.5243910000000  0.5187220000000 1.0
C      1  0.5593290000000  0.5650310000000  0.4433370000000 1.0
C      1  0.4524520000000  0.5362800000000  0.5712520000000 1.0
C      1  0.4078540000000  0.4833520000000  0.5198710000000 1.0
C      1  0.5728560000000  0.5278800000000  0.5480430000000 1.0
C      1  0.4327660000000  0.5444320000000  0.4959640000000 1.0
C      1  0.4365120000000  0.5308990000000  0.4434590000000 1.0
C      1  0.5646110000000  0.5687580000000  0.5227100000000 1.0
C      1  0.5003040000000  0.4386010000000  0.5725460000000 1.0
C      1  0.4941760000000  0.4993250000000  0.4819880000000 1.0
C      1  0.5289770000000  0.4836700000000  0.5201640000000 1.0
C      1  0.4095630000000  0.5056800000000  0.4729900000000 1.0
C      1  0.5892620000000  0.5072080000000  0.4506630000000 1.0
C      1  0.5300370000000  0.5573890000000  0.5487250000000 1.0
C      1  0.5876550000000  0.4586030000000  0.4821040000000 1.0
C      1  0.4206750000000  0.4653850000000  0.4454920000000 1.0
C      1  0.4945350000000  0.4538410000000  0.4394470000000 1.0
C      1  0.5651350000000  0.5488500000000  0.4668030000000 1.0
C      1  0.4615170000000  0.5883320000000  0.5017960000000 1.0
C      1  0.4250450000000  0.4925930000000  0.5785420000000 1.0
C      1  0.4574900000000  0.4215080000000  0.5142900000000 1.0
C      1  0.4892950000000  0.5598950000000  0.5731500000000 1.0
C      1  0.4317210000000  0.4428920000000  0.4551330000000 1.0
C      1  0.4618030000000  0.4700500000000  0.4732420000000 1.0
C      1  0.4760550000000  0.4914750000000  0.5609770000000 1.0
C      1  0.4468140000000  0.4500720000000  0.5176900000000 1.0
C      1  0.4369110000000  0.4657500000000  0.5823570000000 1.0
C      1  0.4496210000000  0.5472710000000  0.5445870000000 1.0
C      1  0.4742080000000  0.5653540000000  0.5480590000000 1.0
C      1  0.4499490000000  0.4233950000000  0.4624470000000 1.0
C      1  0.5327400000000  0.5043000000000  0.4726910000000 1.0
C      1  0.4385950000000  0.4802310000000  0.4227150000000 1.0
C      1  0.5155040000000  0.5236890000000  0.5901710000000 1.0
C      1  0.4928170000000  0.4483160000000  0.5175000000000 1.0
C      1  0.5678190000000  0.4493720000000  0.4606990000000 1.0
C      1  0.5165710000000  0.5003910000000  0.5416320000000 1.0
C      1  0.4321480000000  0.5357910000000  0.5233380000000 1.0
C      1  0.5299280000000  0.4377010000000  0.5798260000000 1.0
C      1  0.4323200000000  0.4576430000000  0.5564240000000 1.0
C      1  0.4511410000000  0.4138030000000  0.4885060000000 1.0
C      1  0.5430910000000  0.4450340000000  0.4421010000000 1.0
C      1  0.5422830000000  0.4849150000000  0.4541490000000 1.0
C      1  0.4545610000000  0.4740090000000  0.5012330000000 1.0
C      1  0.5116180000000  0.5073550000000  0.4393210000000 1.0
C      1  0.5251940000000  0.4555920000000  0.4823210000000 1.0
C      1  0.4807350000000  0.5530640000000  0.4313980000000 1.0
C      1  0.4884660000000  0.5200880000000  0.6021820000000 1.0
C      1  0.5034570000000  0.4736000000000  0.4864300000000 1.0
C      1  0.5154000000000  0.5479390000000  0.5742060000000 1.0
C      1  0.4162410000000  0.5032080000000  0.5546700000000 1.0
C      1  0.5211310000000  0.5441240000000  0.5210010000000 1.0
C      1  0.5208750000000  0.5104540000000  0.4118760000000 1.0
C      1  0.4732090000000  0.5427030000000  0.5902560000000 1.0
C      1  0.5196410000000  0.5832350000000  0.5326180000000 1.0
C      1  0.5908700000000  0.5087160000000  0.4801980000000 1.0
C      1  0.4756370000000  0.4439760000000  0.4667450000000 1.0
C      1  0.5383420000000  0.5824850000000  0.4553700000000 1.0
C      1  0.4603870000000  0.5009640000000  0.5097680000000 1.0
C      1  0.5827570000000  0.5495490000000  0.5094240000000 1.0
C      1  0.4526930000000  0.5658210000000  0.4875940000000 1.0
C      1  0.4759900000000  0.4622430000000  0.4186120000000 1.0
C      1  0.5269870000000  0.4975390000000  0.5823550000000 1.0
C      1  0.4903430000000  0.5838400000000  0.5319320000000 1.0
C      1  0.4643720000000  0.4691690000000  0.5979880000000 1.0
C      1  0.5324840000000  0.5743710000000  0.4835270000000 1.0
C      1  0.5024600000000  0.4604550000000  0.4007160000000 1.0
C      1  0.5757820000000  0.4398840000000  0.4999620000000 1.0
C      1  0.5124910000000  0.5754470000000  0.4437070000000 1.0
C      1  0.4641740000000  0.5318630000000  0.4323490000000 1.0
C      1  0.5046670000000  0.4877020000000  0.5647200000000 1.0
C      1  0.5745350000000  0.4813000000000  0.5248620000000 1.0
C      1  0.4124810000000  0.5111450000000  0.5280730000000 1.0
C      1  0.5012930000000  0.4758540000000  0.5135960000000 1.0
C      1  0.5195680000000  0.5265380000000  0.4604770000000 1.0
C      1  0.4832220000000  0.4538200000000  0.5863240000000 1.0
C      1  0.5496990000000  0.4670120000000  0.4746960000000 1.0
C      1  0.5412570000000  0.5279170000000  0.5120920000000 1.0
C      1  0.5063820000000  0.4323900000000  0.4299380000000 1.0
C      1  0.5410350000000  0.5025900000000  0.5001700000000 1.0
C      1  0.4940660000000  0.5368500000000  0.5149930000000 1.0
C      1  0.5476190000000  0.4609760000000  0.5780240000000 1.0
C      1  0.4830440000000  0.4101230000000  0.5301460000000 1.0
C      1  0.4872740000000  0.5648340000000  0.4562420000000 1.0
C      1  0.4901050000000  0.4341740000000  0.4910680000000 1.0
C      1  0.5541130000000  0.4895360000000  0.5733690000000 1.0
C      1  0.5183760000000  0.4259410000000  0.4807390000000 1.0
END
