TITL C-883728-9229-232 -9.89679220259346 125000 -17082.1728468854 0 0 114 (C1) n - 1
REM
REM in /home/nfs/bkarasulu/CARBON/AIRSS/Generating-Clusters/ReaxFF-fromJPCA2015/Units_Real/with-SteepDescent/Only-C1/SD-CG/Try1-3A/FIRE-CG
REM
REM
REM
REM
REM
REM ./C.cell (11c1c37f851c82e70ff6c80c92926a4b)
REM
REM compiler GCC version 9.2.1 20190827 (Red Hat 9.2.1-1)
REM options -cpp -mtune=generic -march=x86-64 -g -O0 -fpre-include=/usr/include/finclude/math-vector-fortran.h
REM seed 1860344486 -770706541 1685423185 109675246 -1676180020 -1074488852 679309512 249174648 946900421 -1114697562 -502394167 1106289523 -114050192 1661058537 1772729022 -1808304882 -524680712 22132572 82747934 -135914580 -669277453 -457861396 -349792378 1677291515 -813206555 878070155 -1271497347 1001332865 757835291 -676792898 124946102 -1449128713 683050777
REM
CELL 1.54180   50.00000   50.00000   50.00000   90.00000   90.00000   90.00000
LATT -1
SFAC C  
C      1  0.5617590000000  0.5011140000000  0.5090760000000 1.0
C      1  0.5641430000000  0.5605300000000  0.4873680000000 1.0
C      1  0.5460260000000  0.5083140000000  0.5511520000000 1.0
C      1  0.4711610000000  0.4735200000000  0.4499990000000 1.0
C      1  0.5562430000000  0.5000750000000  0.4329570000000 1.0
C      1  0.5180850000000  0.4326740000000  0.5692910000000 1.0
C      1  0.4616710000000  0.4802690000000  0.4767080000000 1.0
C      1  0.4262490000000  0.5059530000000  0.5623490000000 1.0
C      1  0.5691300000000  0.5036610000000  0.5363740000000 1.0
C      1  0.5344850000000  0.5532300000000  0.4400780000000 1.0
C      1  0.5355970000000  0.4776210000000  0.5817650000000 1.0
C      1  0.4743770000000  0.5400820000000  0.5020180000000 1.0
C      1  0.4800040000000  0.4834840000000  0.4989910000000 1.0
C      1  0.4181650000000  0.5318320000000  0.5047500000000 1.0
C      1  0.5006910000000  0.4539430000000  0.5288590000000 1.0
C      1  0.4840980000000  0.4123460000000  0.5144450000000 1.0
C      1  0.5691360000000  0.4579130000000  0.4883100000000 1.0
C      1  0.5428190000000  0.4773040000000  0.5016470000000 1.0
C      1  0.4806870000000  0.4992060000000  0.4408010000000 1.0
C      1  0.4762220000000  0.4277190000000  0.4574660000000 1.0
C      1  0.4280650000000  0.5338330000000  0.5630780000000 1.0
C      1  0.5193880000000  0.5346310000000  0.5176690000000 1.0
C      1  0.4937930000000  0.4775620000000  0.5614580000000 1.0
C      1  0.5922820000000  0.4686490000000  0.5070060000000 1.0
C      1  0.5595120000000  0.5541740000000  0.5392670000000 1.0
C      1  0.5417100000000  0.4277140000000  0.5556120000000 1.0
C      1  0.5287000000000  0.5408370000000  0.5774180000000 1.0
C      1  0.4847660000000  0.5032990000000  0.4121100000000 1.0
C      1  0.5288120000000  0.4003450000000  0.5094850000000 1.0
C      1  0.4777900000000  0.4201090000000  0.5429160000000 1.0
C      1  0.4990470000000  0.4362390000000  0.5078830000000 1.0
C      1  0.5606640000000  0.4301350000000  0.4824060000000 1.0
C      1  0.5783900000000  0.4717940000000  0.4624450000000 1.0
C      1  0.4159850000000  0.4841540000000  0.5144560000000 1.0
C      1  0.4719880000000  0.5858850000000  0.4655960000000 1.0
C      1  0.5574830000000  0.5440230000000  0.4591500000000 1.0
C      1  0.5066610000000  0.5206720000000  0.5829620000000 1.0
C      1  0.5012410000000  0.5528720000000  0.5026110000000 1.0
C      1  0.4430920000000  0.5541830000000  0.5474160000000 1.0
C      1  0.4305370000000  0.5723260000000  0.4839740000000 1.0
C      1  0.4991840000000  0.5914450000000  0.5350610000000 1.0
C      1  0.5407210000000  0.4506370000000  0.4387440000000 1.0
C      1  0.5393840000000  0.4493500000000  0.5755980000000 1.0
C      1  0.4924990000000  0.5598360000000  0.5810130000000 1.0
C      1  0.5805070000000  0.4849010000000  0.5559440000000 1.0
C      1  0.4645980000000  0.4833880000000  0.5481310000000 1.0
C      1  0.5865520000000  0.4995430000000  0.4667780000000 1.0
C      1  0.4439000000000  0.4486550000000  0.5188940000000 1.0
C      1  0.5168330000000  0.5707000000000  0.4536700000000 1.0
C      1  0.4169030000000  0.4923840000000  0.4354460000000 1.0
C      1  0.5130740000000  0.4590340000000  0.4295640000000 1.0
C      1  0.4277530000000  0.5102440000000  0.5218000000000 1.0
C      1  0.5897540000000  0.4695660000000  0.5348830000000 1.0
C      1  0.4189160000000  0.4742460000000  0.4872710000000 1.0
C      1  0.5572750000000  0.4956320000000  0.5737620000000 1.0
C      1  0.5437420000000  0.5761460000000  0.5299230000000 1.0
C      1  0.4951850000000  0.4433830000000  0.5566140000000 1.0
C      1  0.5530850000000  0.4135360000000  0.5043520000000 1.0
C      1  0.4916030000000  0.5170480000000  0.4597530000000 1.0
C      1  0.5115260000000  0.4851750000000  0.4168140000000 1.0
C      1  0.4421460000000  0.4616480000000  0.4469240000000 1.0
C      1  0.5460420000000  0.5277440000000  0.5056450000000 1.0
C      1  0.5609370000000  0.4715270000000  0.4393540000000 1.0
C      1  0.4882040000000  0.4486670000000  0.4416600000000 1.0
C      1  0.4349660000000  0.4794400000000  0.5577510000000 1.0
C      1  0.5701290000000  0.5471630000000  0.5125290000000 1.0
C      1  0.5218700000000  0.5625530000000  0.4823010000000 1.0
C      1  0.4339430000000  0.4500970000000  0.4875480000000 1.0
C      1  0.5091730000000  0.4907580000000  0.5824610000000 1.0
C      1  0.5252380000000  0.4713850000000  0.5243330000000 1.0
C      1  0.4534420000000  0.5442710000000  0.4496420000000 1.0
C      1  0.5021270000000  0.4728410000000  0.4841810000000 1.0
C      1  0.4474900000000  0.4388470000000  0.4635720000000 1.0
C      1  0.4538050000000  0.5608160000000  0.5212500000000 1.0
C      1  0.4584570000000  0.5325180000000  0.5569680000000 1.0
C      1  0.5238590000000  0.4853740000000  0.4793410000000 1.0
C      1  0.4698840000000  0.4667500000000  0.5231990000000 1.0
C      1  0.4645700000000  0.5890560000000  0.5144800000000 1.0
C      1  0.5181560000000  0.5683400000000  0.5742210000000 1.0
C      1  0.5171760000000  0.5120930000000  0.4713910000000 1.0
C      1  0.4742760000000  0.5533460000000  0.4315580000000 1.0
C      1  0.5443990000000  0.5770710000000  0.4993470000000 1.0
C      1  0.5515970000000  0.5343690000000  0.5607260000000 1.0
C      1  0.5173380000000  0.4267860000000  0.4636020000000 1.0
C      1  0.4147450000000  0.5288000000000  0.4759260000000 1.0
C      1  0.5355190000000  0.5339180000000  0.4784890000000 1.0
C      1  0.4199480000000  0.4996320000000  0.4668610000000 1.0
C      1  0.4498470000000  0.4222100000000  0.5369130000000 1.0
C      1  0.5305930000000  0.5059150000000  0.4199110000000 1.0
C      1  0.4286000000000  0.5517100000000  0.4630720000000 1.0
C      1  0.5397650000000  0.4195310000000  0.5281010000000 1.0
C      1  0.4566220000000  0.5105210000000  0.5355070000000 1.0
C      1  0.4573390000000  0.4912650000000  0.4040790000000 1.0
C      1  0.5223360000000  0.5855000000000  0.5490280000000 1.0
C      1  0.5105140000000  0.4474980000000  0.4848150000000 1.0
C      1  0.4669210000000  0.5276640000000  0.4720040000000 1.0
C      1  0.4956580000000  0.4080520000000  0.4694030000000 1.0
C      1  0.4886280000000  0.5770330000000  0.4456200000000 1.0
C      1  0.4781240000000  0.5148870000000  0.5159860000000 1.0
C      1  0.5701370000000  0.5179320000000  0.4507690000000 1.0
C      1  0.4364040000000  0.4787350000000  0.4190960000000 1.0
C      1  0.4923120000000  0.5835170000000  0.5112870000000 1.0
C      1  0.5023100000000  0.3977400000000  0.4965340000000 1.0
C      1  0.5152330000000  0.4919590000000  0.5415820000000 1.0
C      1  0.4481870000000  0.5047330000000  0.4738520000000 1.0
C      1  0.5889490000000  0.4955400000000  0.4954870000000 1.0
C      1  0.5202010000000  0.5346050000000  0.4224460000000 1.0
C      1  0.4245240000000  0.4649850000000  0.5346590000000 1.0
C      1  0.4538250000000  0.5909030000000  0.4863940000000 1.0
C      1  0.4272090000000  0.5595010000000  0.5096710000000 1.0
C      1  0.5036280000000  0.5153180000000  0.5288410000000 1.0
C      1  0.4919320000000  0.5345190000000  0.4186600000000 1.0
C      1  0.5459200000000  0.4286190000000  0.4574880000000 1.0
C      1  0.4811930000000  0.5347230000000  0.5802010000000 1.0
END
