TITL C-884138-6203-167 96.5177611347358 125000 -20258.1427125039 0 0 138 (C1) n - 1
REM
REM in /home/nfs/bkarasulu/CARBON/AIRSS/Generating-Clusters/ReaxFF-fromJPCA2015/Units_Real/with-SteepDescent/Only-C1/SD-CG/Try1-3A/FIRE-CG
REM
REM
REM
REM
REM
REM ./C.cell (11c1c37f851c82e70ff6c80c92926a4b)
REM
REM compiler GCC version 9.2.1 20190827 (Red Hat 9.2.1-1)
REM options -cpp -mtune=generic -march=x86-64 -g -O0 -fpre-include=/usr/include/finclude/math-vector-fortran.h
REM seed 1960544279 -1723800017 235406604 -860635063 -615760963 1733911775 -1447247847 1859955923 -2041923550 466097143 1860280553 -1491415553 1660747291 -54889053 1934100839 490481689 1992656066 508096665 245674323 747678695 832780726 -1058273174 1246223438 1681576114 -1168130158 1004141494 -1847031972 -897953454 102267665 1999681750 75513692 1953374822 1277607412
REM
CELL 1.54180   50.00000   50.00000   50.00000   90.00000   90.00000   90.00000
LATT -1
SFAC C  
C      1  0.4838930000000  0.4851500000000  0.5337820000000 1.0
C      1  0.4375520000000  0.4928640000000  0.5515260000000 1.0
C      1  0.5122860000000  0.5294220000000  0.5018030000000 1.0
C      1  0.5870720000000  0.4342090000000  0.4780990000000 1.0
C      1  0.4907460000000  0.4411260000000  0.5552630000000 1.0
C      1  0.4927440000000  0.4287460000000  0.5286900000000 1.0
C      1  0.4355130000000  0.4665520000000  0.5372210000000 1.0
C      1  0.5376910000000  0.5160960000000  0.4119000000000 1.0
C      1  0.5040120000000  0.5244170000000  0.4477370000000 1.0
C      1  0.4233880000000  0.5711720000000  0.4955730000000 1.0
C      1  0.5248690000000  0.4687180000000  0.4315350000000 1.0
C      1  0.4424700000000  0.5827420000000  0.5138300000000 1.0
C      1  0.4557040000000  0.5266790000000  0.5048900000000 1.0
C      1  0.4216330000000  0.4676110000000  0.5091320000000 1.0
C      1  0.4666310000000  0.5684440000000  0.5028680000000 1.0
C      1  0.5197000000000  0.5391150000000  0.4258560000000 1.0
C      1  0.5224390000000  0.5582460000000  0.4751950000000 1.0
C      1  0.5593390000000  0.5605550000000  0.4378830000000 1.0
C      1  0.4852690000000  0.5558280000000  0.5769080000000 1.0
C      1  0.4613920000000  0.4447910000000  0.5610160000000 1.0
C      1  0.4821910000000  0.4674160000000  0.4053940000000 1.0
C      1  0.4113220000000  0.5179290000000  0.5182800000000 1.0
C      1  0.5562240000000  0.4309420000000  0.5073690000000 1.0
C      1  0.4485030000000  0.4014120000000  0.5041490000000 1.0
C      1  0.5629760000000  0.5564480000000  0.5237580000000 1.0
C      1  0.5856890000000  0.5005910000000  0.4367410000000 1.0
C      1  0.5120890000000  0.4827920000000  0.5431400000000 1.0
C      1  0.4903090000000  0.5059880000000  0.4321040000000 1.0
C      1  0.4979680000000  0.5763430000000  0.5594140000000 1.0
C      1  0.5502420000000  0.4909300000000  0.5160640000000 1.0
C      1  0.5143480000000  0.4503690000000  0.4760900000000 1.0
C      1  0.4666900000000  0.4877080000000  0.4674640000000 1.0
C      1  0.4663090000000  0.5050120000000  0.5477980000000 1.0
C      1  0.5455840000000  0.5126270000000  0.4711060000000 1.0
C      1  0.4743390000000  0.4812830000000  0.5784640000000 1.0
C      1  0.6021090000000  0.5147130000000  0.4791170000000 1.0
C      1  0.5193490000000  0.4702980000000  0.5907160000000 1.0
C      1  0.4972910000000  0.5400090000000  0.5245860000000 1.0
C      1  0.5421070000000  0.5405960000000  0.4677530000000 1.0
C      1  0.4607110000000  0.5997000000000  0.4764950000000 1.0
C      1  0.5973930000000  0.4927450000000  0.5438070000000 1.0
C      1  0.4896840000000  0.5080610000000  0.4020520000000 1.0
C      1  0.4411510000000  0.5000890000000  0.4291190000000 1.0
C      1  0.5327450000000  0.5660940000000  0.4340460000000 1.0
C      1  0.5314610000000  0.5458740000000  0.5694770000000 1.0
C      1  0.4717050000000  0.3935350000000  0.4473550000000 1.0
C      1  0.4756710000000  0.5052760000000  0.4869430000000 1.0
C      1  0.4218330000000  0.4439750000000  0.4839320000000 1.0
C      1  0.4366610000000  0.4192060000000  0.4819430000000 1.0
C      1  0.4864720000000  0.6006040000000  0.5460040000000 1.0
C      1  0.4919010000000  0.4891610000000  0.5053830000000 1.0
C      1  0.5111190000000  0.4726880000000  0.4052840000000 1.0
C      1  0.4240310000000  0.4913650000000  0.4497840000000 1.0
C      1  0.4687080000000  0.5448600000000  0.4862970000000 1.0
C      1  0.5178920000000  0.5013090000000  0.3974000000000 1.0
C      1  0.4338350000000  0.5842550000000  0.5437030000000 1.0
C      1  0.5926330000000  0.5192660000000  0.5314030000000 1.0
C      1  0.5586780000000  0.4328110000000  0.5371540000000 1.0
C      1  0.4650980000000  0.5173010000000  0.5934590000000 1.0
C      1  0.4597640000000  0.5414980000000  0.5809710000000 1.0
C      1  0.5805640000000  0.4503800000000  0.4555590000000 1.0
C      1  0.5892780000000  0.4383470000000  0.5317720000000 1.0
C      1  0.4553010000000  0.4718630000000  0.4183620000000 1.0
C      1  0.5824060000000  0.5499720000000  0.4496990000000 1.0
C      1  0.4962790000000  0.4295440000000  0.4870660000000 1.0
C      1  0.4987000000000  0.3997150000000  0.4885660000000 1.0
C      1  0.4811220000000  0.4309600000000  0.4616120000000 1.0
C      1  0.5850050000000  0.4240430000000  0.5040670000000 1.0
C      1  0.5959060000000  0.5234550000000  0.4516540000000 1.0
C      1  0.5929850000000  0.4773970000000  0.4533570000000 1.0
C      1  0.5362310000000  0.4939740000000  0.5896210000000 1.0
C      1  0.5719810000000  0.4772260000000  0.4991190000000 1.0
C      1  0.4450390000000  0.4178700000000  0.5276880000000 1.0
C      1  0.5098370000000  0.4693420000000  0.4980100000000 1.0
C      1  0.5521320000000  0.4583220000000  0.4617930000000 1.0
C      1  0.5245370000000  0.5671710000000  0.5502680000000 1.0
C      1  0.5096530000000  0.5748980000000  0.4534720000000 1.0
C      1  0.4763950000000  0.3909620000000  0.5056100000000 1.0
C      1  0.4321760000000  0.5380560000000  0.5643090000000 1.0
C      1  0.4906460000000  0.3985350000000  0.5301740000000 1.0
C      1  0.4558540000000  0.4157400000000  0.4589300000000 1.0
C      1  0.4922500000000  0.5514760000000  0.4140200000000 1.0
C      1  0.5783490000000  0.5501190000000  0.4997770000000 1.0
C      1  0.5573810000000  0.5325110000000  0.5680520000000 1.0
C      1  0.4517860000000  0.5263500000000  0.4223860000000 1.0
C      1  0.4150410000000  0.5066620000000  0.4725920000000 1.0
C      1  0.4936220000000  0.5298090000000  0.4765740000000 1.0
C      1  0.5511330000000  0.4926090000000  0.5460320000000 1.0
C      1  0.4354270000000  0.5562860000000  0.4574180000000 1.0
C      1  0.5385720000000  0.4404870000000  0.5549020000000 1.0
C      1  0.4710360000000  0.5277450000000  0.5307340000000 1.0
C      1  0.4978220000000  0.3898070000000  0.4607840000000 1.0
C      1  0.5747940000000  0.4896620000000  0.5623630000000 1.0
C      1  0.4535840000000  0.4156500000000  0.5559900000000 1.0
C      1  0.4735290000000  0.5317370000000  0.4035700000000 1.0
C      1  0.5976990000000  0.5291380000000  0.5043400000000 1.0
C      1  0.4941810000000  0.4120390000000  0.4423270000000 1.0
C      1  0.5268830000000  0.5781110000000  0.4963110000000 1.0
C      1  0.4190110000000  0.5359800000000  0.4715330000000 1.0
C      1  0.5538140000000  0.4562970000000  0.4911690000000 1.0
C      1  0.5577720000000  0.5003630000000  0.4260490000000 1.0
C      1  0.4237420000000  0.5403750000000  0.5003400000000 1.0
C      1  0.5668970000000  0.5458220000000  0.4742650000000 1.0
C      1  0.4827550000000  0.4816480000000  0.4464110000000 1.0
C      1  0.5930160000000  0.4869200000000  0.4810780000000 1.0
C      1  0.4274810000000  0.4598220000000  0.4574500000000 1.0
C      1  0.4111730000000  0.4957870000000  0.5001440000000 1.0
C      1  0.5110570000000  0.5963980000000  0.4794430000000 1.0
C      1  0.5070890000000  0.5385040000000  0.5848470000000 1.0
C      1  0.4485150000000  0.4911050000000  0.5839040000000 1.0
C      1  0.4835380000000  0.5652290000000  0.4369690000000 1.0
C      1  0.5729880000000  0.5372680000000  0.5437980000000 1.0
C      1  0.4487010000000  0.4733390000000  0.4994690000000 1.0
C      1  0.5379380000000  0.5709920000000  0.5240190000000 1.0
C      1  0.4961330000000  0.4861190000000  0.5970060000000 1.0
C      1  0.4270030000000  0.5576770000000  0.5507950000000 1.0
C      1  0.5444240000000  0.4855440000000  0.4487160000000 1.0
C      1  0.4596240000000  0.4628990000000  0.5228890000000 1.0
C      1  0.5163280000000  0.4479600000000  0.5702500000000 1.0
C      1  0.4914500000000  0.5678800000000  0.5163370000000 1.0
C      1  0.5619280000000  0.5068740000000  0.5825320000000 1.0
C      1  0.4751650000000  0.3950600000000  0.5560560000000 1.0
C      1  0.4370080000000  0.5830160000000  0.4714880000000 1.0
C      1  0.6012110000000  0.4645270000000  0.5342700000000 1.0
C      1  0.5050740000000  0.4634050000000  0.4512630000000 1.0
C      1  0.4533400000000  0.4665760000000  0.4735720000000 1.0
C      1  0.4662380000000  0.4358440000000  0.5175930000000 1.0
C      1  0.4576350000000  0.5506980000000  0.4393310000000 1.0
C      1  0.4397740000000  0.4502840000000  0.4297850000000 1.0
C      1  0.4551760000000  0.4621630000000  0.5834920000000 1.0
C      1  0.4937220000000  0.5155670000000  0.5979220000000 1.0
C      1  0.5257330000000  0.4731670000000  0.5208850000000 1.0
C      1  0.5352330000000  0.5130380000000  0.4979500000000 1.0
C      1  0.5277970000000  0.4987750000000  0.5610420000000 1.0
C      1  0.4856080000000  0.6064520000000  0.4905700000000 1.0
C      1  0.4948450000000  0.5966590000000  0.5175740000000 1.0
C      1  0.4197950000000  0.5174380000000  0.5461340000000 1.0
C      1  0.4600210000000  0.5929970000000  0.5505490000000 1.0
END
