TITL C-883737-113-366 13.0727191789689 125000 -7635.18320359176 0 0 53 (C1) n - 1
REM
REM in /home/nfs/bkarasulu/CARBON/AIRSS/Generating-Clusters/ReaxFF-fromJPCA2015/Units_Real/with-SteepDescent/Only-C1/SD-CG/Try1-3A/FIRE-CG
REM
REM
REM
REM
REM
REM ./C.cell (11c1c37f851c82e70ff6c80c92926a4b)
REM
REM compiler GCC version 9.2.1 20190827 (Red Hat 9.2.1-1)
REM options -cpp -mtune=generic -march=x86-64 -g -O0 -fpre-include=/usr/include/finclude/math-vector-fortran.h
REM seed -1947982292 -524784983 -947176706 -83410816 -600420347 -628476605 -802304519 363926550 -213124677 189832628 444406785 659848401 746429248 -475347534 1895492939 779628373 -1379819841 -1403458318 -598652401 -1675570443 -653618253 820686453 -576061928 2093976319 1643867575 1252111967 1750471668 -236006072 -1819194203 -774654892 -1603570785 441540935 -1576848424
REM
CELL 1.54180   50.00000   50.00000   50.00000   90.00000   90.00000   90.00000
LATT -1
SFAC C  
C      1  0.5079750000000  0.4850310000000  0.5234800000000 1.0
C      1  0.4799810000000  0.5032070000000  0.4323000000000 1.0
C      1  0.4848570000000  0.4553960000000  0.4534220000000 1.0
C      1  0.4692800000000  0.4505780000000  0.4783770000000 1.0
C      1  0.5412520000000  0.4546790000000  0.4885780000000 1.0
C      1  0.5171810000000  0.5283150000000  0.5648060000000 1.0
C      1  0.4588130000000  0.5290440000000  0.5538390000000 1.0
C      1  0.5493030000000  0.4616510000000  0.5160680000000 1.0
C      1  0.4502890000000  0.4665900000000  0.5225170000000 1.0
C      1  0.4993000000000  0.5238320000000  0.4374610000000 1.0
C      1  0.5363750000000  0.5261530000000  0.4778990000000 1.0
C      1  0.4876060000000  0.4746410000000  0.4309680000000 1.0
C      1  0.5142920000000  0.5381470000000  0.5096880000000 1.0
C      1  0.4919270000000  0.5689510000000  0.4721440000000 1.0
C      1  0.4892070000000  0.4381600000000  0.4950610000000 1.0
C      1  0.5511180000000  0.5115610000000  0.5266120000000 1.0
C      1  0.5612450000000  0.4674720000000  0.4727860000000 1.0
C      1  0.5333090000000  0.4557170000000  0.5397960000000 1.0
C      1  0.5021560000000  0.5545440000000  0.5582670000000 1.0
C      1  0.5177450000000  0.5637060000000  0.5440240000000 1.0
C      1  0.5427210000000  0.5318530000000  0.5064120000000 1.0
C      1  0.4984090000000  0.4852680000000  0.4999550000000 1.0
C      1  0.5140440000000  0.4333180000000  0.5403880000000 1.0
C      1  0.4550690000000  0.5314340000000  0.4622360000000 1.0
C      1  0.5652620000000  0.4918230000000  0.4613070000000 1.0
C      1  0.4692830000000  0.5033060000000  0.5646040000000 1.0
C      1  0.4323670000000  0.4905420000000  0.4807230000000 1.0
C      1  0.4759890000000  0.5511850000000  0.5459360000000 1.0
C      1  0.4522630000000  0.4893450000000  0.5412160000000 1.0
C      1  0.4508610000000  0.5158430000000  0.5286560000000 1.0
C      1  0.4906820000000  0.4266670000000  0.5211370000000 1.0
C      1  0.4856080000000  0.5431270000000  0.4578270000000 1.0
C      1  0.4693740000000  0.5255360000000  0.5078860000000 1.0
C      1  0.5125370000000  0.4579520000000  0.4863230000000 1.0
C      1  0.5629360000000  0.4874790000000  0.5145480000000 1.0
C      1  0.4763420000000  0.5520380000000  0.5167520000000 1.0
C      1  0.5201030000000  0.5661390000000  0.5161230000000 1.0
C      1  0.5347760000000  0.5086860000000  0.5506190000000 1.0
C      1  0.5206790000000  0.4820380000000  0.5485410000000 1.0
C      1  0.4860870000000  0.4340840000000  0.5506850000000 1.0
C      1  0.4643720000000  0.5040230000000  0.4573860000000 1.0
C      1  0.5226200000000  0.5065920000000  0.4389770000000 1.0
C      1  0.4486790000000  0.4671130000000  0.4926970000000 1.0
C      1  0.4837900000000  0.5085390000000  0.4875560000000 1.0
C      1  0.5071190000000  0.5291750000000  0.4823870000000 1.0
C      1  0.5751280000000  0.4870910000000  0.4877900000000 1.0
C      1  0.4383960000000  0.4831880000000  0.4539420000000 1.0
C      1  0.5160630000000  0.4778500000000  0.4364300000000 1.0
C      1  0.5461460000000  0.5119240000000  0.4554940000000 1.0
C      1  0.4932990000000  0.5718060000000  0.5013970000000 1.0
C      1  0.4969030000000  0.5086570000000  0.5678230000000 1.0
C      1  0.5139520000000  0.4568820000000  0.4576480000000 1.0
C      1  0.4349280000000  0.5221240000000  0.4805070000000 1.0
END
