TITL C-884138-6203-422 -0.576998113585863 125000 -1038.55804091354 0 0 8 (C1) n - 1
REM
REM in /home/nfs/bkarasulu/CARBON/AIRSS/Generating-Clusters/ReaxFF-fromJPCA2015/Units_Real/with-SteepDescent/Only-C1/SD-CG/Try1-3A/FIRE-CG
REM
REM
REM
REM
REM
REM ./C.cell (11c1c37f851c82e70ff6c80c92926a4b)
REM
REM compiler GCC version 9.2.1 20190827 (Red Hat 9.2.1-1)
REM options -cpp -mtune=generic -march=x86-64 -g -O0 -fpre-include=/usr/include/finclude/math-vector-fortran.h
REM seed 396260676 -191662262 -1859673567 -1164159488 1141299893 46670583 -1176462896 -661931008 -1436310290 -1222083836 1204805526 702921122 398170187 1182664610 449965214 -580530485 1738257106 1826101507 -260197122 1643848437 1715220361 -1714217443 244416957 973406707 369615507 -1704592901 1488033038 -52233416 334157911 1347719500 -1862008137 -249162503 -145171560
REM
CELL 1.54180   50.00000   50.00000   50.00000   90.00000   90.00000   90.00000
LATT -1
SFAC C  
C      1  0.5156180000000  0.5239940000000  0.5163510000000 1.0
C      1  0.5161810000000  0.5266570000000  0.4886740000000 1.0
C      1  0.4971950000000  0.4966590000000  0.5113880000000 1.0
C      1  0.4922620000000  0.4781140000000  0.5312190000000 1.0
C      1  0.4879480000000  0.4618970000000  0.5485600000000 1.0
C      1  0.4906100000000  0.4932750000000  0.4847420000000 1.0
C      1  0.5112050000000  0.5221040000000  0.4616100000000 1.0
C      1  0.4889810000000  0.4972990000000  0.4574560000000 1.0
END
