TITL C-883731-9874-188 -10.5832833985986 125000 -12459.1460196899 0 0 84 (C1) n - 1
REM
REM in /home/nfs/bkarasulu/CARBON/AIRSS/Generating-Clusters/ReaxFF-fromJPCA2015/Units_Real/with-SteepDescent/Only-C1/SD-CG/Try1-3A/FIRE-CG
REM
REM
REM
REM
REM
REM ./C.cell (11c1c37f851c82e70ff6c80c92926a4b)
REM
REM compiler GCC version 9.2.1 20190827 (Red Hat 9.2.1-1)
REM options -cpp -mtune=generic -march=x86-64 -g -O0 -fpre-include=/usr/include/finclude/math-vector-fortran.h
REM seed 362478832 -549910695 1831919291 1189790100 -1673118989 1732751394 652023794 2134197447 -79755673 367059984 1348575376 1785587141 751677021 709414060 -2048056602 1205594629 -682949124 1971532854 -1390761936 -763934193 -790228360 726135900 -1059149246 -1493995846 1057035917 328332334 -725361684 -1929499179 2017322512 -485064328 1127249275 7154654 1034101884
REM
CELL 1.54180   50.00000   50.00000   50.00000   90.00000   90.00000   90.00000
LATT -1
SFAC C  
C      1  0.5601330000000  0.4648480000000  0.5099240000000 1.0
C      1  0.4382610000000  0.4855250000000  0.4414110000000 1.0
C      1  0.4887250000000  0.4325830000000  0.4544600000000 1.0
C      1  0.4644150000000  0.4670550000000  0.5320430000000 1.0
C      1  0.4589780000000  0.4891640000000  0.4211080000000 1.0
C      1  0.5077860000000  0.4675390000000  0.4237870000000 1.0
C      1  0.4257660000000  0.4614120000000  0.5122570000000 1.0
C      1  0.4757490000000  0.4570970000000  0.5048320000000 1.0
C      1  0.4588890000000  0.5494690000000  0.5612530000000 1.0
C      1  0.5311890000000  0.5699440000000  0.4710890000000 1.0
C      1  0.5518700000000  0.5116270000000  0.5622260000000 1.0
C      1  0.4962650000000  0.4695150000000  0.5769350000000 1.0
C      1  0.5703020000000  0.5382640000000  0.4994750000000 1.0
C      1  0.5653390000000  0.4782700000000  0.4655070000000 1.0
C      1  0.4812790000000  0.4529710000000  0.5564270000000 1.0
C      1  0.5319850000000  0.5329580000000  0.5587040000000 1.0
C      1  0.4366520000000  0.4353140000000  0.5086160000000 1.0
C      1  0.5070550000000  0.4855920000000  0.5301430000000 1.0
C      1  0.4588840000000  0.5466840000000  0.4484300000000 1.0
C      1  0.5871360000000  0.4858110000000  0.5371600000000 1.0
C      1  0.5496290000000  0.4843760000000  0.5723030000000 1.0
C      1  0.5203330000000  0.4607690000000  0.5418200000000 1.0
C      1  0.5248120000000  0.4690800000000  0.5703000000000 1.0
C      1  0.5364780000000  0.5727830000000  0.4998610000000 1.0
C      1  0.4667430000000  0.4505910000000  0.4473620000000 1.0
C      1  0.4507410000000  0.4922940000000  0.4840880000000 1.0
C      1  0.5024550000000  0.5106830000000  0.5794970000000 1.0
C      1  0.4376170000000  0.4803300000000  0.5311640000000 1.0
C      1  0.4785390000000  0.4683380000000  0.4266720000000 1.0
C      1  0.4478330000000  0.5239260000000  0.5539460000000 1.0
C      1  0.5309790000000  0.4331270000000  0.4768830000000 1.0
C      1  0.5789490000000  0.5199280000000  0.4805600000000 1.0
C      1  0.5842440000000  0.4901070000000  0.4842440000000 1.0
C      1  0.4878930000000  0.5707790000000  0.5235710000000 1.0
C      1  0.4854770000000  0.4297600000000  0.5059590000000 1.0
C      1  0.4992250000000  0.4876840000000  0.4750640000000 1.0
C      1  0.4790150000000  0.5512460000000  0.4696440000000 1.0
C      1  0.5523700000000  0.4964240000000  0.4474840000000 1.0
C      1  0.5735740000000  0.4703590000000  0.5601290000000 1.0
C      1  0.4676330000000  0.5841130000000  0.5067490000000 1.0
C      1  0.5675200000000  0.5072110000000  0.5375370000000 1.0
C      1  0.4870610000000  0.5879220000000  0.4860670000000 1.0
C      1  0.4418620000000  0.5707470000000  0.4998460000000 1.0
C      1  0.4766770000000  0.5322420000000  0.4929100000000 1.0
C      1  0.4648550000000  0.5141130000000  0.4095530000000 1.0
C      1  0.4354050000000  0.5070170000000  0.4605810000000 1.0
C      1  0.5271880000000  0.4903950000000  0.4289730000000 1.0
C      1  0.5886980000000  0.4759320000000  0.5095500000000 1.0
C      1  0.4914760000000  0.5264290000000  0.4097450000000 1.0
C      1  0.5359910000000  0.5411460000000  0.4659460000000 1.0
C      1  0.4618200000000  0.5115760000000  0.5076580000000 1.0
C      1  0.5523370000000  0.4940020000000  0.5166300000000 1.0
C      1  0.4771350000000  0.5679790000000  0.5492080000000 1.0
C      1  0.5021640000000  0.4275170000000  0.4803800000000 1.0
C      1  0.4319700000000  0.4678070000000  0.4842060000000 1.0
C      1  0.5010440000000  0.5727470000000  0.4671950000000 1.0
C      1  0.5109900000000  0.5092020000000  0.4196970000000 1.0
C      1  0.5080730000000  0.5371270000000  0.5771670000000 1.0
C      1  0.4989040000000  0.5156130000000  0.4832510000000 1.0
C      1  0.4629970000000  0.5002380000000  0.5572780000000 1.0
C      1  0.5239880000000  0.4812750000000  0.4867820000000 1.0
C      1  0.4803970000000  0.4941290000000  0.5813790000000 1.0
C      1  0.4354890000000  0.5354190000000  0.4617010000000 1.0
C      1  0.5664450000000  0.4436330000000  0.5535460000000 1.0
C      1  0.4270900000000  0.5478360000000  0.4899200000000 1.0
C      1  0.4960150000000  0.4335040000000  0.5401080000000 1.0
C      1  0.5352720000000  0.5507240000000  0.5358440000000 1.0
C      1  0.4751590000000  0.4742120000000  0.4820360000000 1.0
C      1  0.4789740000000  0.4951770000000  0.5312820000000 1.0
C      1  0.5475170000000  0.4487400000000  0.5334990000000 1.0
C      1  0.4667100000000  0.5384470000000  0.4215480000000 1.0
C      1  0.4557770000000  0.4154380000000  0.5060810000000 1.0
C      1  0.5247390000000  0.4970890000000  0.5106120000000 1.0
C      1  0.4357000000000  0.5124010000000  0.5271880000000 1.0
C      1  0.5145880000000  0.5576950000000  0.5148760000000 1.0
C      1  0.4846000000000  0.5551690000000  0.5721190000000 1.0
C      1  0.4407700000000  0.4605460000000  0.4570630000000 1.0
C      1  0.4166660000000  0.5294740000000  0.5102920000000 1.0
C      1  0.5198190000000  0.5344420000000  0.4892150000000 1.0
C      1  0.5091160000000  0.4392320000000  0.4324720000000 1.0
C      1  0.5295320000000  0.4295080000000  0.4493800000000 1.0
C      1  0.5568570000000  0.5569940000000  0.5155050000000 1.0
C      1  0.5451350000000  0.4612600000000  0.4824570000000 1.0
C      1  0.5582850000000  0.5223560000000  0.4586300000000 1.0
END
