TITL C-884129-4740-445 1.23819701798845 125000 -1972.12845536097 0 0 15 (C1) n - 1
REM
REM in /home/nfs/bkarasulu/CARBON/AIRSS/Generating-Clusters/ReaxFF-fromJPCA2015/Units_Real/with-SteepDescent/Only-C1/SD-CG/Try1-3A/FIRE-CG
REM
REM
REM
REM
REM
REM ./C.cell (11c1c37f851c82e70ff6c80c92926a4b)
REM
REM compiler GCC version 9.2.1 20190827 (Red Hat 9.2.1-1)
REM options -cpp -mtune=generic -march=x86-64 -g -O0 -fpre-include=/usr/include/finclude/math-vector-fortran.h
REM seed -818249297 -856292836 937028206 -817949426 -1031423413 1403922519 -709616621 -287458032 1480907069 1395876341 -1933724805 -1394454025 124623248 335787813 -194419461 369727409 1868498507 544136228 1239281894 473285184 4724315 645590549 865526316 -889637946 -1301512831 -1706441705 -698498202 -1549128212 -1317481895 -1524818461 1360254983 1598246776 -1039019684
REM
CELL 1.54180   50.00000   50.00000   50.00000   90.00000   90.00000   90.00000
LATT -1
SFAC C  
C      1  0.4976400000000  0.4924830000000  0.4567420000000 1.0
C      1  0.4731050000000  0.5011410000000  0.5228580000000 1.0
C      1  0.4329440000000  0.5445760000000  0.5697180000000 1.0
C      1  0.5181000000000  0.4808200000000  0.5134720000000 1.0
C      1  0.4457570000000  0.5303700000000  0.5545650000000 1.0
C      1  0.4885470000000  0.4854800000000  0.5071000000000 1.0
C      1  0.4803690000000  0.4967710000000  0.4812520000000 1.0
C      1  0.4595680000000  0.5156090000000  0.5385540000000 1.0
C      1  0.5537210000000  0.5049140000000  0.4905240000000 1.0
C      1  0.5341580000000  0.4567710000000  0.4985810000000 1.0
C      1  0.4685690000000  0.4867010000000  0.4545410000000 1.0
C      1  0.5194580000000  0.5104980000000  0.4451790000000 1.0
C      1  0.5423250000000  0.5119010000000  0.4641630000000 1.0
C      1  0.5500050000000  0.4771950000000  0.4869950000000 1.0
C      1  0.5357350000000  0.5047710000000  0.5157550000000 1.0
END
