TITL C-884139-6216-4 -1442713.38348139 125000 -6758.44285877245 0 0 46 (C1) n - 1
REM
REM in /home/nfs/bkarasulu/CARBON/AIRSS/Generating-Clusters/ReaxFF-fromJPCA2015/Units_Real/with-SteepDescent/Only-C1/SD-CG/Try1-3A/FIRE-CG
REM
REM
REM
REM
REM
REM ./C.cell (11c1c37f851c82e70ff6c80c92926a4b)
REM
REM compiler GCC version 9.2.1 20190827 (Red Hat 9.2.1-1)
REM options -cpp -mtune=generic -march=x86-64 -g -O0 -fpre-include=/usr/include/finclude/math-vector-fortran.h
REM seed 1409978090 -759277206 1004038937 -536097524 -1348357522 1982041888 -167350043 1332254195 -364468115 -1310887984 1097657210 -1517618452 -707797549 -435930363 -1614311719 -1724591192 -1927621980 607214050 -1158427348 547563848 1921582323 -1124075432 -508023377 943138369 -745716497 -1591114779 -595456896 1882216016 -1450826445 -2061636445 -736831593 2046767202 -713041827
REM
CELL 1.54180   50.00000   50.00000   50.00000   90.00000   90.00000   90.00000
LATT -1
SFAC C  
C      1  0.4884460000000  0.5751350000000  0.4703580000000 1.0
C      1  0.5268910000000  0.4774270000000  0.4427620000000 1.0
C      1  0.5591250000000  0.4806680000000  0.5277060000000 1.0
C      1  0.4885330000000  0.5520280000000  0.5352530000000 1.0
C      1  0.4283870000000  0.4996680000000  0.4474650000000 1.0
C      1  0.4803090000000  0.5038690000000  0.4532670000000 1.0
C      1  0.5271230000000  0.4526340000000  0.4593200000000 1.0
C      1  0.5061500000000  0.4974350000000  0.4359970000000 1.0
C      1  0.5248620000000  0.4353040000000  0.5210560000000 1.0
C      1  0.4700330000000  0.5605620000000  0.4549770000000 1.0
C      1  0.5651390000000  0.5013410000000  0.5086670000000 1.0
C      1  0.4919510000000  0.4620780000000  0.5516480000000 1.0
C      1  0.4460700000000  0.4947690000000  0.4940420000000 1.0
C      1  0.5087570000000  0.5145670000000  0.5038950000000 1.0
C      1  0.4803750000000  0.5316640000000  0.5527810000000 1.0
C      1  0.4461280000000  0.4765860000000  0.5321810000000 1.0
C      1  0.4481140000000  0.4965490000000  0.4628440000000 1.0
C      1  0.5133150000000  0.5405800000000  0.4566400000000 1.0
C      1  0.4828930000000  0.4304560000000  0.5136200000000 1.0
C      1  0.5510260000000  0.5395920000000  0.5155420000000 1.0
C      1  0.5329280000000  0.4784430000000  0.4716220000000 1.0
C      1  0.5258260000000  0.5119180000000  0.5516840000000 1.0
C      1  0.5117760000000  0.4898630000000  0.4889440000000 1.0
C      1  0.4806130000000  0.4544480000000  0.4738490000000 1.0
C      1  0.4581990000000  0.5165590000000  0.5384490000000 1.0
C      1  0.4448870000000  0.4671810000000  0.5059170000000 1.0
C      1  0.5469300000000  0.4915590000000  0.5534580000000 1.0
C      1  0.4839810000000  0.4849560000000  0.5644250000000 1.0
C      1  0.5217260000000  0.5195780000000  0.4406240000000 1.0
C      1  0.5075600000000  0.5751010000000  0.4909380000000 1.0
C      1  0.5672050000000  0.5244720000000  0.4945250000000 1.0
C      1  0.5274360000000  0.5596090000000  0.4756610000000 1.0
C      1  0.5268560000000  0.5247990000000  0.5243120000000 1.0
C      1  0.5516900000000  0.5503910000000  0.4888350000000 1.0
C      1  0.4591710000000  0.5154910000000  0.5092410000000 1.0
C      1  0.4649410000000  0.4464710000000  0.4969390000000 1.0
C      1  0.4893560000000  0.5598780000000  0.5095760000000 1.0
C      1  0.4553200000000  0.4915050000000  0.5536840000000 1.0
C      1  0.4867650000000  0.4836040000000  0.4745140000000 1.0
C      1  0.5050260000000  0.4382980000000  0.4719020000000 1.0
C      1  0.4985780000000  0.4394530000000  0.5380550000000 1.0
C      1  0.4985170000000  0.5104550000000  0.5626760000000 1.0
C      1  0.5074670000000  0.4256170000000  0.4985360000000 1.0
C      1  0.5456490000000  0.4546950000000  0.5203270000000 1.0
C      1  0.4833210000000  0.5302450000000  0.4966460000000 1.0
C      1  0.4846490000000  0.5325000000000  0.4646430000000 1.0
END
