TITL C-884134-5972-215 -0.815978421196671 125000 -12309.091787305 0 0 83 (C1) n - 1
REM
REM in /home/nfs/bkarasulu/CARBON/AIRSS/Generating-Clusters/ReaxFF-fromJPCA2015/Units_Real/with-SteepDescent/Only-C1/SD-CG/Try1-3A/FIRE-CG
REM
REM
REM
REM
REM
REM ./C.cell (11c1c37f851c82e70ff6c80c92926a4b)
REM
REM compiler GCC version 9.2.1 20190827 (Red Hat 9.2.1-1)
REM options -cpp -mtune=generic -march=x86-64 -g -O0 -fpre-include=/usr/include/finclude/math-vector-fortran.h
REM seed 552496987 -723936204 1277498838 -395974556 -249542593 -54133771 -27149508 -582943780 -1517576336 -1517358394 1312204608 -586473420 -2144200857 952259331 1102615708 519819664 171957835 1129779770 2104391159 1456576591 -1978710378 -1399784445 1400897127 1981579044 -363636489 500463042 -1813803434 898071032 -2010084633 437502276 -803828246 833305447 -323981635
REM
CELL 1.54180   50.00000   50.00000   50.00000   90.00000   90.00000   90.00000
LATT -1
SFAC C  
C      1  0.5295330000000  0.4183000000000  0.4797910000000 1.0
C      1  0.4869610000000  0.4820580000000  0.4838800000000 1.0
C      1  0.4538360000000  0.4623010000000  0.5499080000000 1.0
C      1  0.4951820000000  0.5412540000000  0.5681940000000 1.0
C      1  0.5282420000000  0.4743720000000  0.5657980000000 1.0
C      1  0.4413610000000  0.4562420000000  0.5238280000000 1.0
C      1  0.4962660000000  0.4604050000000  0.4443240000000 1.0
C      1  0.4575690000000  0.5714100000000  0.5477340000000 1.0
C      1  0.4881670000000  0.5756480000000  0.4865790000000 1.0
C      1  0.5075790000000  0.4218350000000  0.4598440000000 1.0
C      1  0.5218100000000  0.4199740000000  0.5083590000000 1.0
C      1  0.5758020000000  0.5419670000000  0.4637060000000 1.0
C      1  0.5166330000000  0.5677730000000  0.4819300000000 1.0
C      1  0.5357130000000  0.5608670000000  0.5032800000000 1.0
C      1  0.4943160000000  0.5478270000000  0.5222730000000 1.0
C      1  0.4771800000000  0.5483680000000  0.5471460000000 1.0
C      1  0.4912750000000  0.4653970000000  0.5087120000000 1.0
C      1  0.4778590000000  0.4494030000000  0.5598990000000 1.0
C      1  0.5231330000000  0.5006710000000  0.5766770000000 1.0
C      1  0.4953490000000  0.4975900000000  0.5437280000000 1.0
C      1  0.5462010000000  0.4583460000000  0.5163720000000 1.0
C      1  0.4422280000000  0.5236970000000  0.4408610000000 1.0
C      1  0.5513570000000  0.5262940000000  0.5409100000000 1.0
C      1  0.4882100000000  0.5778050000000  0.5155060000000 1.0
C      1  0.4719510000000  0.5945890000000  0.5344160000000 1.0
C      1  0.5379840000000  0.5243550000000  0.5665750000000 1.0
C      1  0.5405420000000  0.5061710000000  0.4853930000000 1.0
C      1  0.5771090000000  0.4790940000000  0.4840710000000 1.0
C      1  0.4533070000000  0.4373280000000  0.5042740000000 1.0
C      1  0.4951490000000  0.5259310000000  0.4994990000000 1.0
C      1  0.4791340000000  0.4883950000000  0.5235340000000 1.0
C      1  0.4418760000000  0.4617100000000  0.4619570000000 1.0
C      1  0.5291060000000  0.4944890000000  0.4579210000000 1.0
C      1  0.5186790000000  0.4394970000000  0.4396090000000 1.0
C      1  0.4245320000000  0.4782370000000  0.4809000000000 1.0
C      1  0.5334220000000  0.5394700000000  0.4377630000000 1.0
C      1  0.4794290000000  0.4359430000000  0.5154350000000 1.0
C      1  0.5211010000000  0.4960210000000  0.5303940000000 1.0
C      1  0.5084080000000  0.4527550000000  0.5649470000000 1.0
C      1  0.5241310000000  0.5641200000000  0.4525560000000 1.0
C      1  0.4828950000000  0.5103310000000  0.4791030000000 1.0
C      1  0.4837250000000  0.4264390000000  0.5428520000000 1.0
C      1  0.4397440000000  0.5097510000000  0.5454270000000 1.0
C      1  0.4575160000000  0.4407470000000  0.4745300000000 1.0
C      1  0.5457380000000  0.4483750000000  0.4465940000000 1.0
C      1  0.4670430000000  0.4978770000000  0.5839730000000 1.0
C      1  0.5645640000000  0.5540470000000  0.4902810000000 1.0
C      1  0.4238240000000  0.5046480000000  0.4730250000000 1.0
C      1  0.4933430000000  0.5108130000000  0.5748110000000 1.0
C      1  0.5193420000000  0.4490960000000  0.5133130000000 1.0
C      1  0.5280390000000  0.5489290000000  0.5292840000000 1.0
C      1  0.4482930000000  0.4997210000000  0.5176130000000 1.0
C      1  0.4797160000000  0.4814710000000  0.4269210000000 1.0
C      1  0.5516790000000  0.4766550000000  0.4452500000000 1.0
C      1  0.5046330000000  0.4796990000000  0.4640910000000 1.0
C      1  0.5633660000000  0.5035920000000  0.5290020000000 1.0
C      1  0.5118470000000  0.4245840000000  0.5542880000000 1.0
C      1  0.5513110000000  0.4362190000000  0.4730830000000 1.0
C      1  0.4483300000000  0.4889980000000  0.5630370000000 1.0
C      1  0.4909590000000  0.5086860000000  0.4290560000000 1.0
C      1  0.4273790000000  0.5175480000000  0.5224220000000 1.0
C      1  0.5305210000000  0.4101790000000  0.5357690000000 1.0
C      1  0.4719380000000  0.5544260000000  0.4480130000000 1.0
C      1  0.5219580000000  0.5484900000000  0.5595010000000 1.0
C      1  0.4316870000000  0.5658930000000  0.5337520000000 1.0
C      1  0.5756210000000  0.4882840000000  0.4560800000000 1.0
C      1  0.4294410000000  0.4786610000000  0.5102100000000 1.0
C      1  0.5652070000000  0.5016770000000  0.4992330000000 1.0
C      1  0.5631910000000  0.4547000000000  0.4927600000000 1.0
C      1  0.4633920000000  0.5644650000000  0.4743830000000 1.0
C      1  0.5464490000000  0.4797210000000  0.5386590000000 1.0
C      1  0.4820980000000  0.4360890000000  0.4597910000000 1.0
C      1  0.4263850000000  0.5313930000000  0.4657490000000 1.0
C      1  0.4985270000000  0.5616330000000  0.4437100000000 1.0
C      1  0.5181300000000  0.5150350000000  0.4361530000000 1.0
C      1  0.4723600000000  0.5225970000000  0.4490940000000 1.0
C      1  0.5798640000000  0.5173060000000  0.4509170000000 1.0
C      1  0.4396690000000  0.5511390000000  0.4846660000000 1.0
C      1  0.5203100000000  0.5110190000000  0.5051110000000 1.0
C      1  0.5761210000000  0.5647210000000  0.5100460000000 1.0
C      1  0.4535480000000  0.4738650000000  0.4371460000000 1.0
C      1  0.5625100000000  0.5369420000000  0.4408070000000 1.0
C      1  0.4301640000000  0.5456270000000  0.5120130000000 1.0
END
