TITL C-883733-4178-173 48.1333021621811 125000 -17396.1562057813 0 0 119 (C1) n - 1
REM
REM in /home/nfs/bkarasulu/CARBON/AIRSS/Generating-Clusters/ReaxFF-fromJPCA2015/Units_Real/with-SteepDescent/Only-C1/SD-CG/Try1-3A/FIRE-CG
REM
REM
REM
REM
REM
REM ./C.cell (11c1c37f851c82e70ff6c80c92926a4b)
REM
REM compiler GCC version 9.2.1 20190827 (Red Hat 9.2.1-1)
REM options -cpp -mtune=generic -march=x86-64 -g -O0 -fpre-include=/usr/include/finclude/math-vector-fortran.h
REM seed -211018315 962403497 1273903438 925187405 175111386 1717403229 507916004 -1033638198 2053046102 1773348951 929165338 -1174730630 -917021308 16704919 921992553 -1448565281 301330132 12616641 -1297767980 762040893 783075904 571797386 239458716 1107128474 1686024793 -816834198 -136157194 318307748 -2093911896 413077448 -1119922990 -113771789 -1673768238
REM
CELL 1.54180   50.00000   50.00000   50.00000   90.00000   90.00000   90.00000
LATT -1
SFAC C  
C      1  0.5373430000000  0.4783940000000  0.5282030000000 1.0
C      1  0.5769200000000  0.5416840000000  0.4616990000000 1.0
C      1  0.4655990000000  0.4406450000000  0.5724710000000 1.0
C      1  0.4381070000000  0.5182690000000  0.5470860000000 1.0
C      1  0.4986690000000  0.4452730000000  0.5094080000000 1.0
C      1  0.6023510000000  0.4981110000000  0.5017050000000 1.0
C      1  0.4584720000000  0.5177620000000  0.4223730000000 1.0
C      1  0.4805500000000  0.5648510000000  0.5615040000000 1.0
C      1  0.5329220000000  0.5344220000000  0.5457780000000 1.0
C      1  0.5833220000000  0.4512180000000  0.5144300000000 1.0
C      1  0.4309780000000  0.5500910000000  0.5085890000000 1.0
C      1  0.4007770000000  0.5158050000000  0.5266840000000 1.0
C      1  0.5654620000000  0.4276710000000  0.5111050000000 1.0
C      1  0.4169530000000  0.5386270000000  0.4463180000000 1.0
C      1  0.4800430000000  0.5868850000000  0.4452510000000 1.0
C      1  0.4683940000000  0.4904520000000  0.5711840000000 1.0
C      1  0.4493520000000  0.4654880000000  0.5688350000000 1.0
C      1  0.4063230000000  0.4713160000000  0.4746890000000 1.0
C      1  0.5001720000000  0.4723020000000  0.5005460000000 1.0
C      1  0.4859970000000  0.5524190000000  0.5353150000000 1.0
C      1  0.5498040000000  0.4932600000000  0.5780270000000 1.0
C      1  0.5365760000000  0.4302700000000  0.4372720000000 1.0
C      1  0.5087760000000  0.5550800000000  0.4672130000000 1.0
C      1  0.4826420000000  0.5473550000000  0.5846260000000 1.0
C      1  0.5307390000000  0.5569150000000  0.4485070000000 1.0
C      1  0.4971120000000  0.5960620000000  0.4705630000000 1.0
C      1  0.5973280000000  0.5237840000000  0.4677820000000 1.0
C      1  0.5192940000000  0.4092670000000  0.5308280000000 1.0
C      1  0.4574620000000  0.4211820000000  0.4581500000000 1.0
C      1  0.5334500000000  0.5002650000000  0.4611040000000 1.0
C      1  0.4351670000000  0.4528870000000  0.5458310000000 1.0
C      1  0.5090620000000  0.3976970000000  0.5057140000000 1.0
C      1  0.4532660000000  0.5071700000000  0.5056590000000 1.0
C      1  0.5363050000000  0.4382910000000  0.5564230000000 1.0
C      1  0.5553790000000  0.4201870000000  0.4842630000000 1.0
C      1  0.4215940000000  0.5407140000000  0.5368230000000 1.0
C      1  0.5080580000000  0.5323370000000  0.5886850000000 1.0
C      1  0.5065340000000  0.4613700000000  0.4363300000000 1.0
C      1  0.5130900000000  0.4786100000000  0.4140430000000 1.0
C      1  0.4077110000000  0.4596150000000  0.5009780000000 1.0
C      1  0.4619180000000  0.5321530000000  0.4690080000000 1.0
C      1  0.4524750000000  0.5408840000000  0.5835290000000 1.0
C      1  0.4880040000000  0.4922510000000  0.4080630000000 1.0
C      1  0.5708320000000  0.5413990000000  0.5083360000000 1.0
C      1  0.3932130000000  0.4987930000000  0.4760350000000 1.0
C      1  0.4564300000000  0.4711430000000  0.4705570000000 1.0
C      1  0.4894370000000  0.5227650000000  0.5332930000000 1.0
C      1  0.4035780000000  0.4899120000000  0.5400420000000 1.0
C      1  0.3965400000000  0.5117250000000  0.5005280000000 1.0
C      1  0.4998710000000  0.5468830000000  0.4126240000000 1.0
C      1  0.5610250000000  0.5345380000000  0.5349850000000 1.0
C      1  0.4899090000000  0.4362610000000  0.4376930000000 1.0
C      1  0.5383760000000  0.5731290000000  0.5615260000000 1.0
C      1  0.4464920000000  0.4643260000000  0.4313840000000 1.0
C      1  0.5593920000000  0.5059960000000  0.4116270000000 1.0
C      1  0.5587930000000  0.4308680000000  0.4571250000000 1.0
C      1  0.5460220000000  0.4226420000000  0.5343250000000 1.0
C      1  0.4605330000000  0.5880650000000  0.5117850000000 1.0
C      1  0.5355400000000  0.5418650000000  0.5747890000000 1.0
C      1  0.5942430000000  0.5267450000000  0.4975200000000 1.0
C      1  0.5567720000000  0.5622710000000  0.4933490000000 1.0
C      1  0.5459450000000  0.5269100000000  0.4111200000000 1.0
C      1  0.5109940000000  0.4147090000000  0.4398580000000 1.0
C      1  0.4523840000000  0.5989840000000  0.5381650000000 1.0
C      1  0.4793370000000  0.4011520000000  0.5068470000000 1.0
C      1  0.4589860000000  0.5136610000000  0.5816520000000 1.0
C      1  0.5430480000000  0.4917580000000  0.4860220000000 1.0
C      1  0.5945140000000  0.4783310000000  0.5222500000000 1.0
C      1  0.4708600000000  0.4144160000000  0.5319220000000 1.0
C      1  0.4612960000000  0.4883310000000  0.4215380000000 1.0
C      1  0.5365550000000  0.5765960000000  0.5344800000000 1.0
C      1  0.5825830000000  0.4911870000000  0.5453450000000 1.0
C      1  0.4966040000000  0.4277710000000  0.5343360000000 1.0
C      1  0.5865800000000  0.4694650000000  0.4695100000000 1.0
C      1  0.6026550000000  0.4935330000000  0.4729280000000 1.0
C      1  0.4468220000000  0.5312260000000  0.4929170000000 1.0
C      1  0.5254480000000  0.4816910000000  0.5890290000000 1.0
C      1  0.5553900000000  0.4824360000000  0.5508550000000 1.0
C      1  0.5541490000000  0.4938730000000  0.4348380000000 1.0
C      1  0.5297290000000  0.4546780000000  0.4210410000000 1.0
C      1  0.4928780000000  0.4467570000000  0.5744500000000 1.0
C      1  0.4494660000000  0.5393210000000  0.4435320000000 1.0
C      1  0.5719340000000  0.4732120000000  0.4307390000000 1.0
C      1  0.4350540000000  0.5548040000000  0.5624740000000 1.0
C      1  0.4840100000000  0.5696350000000  0.5120520000000 1.0
C      1  0.4606820000000  0.5680690000000  0.4364670000000 1.0
C      1  0.4343100000000  0.5776030000000  0.4991870000000 1.0
C      1  0.5261850000000  0.4114820000000  0.4851450000000 1.0
C      1  0.4627730000000  0.4071370000000  0.4815920000000 1.0
C      1  0.5621690000000  0.4718100000000  0.4865680000000 1.0
C      1  0.4883850000000  0.4988970000000  0.5502010000000 1.0
C      1  0.4478410000000  0.4969130000000  0.5314600000000 1.0
C      1  0.4599220000000  0.4380980000000  0.4360420000000 1.0
C      1  0.4529800000000  0.5774740000000  0.5596440000000 1.0
C      1  0.4280670000000  0.4939620000000  0.5522150000000 1.0
C      1  0.4840310000000  0.5222610000000  0.4093920000000 1.0
C      1  0.5024040000000  0.6199380000000  0.4767720000000 1.0
C      1  0.5142630000000  0.5116880000000  0.5432480000000 1.0
C      1  0.5125680000000  0.5056340000000  0.5914410000000 1.0
C      1  0.5588010000000  0.5217060000000  0.5769390000000 1.0
C      1  0.4918880000000  0.5307190000000  0.4670820000000 1.0
C      1  0.4849060000000  0.5709530000000  0.4206360000000 1.0
C      1  0.4826340000000  0.4787550000000  0.4780710000000 1.0
C      1  0.5192240000000  0.4526940000000  0.5763460000000 1.0
C      1  0.4330100000000  0.4669910000000  0.4586820000000 1.0
C      1  0.5069670000000  0.5727850000000  0.4925130000000 1.0
C      1  0.5567370000000  0.5604460000000  0.4629840000000 1.0
C      1  0.5282280000000  0.5472550000000  0.4204240000000 1.0
C      1  0.4747300000000  0.5019540000000  0.4907030000000 1.0
C      1  0.4025290000000  0.5209460000000  0.4611940000000 1.0
C      1  0.5787800000000  0.4511530000000  0.4470850000000 1.0
C      1  0.5769190000000  0.5194630000000  0.5543880000000 1.0
C      1  0.4116680000000  0.4636380000000  0.5303800000000 1.0
C      1  0.5582260000000  0.4664240000000  0.5124130000000 1.0
C      1  0.4510380000000  0.4285530000000  0.5482920000000 1.0
C      1  0.5103160000000  0.5092040000000  0.4717020000000 1.0
C      1  0.5147180000000  0.4360880000000  0.4902730000000 1.0
C      1  0.5223690000000  0.4901050000000  0.5055780000000 1.0
C      1  0.5350600000000  0.5761420000000  0.5069280000000 1.0
END
