TITL C-883740-3686-44 -422505.090409816 125000 -9488.45839264739 0 0 65 (C1) n - 1
REM
REM in /home/nfs/bkarasulu/CARBON/AIRSS/Generating-Clusters/ReaxFF-fromJPCA2015/Units_Real/with-SteepDescent/Only-C1/SD-CG/Try1-3A/FIRE-CG
REM
REM
REM
REM
REM
REM ./C.cell (11c1c37f851c82e70ff6c80c92926a4b)
REM
REM compiler GCC version 9.2.1 20190827 (Red Hat 9.2.1-1)
REM options -cpp -mtune=generic -march=x86-64 -g -O0 -fpre-include=/usr/include/finclude/math-vector-fortran.h
REM seed 1443148872 1322931162 891304966 2085775307 -557819354 284165160 -1448425250 1888761925 -2139189241 1417158946 1555575587 -1774343599 1382227289 1311375932 2125862355 1231747600 -1234588783 1886235430 1456969033 -93487549 370271323 830363974 1493063133 -1185049267 -235908111 1117604209 -1792697373 1488838152 -820269764 -387942347 -245159684 -896544581 -1011883027
REM
CELL 1.54180   50.00000   50.00000   50.00000   90.00000   90.00000   90.00000
LATT -1
SFAC C  
C      1  0.5452250000000  0.4559920000000  0.4765050000000 1.0
C      1  0.5576760000000  0.4777170000000  0.4618210000000 1.0
C      1  0.5282220000000  0.4330170000000  0.4710460000000 1.0
C      1  0.4330250000000  0.5028960000000  0.5463530000000 1.0
C      1  0.4887450000000  0.5608140000000  0.5495160000000 1.0
C      1  0.4538720000000  0.5457750000000  0.4760740000000 1.0
C      1  0.4584470000000  0.4633690000000  0.5193930000000 1.0
C      1  0.4326750000000  0.4665360000000  0.5066820000000 1.0
C      1  0.4757500000000  0.4391690000000  0.5232390000000 1.0
C      1  0.5177130000000  0.4274870000000  0.4987480000000 1.0
C      1  0.5004740000000  0.5297450000000  0.4584470000000 1.0
C      1  0.4630680000000  0.5642890000000  0.5276750000000 1.0
C      1  0.5440720000000  0.5538390000000  0.5068780000000 1.0
C      1  0.5520630000000  0.4804940000000  0.5514250000000 1.0
C      1  0.5307040000000  0.5283320000000  0.5531100000000 1.0
C      1  0.5508810000000  0.5376460000000  0.4551540000000 1.0
C      1  0.4941030000000  0.4463440000000  0.5435670000000 1.0
C      1  0.5097350000000  0.5131430000000  0.5214050000000 1.0
C      1  0.5357090000000  0.4548940000000  0.5431340000000 1.0
C      1  0.5149090000000  0.4827370000000  0.5767600000000 1.0
C      1  0.4759690000000  0.5437760000000  0.4600200000000 1.0
C      1  0.4618050000000  0.5027490000000  0.4228810000000 1.0
C      1  0.4848370000000  0.4498580000000  0.4739030000000 1.0
C      1  0.5032840000000  0.5361420000000  0.5584170000000 1.0
C      1  0.5727710000000  0.5223550000000  0.5230770000000 1.0
C      1  0.5586540000000  0.5425240000000  0.4832220000000 1.0
C      1  0.4339420000000  0.4950670000000  0.4639800000000 1.0
C      1  0.4414290000000  0.4883940000000  0.4356820000000 1.0
C      1  0.4904500000000  0.4935490000000  0.5856900000000 1.0
C      1  0.4896050000000  0.4985820000000  0.5324570000000 1.0
C      1  0.5354770000000  0.5011810000000  0.5647350000000 1.0
C      1  0.4396210000000  0.5667420000000  0.5353530000000 1.0
C      1  0.5492460000000  0.5387820000000  0.5313290000000 1.0
C      1  0.5252740000000  0.4712250000000  0.4952000000000 1.0
C      1  0.5081600000000  0.4439240000000  0.4531400000000 1.0
C      1  0.5663330000000  0.4990130000000  0.5368170000000 1.0
C      1  0.5385720000000  0.4852120000000  0.4410400000000 1.0
C      1  0.4565630000000  0.4537010000000  0.4623580000000 1.0
C      1  0.5379730000000  0.4956330000000  0.4995840000000 1.0
C      1  0.5624320000000  0.4956250000000  0.4849940000000 1.0
C      1  0.4884690000000  0.4707240000000  0.4257150000000 1.0
C      1  0.4363410000000  0.4689180000000  0.4769680000000 1.0
C      1  0.4697790000000  0.5629030000000  0.4974890000000 1.0
C      1  0.4258760000000  0.4927900000000  0.5191990000000 1.0
C      1  0.4937330000000  0.4804640000000  0.4838810000000 1.0
C      1  0.5746220000000  0.5204740000000  0.4929310000000 1.0
C      1  0.4413530000000  0.5185480000000  0.4802060000000 1.0
C      1  0.4948330000000  0.5781960000000  0.4905730000000 1.0
C      1  0.4823510000000  0.5107060000000  0.5587560000000 1.0
C      1  0.5426170000000  0.5140730000000  0.4374610000000 1.0
C      1  0.5306250000000  0.4482410000000  0.5153740000000 1.0
C      1  0.5007840000000  0.5360020000000  0.5056360000000 1.0
C      1  0.4477740000000  0.5069320000000  0.5060090000000 1.0
C      1  0.5250500000000  0.5366650000000  0.4425110000000 1.0
C      1  0.5035300000000  0.5768220000000  0.5624130000000 1.0
C      1  0.4893430000000  0.4316580000000  0.4979070000000 1.0
C      1  0.5204360000000  0.5161230000000  0.4965670000000 1.0
C      1  0.5158270000000  0.4653950000000  0.4356940000000 1.0
C      1  0.4519460000000  0.5086170000000  0.5574930000000 1.0
C      1  0.4943170000000  0.4998750000000  0.4624610000000 1.0
C      1  0.4600630000000  0.4641460000000  0.4358460000000 1.0
C      1  0.5131290000000  0.4543600000000  0.5613920000000 1.0
C      1  0.4736910000000  0.4881390000000  0.5103920000000 1.0
C      1  0.5154570000000  0.5613620000000  0.5047250000000 1.0
C      1  0.4885920000000  0.4995970000000  0.4315900000000 1.0
END
