TITL C-883739-1268-303 -8.23114683742099 125000 -10589.7362104878 0 0 71 (C1) n - 1
REM
REM in /home/nfs/bkarasulu/CARBON/AIRSS/Generating-Clusters/ReaxFF-fromJPCA2015/Units_Real/with-SteepDescent/Only-C1/SD-CG/Try1-3A/FIRE-CG
REM
REM
REM
REM
REM
REM ./C.cell (11c1c37f851c82e70ff6c80c92926a4b)
REM
REM compiler GCC version 9.2.1 20190827 (Red Hat 9.2.1-1)
REM options -cpp -mtune=generic -march=x86-64 -g -O0 -fpre-include=/usr/include/finclude/math-vector-fortran.h
REM seed 1168442216 -881705376 391544741 -807091179 774659781 -1961198937 -332520114 -1647108595 -1460992169 417842161 -394427597 -1985979307 391675124 -6541871 1098795978 -2111650140 763543562 -1666064481 529903563 -1672860477 -779568814 -436000101 -2105578753 -607275872 -376077378 58661224 -349291442 1051569341 -1305032956 -546963734 1284197476 -1474304486 900809852
REM
CELL 1.54180   50.00000   50.00000   50.00000   90.00000   90.00000   90.00000
LATT -1
SFAC C  
C      1  0.4701440000000  0.5604930000000  0.5353130000000 1.0
C      1  0.4465240000000  0.4524320000000  0.4946850000000 1.0
C      1  0.5219080000000  0.4307950000000  0.4832990000000 1.0
C      1  0.4888340000000  0.5532870000000  0.5121040000000 1.0
C      1  0.5125630000000  0.4446750000000  0.5636390000000 1.0
C      1  0.5728650000000  0.4967490000000  0.5287910000000 1.0
C      1  0.5133520000000  0.4710680000000  0.5765750000000 1.0
C      1  0.5021460000000  0.5311820000000  0.4656710000000 1.0
C      1  0.4809090000000  0.5379910000000  0.4849860000000 1.0
C      1  0.5213590000000  0.5756880000000  0.4662800000000 1.0
C      1  0.4783050000000  0.4315330000000  0.5263320000000 1.0
C      1  0.4608320000000  0.5187660000000  0.5522050000000 1.0
C      1  0.5631470000000  0.5391530000000  0.4826850000000 1.0
C      1  0.4848710000000  0.5176540000000  0.5701790000000 1.0
C      1  0.5605260000000  0.4804140000000  0.4544090000000 1.0
C      1  0.5310680000000  0.5768250000000  0.4944700000000 1.0
C      1  0.4952970000000  0.4409070000000  0.4767300000000 1.0
C      1  0.4694510000000  0.4762050000000  0.5559310000000 1.0
C      1  0.5116230000000  0.4749870000000  0.4254020000000 1.0
C      1  0.5452690000000  0.5053670000000  0.4457580000000 1.0
C      1  0.5060730000000  0.5822970000000  0.5399880000000 1.0
C      1  0.5299310000000  0.4687570000000  0.5150490000000 1.0
C      1  0.4205050000000  0.4668340000000  0.5401640000000 1.0
C      1  0.4672700000000  0.4966440000000  0.5340280000000 1.0
C      1  0.4927750000000  0.5129270000000  0.4437510000000 1.0
C      1  0.5080650000000  0.5789060000000  0.5127800000000 1.0
C      1  0.4891860000000  0.4350370000000  0.4471460000000 1.0
C      1  0.4709530000000  0.4377660000000  0.4992080000000 1.0
C      1  0.5772320000000  0.5170460000000  0.4928270000000 1.0
C      1  0.4486370000000  0.5414900000000  0.5385030000000 1.0
C      1  0.4231290000000  0.5093370000000  0.5071340000000 1.0
C      1  0.5081790000000  0.4826740000000  0.5026840000000 1.0
C      1  0.4300400000000  0.5369400000000  0.5153830000000 1.0
C      1  0.4809350000000  0.4875510000000  0.4594420000000 1.0
C      1  0.5246360000000  0.5481650000000  0.4559730000000 1.0
C      1  0.5486220000000  0.5315220000000  0.4573000000000 1.0
C      1  0.4121000000000  0.4855540000000  0.5209980000000 1.0
C      1  0.4713900000000  0.4548440000000  0.5378680000000 1.0
C      1  0.4441700000000  0.5643890000000  0.4698520000000 1.0
C      1  0.4355170000000  0.5527970000000  0.4922190000000 1.0
C      1  0.5040210000000  0.5396160000000  0.5647050000000 1.0
C      1  0.4921620000000  0.5025880000000  0.5189200000000 1.0
C      1  0.5512710000000  0.4548810000000  0.4488550000000 1.0
C      1  0.4691890000000  0.5619870000000  0.4486970000000 1.0
C      1  0.4427990000000  0.4722790000000  0.4735150000000 1.0
C      1  0.5612260000000  0.4437980000000  0.4871790000000 1.0
C      1  0.4904630000000  0.5652300000000  0.5565760000000 1.0
C      1  0.4890970000000  0.4892570000000  0.5739060000000 1.0
C      1  0.5710260000000  0.4707940000000  0.4814180000000 1.0
C      1  0.5203850000000  0.4999650000000  0.4313020000000 1.0
C      1  0.4935800000000  0.5774650000000  0.4568820000000 1.0
C      1  0.5315840000000  0.4212780000000  0.5339180000000 1.0
C      1  0.5449620000000  0.4324870000000  0.4650770000000 1.0
C      1  0.5239220000000  0.5337470000000  0.5438420000000 1.0
C      1  0.5355190000000  0.4777950000000  0.5604340000000 1.0
C      1  0.4236470000000  0.4576600000000  0.5143760000000 1.0
C      1  0.4582240000000  0.4721070000000  0.4487430000000 1.0
C      1  0.4742330000000  0.5373530000000  0.4347240000000 1.0
C      1  0.5488140000000  0.5464980000000  0.5308870000000 1.0
C      1  0.5824700000000  0.4908450000000  0.5005200000000 1.0
C      1  0.4980900000000  0.4506360000000  0.4235980000000 1.0
C      1  0.5360740000000  0.4403960000000  0.5063240000000 1.0
C      1  0.5498820000000  0.5570340000000  0.5030130000000 1.0
C      1  0.5632900000000  0.5228040000000  0.5325540000000 1.0
C      1  0.4600950000000  0.5194030000000  0.4842280000000 1.0
C      1  0.4691030000000  0.4492740000000  0.4336660000000 1.0
C      1  0.5051810000000  0.5283850000000  0.5219380000000 1.0
C      1  0.4967950000000  0.4724420000000  0.4778060000000 1.0
C      1  0.5479530000000  0.4788640000000  0.5365030000000 1.0
C      1  0.4391000000000  0.5009470000000  0.4838560000000 1.0
C      1  0.5055090000000  0.4245360000000  0.5443010000000 1.0
END
