TITL C-883732-77-424 36.615543340447 125000 -27943.5745962189 0 0 184 (C1) n - 1
REM
REM in /home/nfs/bkarasulu/CARBON/AIRSS/Generating-Clusters/ReaxFF-fromJPCA2015/Units_Real/with-SteepDescent/Only-C1/SD-CG/Try1-3A/FIRE-CG
REM
REM
REM
REM
REM
REM ./C.cell (11c1c37f851c82e70ff6c80c92926a4b)
REM
REM compiler GCC version 9.2.1 20190827 (Red Hat 9.2.1-1)
REM options -cpp -mtune=generic -march=x86-64 -g -O0 -fpre-include=/usr/include/finclude/math-vector-fortran.h
REM seed 1596716149 -513673387 1606158503 -2143868925 1009342570 2018776112 1605803442 -625765417 -1109681678 1040146193 -573445821 -128917590 -1025014950 208277879 1200988032 -154122489 190187308 -1248189447 1088852273 1895019044 -539983949 -298014412 -1167394346 -324745560 -1840589632 1781899285 -815097537 -1221213141 -979690918 -1540771455 108317350 1560630413 1377699191
REM
CELL 1.54180   50.00000   50.00000   50.00000   90.00000   90.00000   90.00000
LATT -1
SFAC C  
C      1  0.4324160000000  0.5262280000000  0.5810390000000 1.0
C      1  0.5797170000000  0.5517720000000  0.4421270000000 1.0
C      1  0.5240290000000  0.5915390000000  0.4720450000000 1.0
C      1  0.4455180000000  0.5345730000000  0.4254660000000 1.0
C      1  0.5493100000000  0.5365380000000  0.3997260000000 1.0
C      1  0.4653590000000  0.5524360000000  0.4051570000000 1.0
C      1  0.5690200000000  0.5772860000000  0.4552820000000 1.0
C      1  0.5032840000000  0.5778320000000  0.6016850000000 1.0
C      1  0.5732840000000  0.5085500000000  0.4914480000000 1.0
C      1  0.5191110000000  0.5654940000000  0.5313350000000 1.0
C      1  0.4634370000000  0.4250210000000  0.5728990000000 1.0
C      1  0.5250480000000  0.5434570000000  0.5785000000000 1.0
C      1  0.4441610000000  0.5048320000000  0.4168620000000 1.0
C      1  0.5611950000000  0.4909730000000  0.5945940000000 1.0
C      1  0.5823350000000  0.5994090000000  0.5081200000000 1.0
C      1  0.5487030000000  0.4983000000000  0.5329650000000 1.0
C      1  0.5364870000000  0.4362250000000  0.5196550000000 1.0
C      1  0.5940630000000  0.4492810000000  0.4604690000000 1.0
C      1  0.4948920000000  0.4651140000000  0.6035040000000 1.0
C      1  0.4660960000000  0.4864300000000  0.4154620000000 1.0
C      1  0.4511350000000  0.4207820000000  0.5250660000000 1.0
C      1  0.5041320000000  0.4554570000000  0.5749490000000 1.0
C      1  0.5802590000000  0.5583980000000  0.4981160000000 1.0
C      1  0.5797350000000  0.5820440000000  0.4819890000000 1.0
C      1  0.4492220000000  0.5384370000000  0.4555390000000 1.0
C      1  0.3938090000000  0.4969490000000  0.4771290000000 1.0
C      1  0.3985150000000  0.4814840000000  0.5504260000000 1.0
C      1  0.4153160000000  0.5435270000000  0.4254900000000 1.0
C      1  0.5044520000000  0.5502850000000  0.5574450000000 1.0
C      1  0.4870980000000  0.4247400000000  0.4450540000000 1.0
C      1  0.4954650000000  0.5211170000000  0.4553410000000 1.0
C      1  0.5617290000000  0.5362140000000  0.4896990000000 1.0
C      1  0.4987540000000  0.5245610000000  0.6154680000000 1.0
C      1  0.4766690000000  0.5613730000000  0.5116920000000 1.0
C      1  0.4384010000000  0.4278490000000  0.4552500000000 1.0
C      1  0.4176730000000  0.4951020000000  0.4226580000000 1.0
C      1  0.5142770000000  0.5267260000000  0.5123930000000 1.0
C      1  0.4639630000000  0.5006450000000  0.4679370000000 1.0
C      1  0.6022440000000  0.4753120000000  0.4501820000000 1.0
C      1  0.4939860000000  0.6037360000000  0.4733290000000 1.0
C      1  0.4521530000000  0.5195220000000  0.5074020000000 1.0
C      1  0.5533050000000  0.5078500000000  0.4030670000000 1.0
C      1  0.4600240000000  0.5692820000000  0.4886660000000 1.0
C      1  0.5206890000000  0.5573360000000  0.4766000000000 1.0
C      1  0.3939910000000  0.5474150000000  0.4672820000000 1.0
C      1  0.4718720000000  0.4834250000000  0.6072500000000 1.0
C      1  0.3917900000000  0.5010310000000  0.5054700000000 1.0
C      1  0.5841580000000  0.5738280000000  0.5233710000000 1.0
C      1  0.4455620000000  0.5200010000000  0.4775860000000 1.0
C      1  0.5442130000000  0.4550470000000  0.4233240000000 1.0
C      1  0.5094730000000  0.4993970000000  0.4440410000000 1.0
C      1  0.4281780000000  0.4610980000000  0.5015040000000 1.0
C      1  0.4185900000000  0.4503350000000  0.5696720000000 1.0
C      1  0.4565150000000  0.5353910000000  0.5941270000000 1.0
C      1  0.4902030000000  0.5526900000000  0.3915400000000 1.0
C      1  0.5797660000000  0.4373920000000  0.5582740000000 1.0
C      1  0.5168910000000  0.5963540000000  0.5391460000000 1.0
C      1  0.5518830000000  0.3925290000000  0.4968120000000 1.0
C      1  0.5795430000000  0.4235960000000  0.4617390000000 1.0
C      1  0.4806290000000  0.5772420000000  0.4045750000000 1.0
C      1  0.4418300000000  0.4422390000000  0.5860950000000 1.0
C      1  0.4228080000000  0.4247410000000  0.4798570000000 1.0
C      1  0.5410000000000  0.5372070000000  0.4701450000000 1.0
C      1  0.5192080000000  0.5043840000000  0.6153700000000 1.0
C      1  0.5686400000000  0.4384500000000  0.4170300000000 1.0
C      1  0.6095980000000  0.4563340000000  0.5190450000000 1.0
C      1  0.4093520000000  0.4741880000000  0.4656160000000 1.0
C      1  0.6157950000000  0.4866820000000  0.4738390000000 1.0
C      1  0.4610830000000  0.5617100000000  0.5805310000000 1.0
C      1  0.5278130000000  0.4635580000000  0.4007440000000 1.0
C      1  0.4850470000000  0.5283780000000  0.5479240000000 1.0
C      1  0.5934470000000  0.5256350000000  0.4515800000000 1.0
C      1  0.5298870000000  0.4918550000000  0.3925640000000 1.0
C      1  0.4747180000000  0.5916480000000  0.5267080000000 1.0
C      1  0.5110460000000  0.3847650000000  0.5049460000000 1.0
C      1  0.5287140000000  0.3834070000000  0.4807900000000 1.0
C      1  0.5084490000000  0.4403080000000  0.4025290000000 1.0
C      1  0.4836680000000  0.4397680000000  0.4200430000000 1.0
C      1  0.5433650000000  0.5524020000000  0.5364950000000 1.0
C      1  0.5170360000000  0.5395620000000  0.4021000000000 1.0
C      1  0.4864960000000  0.6081050000000  0.5007580000000 1.0
C      1  0.5139850000000  0.4255280000000  0.4573060000000 1.0
C      1  0.4748780000000  0.4396670000000  0.5299100000000 1.0
C      1  0.5632150000000  0.4362670000000  0.5081970000000 1.0
C      1  0.4851590000000  0.4606810000000  0.4817730000000 1.0
C      1  0.4423790000000  0.5689940000000  0.5609540000000 1.0
C      1  0.4366620000000  0.4494550000000  0.4350150000000 1.0
C      1  0.4921700000000  0.3960540000000  0.5757200000000 1.0
C      1  0.4815350000000  0.4425390000000  0.5577440000000 1.0
C      1  0.5182350000000  0.4590110000000  0.5201340000000 1.0
C      1  0.4799030000000  0.6021570000000  0.4477260000000 1.0
C      1  0.4411840000000  0.4117270000000  0.4982510000000 1.0
C      1  0.5627370000000  0.5721740000000  0.5443830000000 1.0
C      1  0.4380840000000  0.4614490000000  0.5269800000000 1.0
C      1  0.4822960000000  0.3911000000000  0.5073640000000 1.0
C      1  0.4662410000000  0.5368090000000  0.5267870000000 1.0
C      1  0.4661610000000  0.3966000000000  0.5317710000000 1.0
C      1  0.4844270000000  0.5139820000000  0.4774500000000 1.0
C      1  0.5244140000000  0.3984790000000  0.4558130000000 1.0
C      1  0.5794360000000  0.4611920000000  0.5069960000000 1.0
C      1  0.4997900000000  0.5050430000000  0.5003010000000 1.0
C      1  0.4091270000000  0.5373110000000  0.5379480000000 1.0
C      1  0.5431260000000  0.5895330000000  0.4488170000000 1.0
C      1  0.5680720000000  0.4157430000000  0.4883870000000 1.0
C      1  0.4355920000000  0.4982100000000  0.5749010000000 1.0
C      1  0.4058180000000  0.4451000000000  0.4939030000000 1.0
C      1  0.5243420000000  0.4194570000000  0.4135830000000 1.0
C      1  0.5341970000000  0.6124520000000  0.4927150000000 1.0
C      1  0.5647560000000  0.5452350000000  0.4203110000000 1.0
C      1  0.4277940000000  0.5925770000000  0.5203450000000 1.0
C      1  0.4893510000000  0.5943330000000  0.5506220000000 1.0
C      1  0.4681990000000  0.3974940000000  0.5616730000000 1.0
C      1  0.5158910000000  0.4060780000000  0.5880800000000 1.0
C      1  0.5237260000000  0.5831290000000  0.4277380000000 1.0
C      1  0.4555720000000  0.5849670000000  0.4446390000000 1.0
C      1  0.5134350000000  0.5510630000000  0.6051350000000 1.0
C      1  0.5595460000000  0.5014600000000  0.4312850000000 1.0
C      1  0.5177220000000  0.4752860000000  0.6184710000000 1.0
C      1  0.5374840000000  0.5252570000000  0.5280790000000 1.0
C      1  0.5338090000000  0.4147570000000  0.5403470000000 1.0
C      1  0.5343790000000  0.4975450000000  0.5884790000000 1.0
C      1  0.3962570000000  0.5292430000000  0.5148190000000 1.0
C      1  0.4196020000000  0.4431620000000  0.5407200000000 1.0
C      1  0.5461510000000  0.4921050000000  0.4766640000000 1.0
C      1  0.4288940000000  0.5788270000000  0.4424180000000 1.0
C      1  0.4366310000000  0.5858400000000  0.4932410000000 1.0
C      1  0.5680020000000  0.4154210000000  0.4361020000000 1.0
C      1  0.3975560000000  0.5526690000000  0.4950630000000 1.0
C      1  0.5392790000000  0.5107600000000  0.4512260000000 1.0
C      1  0.5307090000000  0.4511140000000  0.4533700000000 1.0
C      1  0.5078140000000  0.5537000000000  0.5067470000000 1.0
C      1  0.5996180000000  0.5128580000000  0.4767280000000 1.0
C      1  0.5121320000000  0.6133470000000  0.5121340000000 1.0
C      1  0.4640230000000  0.4141690000000  0.4595900000000 1.0
C      1  0.4159520000000  0.4698120000000  0.4375680000000 1.0
C      1  0.4647080000000  0.3998380000000  0.4853580000000 1.0
C      1  0.3911970000000  0.5199000000000  0.4588200000000 1.0
C      1  0.5513360000000  0.4644920000000  0.4695940000000 1.0
C      1  0.4691310000000  0.4974380000000  0.5144710000000 1.0
C      1  0.5986010000000  0.5011440000000  0.5370540000000 1.0
C      1  0.5741740000000  0.4925910000000  0.5188660000000 1.0
C      1  0.4053190000000  0.5640110000000  0.4437710000000 1.0
C      1  0.5271100000000  0.4333130000000  0.5776300000000 1.0
C      1  0.5938190000000  0.5143010000000  0.5629800000000 1.0
C      1  0.4606270000000  0.4574560000000  0.4199400000000 1.0
C      1  0.4873920000000  0.5753740000000  0.5738770000000 1.0
C      1  0.4489950000000  0.5891610000000  0.5402930000000 1.0
C      1  0.4609250000000  0.4735200000000  0.4726440000000 1.0
C      1  0.5348060000000  0.3918580000000  0.5213060000000 1.0
C      1  0.6237850000000  0.4688410000000  0.4954940000000 1.0
C      1  0.4119490000000  0.4791550000000  0.5742050000000 1.0
C      1  0.5074950000000  0.4722570000000  0.4650230000000 1.0
C      1  0.3971620000000  0.4482910000000  0.5218830000000 1.0
C      1  0.4911380000000  0.4528050000000  0.5091750000000 1.0
C      1  0.4735410000000  0.5153690000000  0.6070530000000 1.0
C      1  0.4018460000000  0.5185250000000  0.4313680000000 1.0
C      1  0.5124990000000  0.4851930000000  0.5647730000000 1.0
C      1  0.4959320000000  0.5933250000000  0.4248810000000 1.0
C      1  0.5268770000000  0.4801350000000  0.5390510000000 1.0
C      1  0.5194590000000  0.4871000000000  0.4870910000000 1.0
C      1  0.5079730000000  0.5101840000000  0.3968150000000 1.0
C      1  0.4093280000000  0.5785140000000  0.5022270000000 1.0
C      1  0.5991630000000  0.4301060000000  0.5397270000000 1.0
C      1  0.5162380000000  0.5550360000000  0.4283730000000 1.0
C      1  0.5008560000000  0.5491720000000  0.4532890000000 1.0
C      1  0.4342700000000  0.4685170000000  0.4788720000000 1.0
C      1  0.5846140000000  0.4888030000000  0.5777410000000 1.0
C      1  0.4943400000000  0.4959860000000  0.4177270000000 1.0
C      1  0.5500370000000  0.4264400000000  0.5617230000000 1.0
C      1  0.5936820000000  0.4640150000000  0.5646970000000 1.0
C      1  0.5474180000000  0.5976390000000  0.5461300000000 1.0
C      1  0.5423160000000  0.4724760000000  0.6026960000000 1.0
C      1  0.3891400000000  0.4777990000000  0.5250070000000 1.0
C      1  0.4222330000000  0.5461710000000  0.5604810000000 1.0
C      1  0.5882370000000  0.4991960000000  0.4385790000000 1.0
C      1  0.6100310000000  0.4747160000000  0.5431660000000 1.0
C      1  0.4871740000000  0.5027330000000  0.5609750000000 1.0
C      1  0.4540750000000  0.4642200000000  0.5986770000000 1.0
C      1  0.4606880000000  0.4902720000000  0.5617700000000 1.0
C      1  0.5646360000000  0.6097430000000  0.5277000000000 1.0
C      1  0.4678830000000  0.5606490000000  0.4609890000000 1.0
C      1  0.4591730000000  0.4790940000000  0.5345900000000 1.0
C      1  0.5761340000000  0.4589920000000  0.4784870000000 1.0
C      1  0.5403570000000  0.4031030000000  0.4308900000000 1.0
END
