TITL C-883728-9229-343 -0.29223066666891 125000 -21076.1705988783 0 0 141 (C1) n - 1
REM
REM in /home/nfs/bkarasulu/CARBON/AIRSS/Generating-Clusters/ReaxFF-fromJPCA2015/Units_Real/with-SteepDescent/Only-C1/SD-CG/Try1-3A/FIRE-CG
REM
REM
REM
REM
REM
REM ./C.cell (11c1c37f851c82e70ff6c80c92926a4b)
REM
REM compiler GCC version 9.2.1 20190827 (Red Hat 9.2.1-1)
REM options -cpp -mtune=generic -march=x86-64 -g -O0 -fpre-include=/usr/include/finclude/math-vector-fortran.h
REM seed -1993905584 -1399596023 1739678913 312883084 1247650634 -1656495986 -1862485220 1069620862 472969185 1554518674 -1003829399 1816250069 1814371523 1811632214 663445307 845970087 -1204003220 -780938283 757775837 -696359186 1137114897 -1749661885 -1167481319 -1031423941 1537696796 -1768471294 -96163855 973452951 -2018120579 779326709 -1209124558 -97456252 -615350567
REM
CELL 1.54180   50.00000   50.00000   50.00000   90.00000   90.00000   90.00000
LATT -1
SFAC C  
C      1  0.5715400000000  0.5177540000000  0.4144850000000 1.0
C      1  0.4505740000000  0.4946330000000  0.4383300000000 1.0
C      1  0.5131200000000  0.5894610000000  0.4942740000000 1.0
C      1  0.6018610000000  0.5153410000000  0.5295660000000 1.0
C      1  0.5001940000000  0.4529780000000  0.4137090000000 1.0
C      1  0.4168850000000  0.5495710000000  0.4563240000000 1.0
C      1  0.4406070000000  0.5126800000000  0.4847690000000 1.0
C      1  0.5903450000000  0.4666040000000  0.5173530000000 1.0
C      1  0.3903110000000  0.4859570000000  0.4809450000000 1.0
C      1  0.4548650000000  0.4113440000000  0.5357510000000 1.0
C      1  0.5667740000000  0.5488360000000  0.5531000000000 1.0
C      1  0.5410030000000  0.4128010000000  0.5335550000000 1.0
C      1  0.5139880000000  0.5546440000000  0.4205840000000 1.0
C      1  0.4140330000000  0.5196680000000  0.4191160000000 1.0
C      1  0.4720280000000  0.5491860000000  0.5347110000000 1.0
C      1  0.4436950000000  0.4536900000000  0.5105800000000 1.0
C      1  0.4785790000000  0.4898750000000  0.4299620000000 1.0
C      1  0.4686380000000  0.4843950000000  0.6076060000000 1.0
C      1  0.4246230000000  0.4472080000000  0.5560380000000 1.0
C      1  0.4416790000000  0.5484180000000  0.4402810000000 1.0
C      1  0.5337930000000  0.5044580000000  0.4820160000000 1.0
C      1  0.5531780000000  0.4180880000000  0.5015360000000 1.0
C      1  0.5596990000000  0.5460740000000  0.4565990000000 1.0
C      1  0.4745230000000  0.4462050000000  0.4268570000000 1.0
C      1  0.4413140000000  0.4457290000000  0.4821920000000 1.0
C      1  0.4128470000000  0.5664530000000  0.4800180000000 1.0
C      1  0.4073340000000  0.4650530000000  0.5433790000000 1.0
C      1  0.3962390000000  0.4893650000000  0.5339080000000 1.0
C      1  0.4600990000000  0.5311860000000  0.4891940000000 1.0
C      1  0.4350650000000  0.4351580000000  0.5317860000000 1.0
C      1  0.5687260000000  0.4323880000000  0.4830510000000 1.0
C      1  0.5070220000000  0.4984190000000  0.5196150000000 1.0
C      1  0.5353400000000  0.4830110000000  0.4027150000000 1.0
C      1  0.4080580000000  0.4956180000000  0.4618810000000 1.0
C      1  0.4052500000000  0.5218820000000  0.4465820000000 1.0
C      1  0.5087290000000  0.4975940000000  0.5622410000000 1.0
C      1  0.5253860000000  0.4389580000000  0.4176640000000 1.0
C      1  0.4907720000000  0.4427110000000  0.5914670000000 1.0
C      1  0.5334680000000  0.4243790000000  0.4430020000000 1.0
C      1  0.4534210000000  0.5523400000000  0.5052820000000 1.0
C      1  0.5108980000000  0.5508850000000  0.5786010000000 1.0
C      1  0.4905760000000  0.5265070000000  0.4643910000000 1.0
C      1  0.5095330000000  0.4531260000000  0.5303850000000 1.0
C      1  0.5242560000000  0.4303600000000  0.5512160000000 1.0
C      1  0.4153440000000  0.5053790000000  0.5458900000000 1.0
C      1  0.5893400000000  0.5413940000000  0.5356130000000 1.0
C      1  0.5255260000000  0.5199910000000  0.5206150000000 1.0
C      1  0.5382510000000  0.4639150000000  0.5890380000000 1.0
C      1  0.5245630000000  0.5278560000000  0.4150910000000 1.0
C      1  0.5427270000000  0.5827010000000  0.4891470000000 1.0
C      1  0.4578290000000  0.5790460000000  0.4889400000000 1.0
C      1  0.4372020000000  0.5472470000000  0.5687460000000 1.0
C      1  0.4386910000000  0.5846570000000  0.5266510000000 1.0
C      1  0.5553270000000  0.5715060000000  0.5130200000000 1.0
C      1  0.4421540000000  0.5728780000000  0.5541210000000 1.0
C      1  0.6048800000000  0.5169190000000  0.4996320000000 1.0
C      1  0.5466460000000  0.5658620000000  0.5408910000000 1.0
C      1  0.4651480000000  0.4744770000000  0.5128090000000 1.0
C      1  0.5295030000000  0.4036860000000  0.4953950000000 1.0
C      1  0.4402910000000  0.4905330000000  0.4660330000000 1.0
C      1  0.5171760000000  0.4368010000000  0.4629930000000 1.0
C      1  0.4620660000000  0.4227910000000  0.4402720000000 1.0
C      1  0.5004600000000  0.5014450000000  0.4517100000000 1.0
C      1  0.5944650000000  0.4873340000000  0.5367610000000 1.0
C      1  0.4973970000000  0.4245720000000  0.5683860000000 1.0
C      1  0.5783570000000  0.5531530000000  0.5104900000000 1.0
C      1  0.4487440000000  0.4595890000000  0.5722740000000 1.0
C      1  0.5278710000000  0.5156540000000  0.5495820000000 1.0
C      1  0.5528710000000  0.4867490000000  0.5807310000000 1.0
C      1  0.5680110000000  0.4792860000000  0.5516500000000 1.0
C      1  0.5072160000000  0.5619460000000  0.4865390000000 1.0
C      1  0.4840500000000  0.6094720000000  0.4535350000000 1.0
C      1  0.4979040000000  0.4851830000000  0.6095650000000 1.0
C      1  0.4777500000000  0.4164520000000  0.5515590000000 1.0
C      1  0.5491740000000  0.5138660000000  0.5899490000000 1.0
C      1  0.5712180000000  0.4483450000000  0.5578070000000 1.0
C      1  0.5458820000000  0.5106990000000  0.4036450000000 1.0
C      1  0.5540480000000  0.4734090000000  0.4583080000000 1.0
C      1  0.5242500000000  0.5110000000000  0.4385370000000 1.0
C      1  0.5255200000000  0.4769870000000  0.5216530000000 1.0
C      1  0.5683210000000  0.4439800000000  0.4279390000000 1.0
C      1  0.5285510000000  0.4639940000000  0.4653420000000 1.0
C      1  0.5232700000000  0.5288010000000  0.5940750000000 1.0
C      1  0.5063150000000  0.4801120000000  0.4025600000000 1.0
C      1  0.4251140000000  0.5450720000000  0.5136850000000 1.0
C      1  0.4856060000000  0.5241520000000  0.4925670000000 1.0
C      1  0.4647790000000  0.4038570000000  0.4627330000000 1.0
C      1  0.5614780000000  0.4290880000000  0.4527930000000 1.0
C      1  0.4594970000000  0.5105830000000  0.5984290000000 1.0
C      1  0.4851990000000  0.5508850000000  0.4207290000000 1.0
C      1  0.4698660000000  0.4669660000000  0.5577990000000 1.0
C      1  0.5111840000000  0.4605680000000  0.6014820000000 1.0
C      1  0.4623550000000  0.5967620000000  0.5115240000000 1.0
C      1  0.5357350000000  0.5262520000000  0.4611240000000 1.0
C      1  0.4583780000000  0.4697160000000  0.4267590000000 1.0
C      1  0.4820990000000  0.5551780000000  0.5812670000000 1.0
C      1  0.5044310000000  0.5415310000000  0.5069330000000 1.0
C      1  0.6002360000000  0.4706560000000  0.4712830000000 1.0
C      1  0.4704180000000  0.5697260000000  0.5590250000000 1.0
C      1  0.5001460000000  0.5548450000000  0.5316110000000 1.0
C      1  0.4431630000000  0.4233160000000  0.4628270000000 1.0
C      1  0.5269020000000  0.5755270000000  0.4389450000000 1.0
C      1  0.5460290000000  0.4417500000000  0.5701290000000 1.0
C      1  0.4638400000000  0.5203640000000  0.5390950000000 1.0
C      1  0.5052600000000  0.5059890000000  0.5899820000000 1.0
C      1  0.4972090000000  0.4464670000000  0.5046280000000 1.0
C      1  0.4920540000000  0.6005300000000  0.5118230000000 1.0
C      1  0.5195430000000  0.5607070000000  0.5516090000000 1.0
C      1  0.4171470000000  0.5726040000000  0.5091580000000 1.0
C      1  0.5065910000000  0.5938950000000  0.4453290000000 1.0
C      1  0.6064650000000  0.4939320000000  0.4836640000000 1.0
C      1  0.4691720000000  0.4054840000000  0.5125010000000 1.0
C      1  0.4684640000000  0.5829280000000  0.4622060000000 1.0
C      1  0.5794650000000  0.4827950000000  0.4512960000000 1.0
C      1  0.4832610000000  0.4678800000000  0.4916850000000 1.0
C      1  0.5111530000000  0.4865470000000  0.4765150000000 1.0
C      1  0.5477690000000  0.5717000000000  0.4618430000000 1.0
C      1  0.5527120000000  0.5073970000000  0.5041940000000 1.0
C      1  0.4590030000000  0.4665560000000  0.4732710000000 1.0
C      1  0.4768130000000  0.4998640000000  0.5228580000000 1.0
C      1  0.5855370000000  0.5072470000000  0.4352840000000 1.0
C      1  0.5109810000000  0.5469970000000  0.4627780000000 1.0
C      1  0.3966150000000  0.4999840000000  0.5030060000000 1.0
C      1  0.4454000000000  0.5242140000000  0.4219930000000 1.0
C      1  0.4648150000000  0.4560250000000  0.5969770000000 1.0
C      1  0.5888290000000  0.4523000000000  0.4924310000000 1.0
C      1  0.4580700000000  0.5377710000000  0.5881540000000 1.0
C      1  0.4178170000000  0.5204350000000  0.4993610000000 1.0
C      1  0.5773020000000  0.5349980000000  0.4367770000000 1.0
C      1  0.4857170000000  0.5014530000000  0.4024300000000 1.0
C      1  0.4733770000000  0.5270190000000  0.4083500000000 1.0
C      1  0.5772220000000  0.5275990000000  0.4972540000000 1.0
C      1  0.4955630000000  0.4739190000000  0.5501460000000 1.0
C      1  0.4803930000000  0.4035360000000  0.4878270000000 1.0
C      1  0.5058370000000  0.4239210000000  0.4880510000000 1.0
C      1  0.5470300000000  0.4566750000000  0.4096440000000 1.0
C      1  0.5278420000000  0.3886560000000  0.5224960000000 1.0
C      1  0.4657950000000  0.5636410000000  0.4404690000000 1.0
C      1  0.5513450000000  0.5258300000000  0.5632460000000 1.0
C      1  0.5533150000000  0.4834940000000  0.5236960000000 1.0
C      1  0.4374880000000  0.5215570000000  0.5522200000000 1.0
END
