TITL C-883740-3686-262 0.0107915502595812 125000 -7186.04110134416 0 0 49 (C1) n - 1
REM
REM in /home/nfs/bkarasulu/CARBON/AIRSS/Generating-Clusters/ReaxFF-fromJPCA2015/Units_Real/with-SteepDescent/Only-C1/SD-CG/Try1-3A/FIRE-CG
REM
REM
REM
REM
REM
REM ./C.cell (11c1c37f851c82e70ff6c80c92926a4b)
REM
REM compiler GCC version 9.2.1 20190827 (Red Hat 9.2.1-1)
REM options -cpp -mtune=generic -march=x86-64 -g -O0 -fpre-include=/usr/include/finclude/math-vector-fortran.h
REM seed 1373065672 -1758881184 -898165188 -1293486116 -571385728 633517082 -1512032752 -870740782 449435106 532729505 878452744 1267084319 -210731526 -2035489657 -2134136853 -1961604959 -1982265802 -1781785604 -952698929 -667304636 1122597211 -866563715 1835857675 783015157 -1771475126 592365551 -1261982475 1253634865 -2107809259 1485194289 1337667494 -1204319328 603483489
REM
CELL 1.54180   50.00000   50.00000   50.00000   90.00000   90.00000   90.00000
LATT -1
SFAC C  
C      1  0.4326230000000  0.4936990000000  0.5218390000000 1.0
C      1  0.5537960000000  0.4572350000000  0.5226620000000 1.0
C      1  0.4897430000000  0.4949820000000  0.5503470000000 1.0
C      1  0.5332570000000  0.5118700000000  0.5631190000000 1.0
C      1  0.5650540000000  0.5040340000000  0.4952390000000 1.0
C      1  0.4965410000000  0.4988340000000  0.4995940000000 1.0
C      1  0.5016570000000  0.5512510000000  0.5579080000000 1.0
C      1  0.5512090000000  0.4710530000000  0.5465530000000 1.0
C      1  0.4917090000000  0.4836040000000  0.5247990000000 1.0
C      1  0.5514570000000  0.5101120000000  0.5172490000000 1.0
C      1  0.5257240000000  0.4659150000000  0.5626170000000 1.0
C      1  0.4287010000000  0.5204330000000  0.5302430000000 1.0
C      1  0.4504970000000  0.5232270000000  0.4900890000000 1.0
C      1  0.5353630000000  0.4656090000000  0.4536300000000 1.0
C      1  0.4840960000000  0.4504760000000  0.4789360000000 1.0
C      1  0.5261390000000  0.5189770000000  0.5001650000000 1.0
C      1  0.4436890000000  0.5046890000000  0.5464280000000 1.0
C      1  0.5166430000000  0.5147290000000  0.4499420000000 1.0
C      1  0.4427300000000  0.5389550000000  0.5138770000000 1.0
C      1  0.5605520000000  0.4793250000000  0.4498130000000 1.0
C      1  0.4695560000000  0.5135470000000  0.5545090000000 1.0
C      1  0.4927770000000  0.5460260000000  0.4145430000000 1.0
C      1  0.4798220000000  0.5228560000000  0.4922870000000 1.0
C      1  0.4759550000000  0.5414380000000  0.5506680000000 1.0
C      1  0.4908780000000  0.4811060000000  0.4267520000000 1.0
C      1  0.4663490000000  0.5510610000000  0.5249820000000 1.0
C      1  0.5081850000000  0.4333440000000  0.4794110000000 1.0
C      1  0.4954680000000  0.4551180000000  0.5266670000000 1.0
C      1  0.5216890000000  0.5542750000000  0.5382740000000 1.0
C      1  0.4879960000000  0.4798270000000  0.4756380000000 1.0
C      1  0.4713110000000  0.5376020000000  0.4293800000000 1.0
C      1  0.4494320000000  0.5020020000000  0.4536650000000 1.0
C      1  0.5343340000000  0.4441810000000  0.4732400000000 1.0
C      1  0.5078500000000  0.4446700000000  0.5525990000000 1.0
C      1  0.5538400000000  0.4447100000000  0.4974100000000 1.0
C      1  0.4568810000000  0.4826120000000  0.4729120000000 1.0
C      1  0.5159260000000  0.5448050000000  0.5114010000000 1.0
C      1  0.5001850000000  0.5370230000000  0.4404140000000 1.0
C      1  0.4397350000000  0.4958620000000  0.4937490000000 1.0
C      1  0.4694230000000  0.4906740000000  0.4199000000000 1.0
C      1  0.4919010000000  0.4371020000000  0.5036800000000 1.0
C      1  0.5261940000000  0.5393010000000  0.5617540000000 1.0
C      1  0.4533770000000  0.5126160000000  0.4276740000000 1.0
C      1  0.5525140000000  0.5000710000000  0.5450520000000 1.0
C      1  0.4878900000000  0.5475530000000  0.5048800000000 1.0
C      1  0.5090750000000  0.4847410000000  0.4490150000000 1.0
C      1  0.5361020000000  0.5200560000000  0.4705250000000 1.0
C      1  0.5126520000000  0.4918190000000  0.5663820000000 1.0
C      1  0.5615250000000  0.5049920000000  0.4675870000000 1.0
END
