TITL C-884135-4325-94 -5.08333198853232 125000 -12272.5854661522 0 0 83 (C1) n - 1
REM
REM in /home/nfs/bkarasulu/CARBON/AIRSS/Generating-Clusters/ReaxFF-fromJPCA2015/Units_Real/with-SteepDescent/Only-C1/SD-CG/Try1-3A/FIRE-CG
REM
REM
REM
REM
REM
REM ./C.cell (11c1c37f851c82e70ff6c80c92926a4b)
REM
REM compiler GCC version 9.2.1 20190827 (Red Hat 9.2.1-1)
REM options -cpp -mtune=generic -march=x86-64 -g -O0 -fpre-include=/usr/include/finclude/math-vector-fortran.h
REM seed 1420758122 403621053 1591565443 -337194410 -2118187254 1936527623 827961112 -56631652 -1889117271 110018846 -1615001373 2143550383 1963741082 909719086 -1645447441 847444400 -1993299357 565276784 -2099087291 711218965 -1769369693 -1495050851 -348191221 -244134630 -1302497996 -277015899 505671433 1539137366 822574388 1381747502 -496709159 -2096786325 -1437197870
REM
CELL 1.54180   50.00000   50.00000   50.00000   90.00000   90.00000   90.00000
LATT -1
SFAC C  
C      1  0.5531060000000  0.5363400000000  0.4244650000000 1.0
C      1  0.5271940000000  0.5517660000000  0.4247200000000 1.0
C      1  0.4748910000000  0.4731050000000  0.4096450000000 1.0
C      1  0.5205490000000  0.4958730000000  0.4093790000000 1.0
C      1  0.4735140000000  0.4922170000000  0.4650210000000 1.0
C      1  0.5609010000000  0.5182960000000  0.5598550000000 1.0
C      1  0.5678210000000  0.4668060000000  0.4892960000000 1.0
C      1  0.4640940000000  0.5613730000000  0.5187700000000 1.0
C      1  0.5514430000000  0.5097260000000  0.5172310000000 1.0
C      1  0.5170890000000  0.4471970000000  0.5506620000000 1.0
C      1  0.4467540000000  0.5307110000000  0.4518180000000 1.0
C      1  0.5139670000000  0.4816130000000  0.5091100000000 1.0
C      1  0.4845210000000  0.4363050000000  0.5199350000000 1.0
C      1  0.5708650000000  0.5000640000000  0.5388450000000 1.0
C      1  0.5129380000000  0.4193710000000  0.4753860000000 1.0
C      1  0.5358600000000  0.4787700000000  0.4581780000000 1.0
C      1  0.4724430000000  0.5654670000000  0.4744690000000 1.0
C      1  0.4019550000000  0.4736060000000  0.4840630000000 1.0
C      1  0.4556520000000  0.5481210000000  0.5436770000000 1.0
C      1  0.4986830000000  0.5372090000000  0.5761290000000 1.0
C      1  0.5147940000000  0.4797150000000  0.4813080000000 1.0
C      1  0.5056980000000  0.5353460000000  0.4152280000000 1.0
C      1  0.5582760000000  0.4735680000000  0.5350810000000 1.0
C      1  0.5100570000000  0.4622740000000  0.5724970000000 1.0
C      1  0.4457600000000  0.4813020000000  0.4552390000000 1.0
C      1  0.4817000000000  0.4642000000000  0.5629200000000 1.0
C      1  0.4510820000000  0.5581070000000  0.4923970000000 1.0
C      1  0.4665970000000  0.4401840000000  0.4967020000000 1.0
C      1  0.5447630000000  0.4985600000000  0.5710830000000 1.0
C      1  0.5671070000000  0.4985240000000  0.4884370000000 1.0
C      1  0.4676440000000  0.5060520000000  0.5659990000000 1.0
C      1  0.4912980000000  0.4932330000000  0.5204070000000 1.0
C      1  0.4727570000000  0.5354740000000  0.5641360000000 1.0
C      1  0.5236020000000  0.4880760000000  0.5835620000000 1.0
C      1  0.5196390000000  0.5746530000000  0.4696650000000 1.0
C      1  0.4356740000000  0.5358500000000  0.4790030000000 1.0
C      1  0.5754870000000  0.5427840000000  0.4769430000000 1.0
C      1  0.4363050000000  0.5273010000000  0.5354240000000 1.0
C      1  0.5251750000000  0.5499030000000  0.5729440000000 1.0
C      1  0.4606650000000  0.4795360000000  0.6109420000000 1.0
C      1  0.5534260000000  0.5326940000000  0.4570010000000 1.0
C      1  0.5417000000000  0.5146950000000  0.4115500000000 1.0
C      1  0.5293170000000  0.5527560000000  0.4543060000000 1.0
C      1  0.5149210000000  0.4344510000000  0.5265070000000 1.0
C      1  0.5650160000000  0.5671620000000  0.4947290000000 1.0
C      1  0.4677430000000  0.4343980000000  0.4651420000000 1.0
C      1  0.4820000000000  0.4894630000000  0.5470170000000 1.0
C      1  0.4823570000000  0.5172950000000  0.4757440000000 1.0
C      1  0.4844450000000  0.5176170000000  0.5064200000000 1.0
C      1  0.4211230000000  0.5051000000000  0.5507720000000 1.0
C      1  0.4693090000000  0.4460820000000  0.5422280000000 1.0
C      1  0.5516060000000  0.4541610000000  0.4702750000000 1.0
C      1  0.5339730000000  0.5360880000000  0.5995960000000 1.0
C      1  0.4463110000000  0.5058610000000  0.4365360000000 1.0
C      1  0.5334200000000  0.5340990000000  0.5248460000000 1.0
C      1  0.5522040000000  0.5036010000000  0.4643230000000 1.0
C      1  0.5400570000000  0.4342530000000  0.5104120000000 1.0
C      1  0.5908300000000  0.5210710000000  0.4864950000000 1.0
C      1  0.5210150000000  0.4752090000000  0.4298030000000 1.0
C      1  0.4892670000000  0.4510230000000  0.4538110000000 1.0
C      1  0.5386430000000  0.5746770000000  0.4887640000000 1.0
C      1  0.5387830000000  0.4297980000000  0.4815010000000 1.0
C      1  0.5620850000000  0.4530580000000  0.5146840000000 1.0
C      1  0.4275850000000  0.4799080000000  0.4871220000000 1.0
C      1  0.4640080000000  0.4914610000000  0.5899720000000 1.0
C      1  0.5357270000000  0.4874970000000  0.5238340000000 1.0
C      1  0.4931320000000  0.5645230000000  0.5142660000000 1.0
C      1  0.4653140000000  0.5003440000000  0.4142150000000 1.0
C      1  0.5128700000000  0.5154710000000  0.5939280000000 1.0
C      1  0.4526320000000  0.5165620000000  0.5143560000000 1.0
C      1  0.4457730000000  0.4530650000000  0.4465330000000 1.0
C      1  0.4971720000000  0.4601730000000  0.4266510000000 1.0
C      1  0.4735790000000  0.5398390000000  0.4599740000000 1.0
C      1  0.4258290000000  0.4769710000000  0.5472120000000 1.0
C      1  0.4885110000000  0.4147830000000  0.4705560000000 1.0
C      1  0.4969070000000  0.5762060000000  0.4871020000000 1.0
C      1  0.4320680000000  0.5122580000000  0.4951390000000 1.0
C      1  0.5061280000000  0.5389210000000  0.5171540000000 1.0
C      1  0.5428970000000  0.5409330000000  0.5511760000000 1.0
C      1  0.4904820000000  0.4718700000000  0.4716050000000 1.0
C      1  0.4450990000000  0.4568240000000  0.5047590000000 1.0
C      1  0.4934190000000  0.5125350000000  0.4087170000000 1.0
C      1  0.4429960000000  0.4566660000000  0.5326990000000 1.0
END
