TITL C-883730-8503-107 14.3220550767928 125000 -22590.9220831056 0 0 153 (C1) n - 1
REM
REM in /home/nfs/bkarasulu/CARBON/AIRSS/Generating-Clusters/ReaxFF-fromJPCA2015/Units_Real/with-SteepDescent/Only-C1/SD-CG/Try1-3A/FIRE-CG
REM
REM
REM
REM
REM
REM ./C.cell (11c1c37f851c82e70ff6c80c92926a4b)
REM
REM compiler GCC version 9.2.1 20190827 (Red Hat 9.2.1-1)
REM options -cpp -mtune=generic -march=x86-64 -g -O0 -fpre-include=/usr/include/finclude/math-vector-fortran.h
REM seed -648146099 1648766249 1197843538 1036997253 -251996892 -1606589337 2077598673 292882467 882613013 -1189467987 -1043902133 1459373030 551139442 1392097233 -1701599729 -83536071 341619310 224978546 -2084239881 -2082616293 967315786 -1605155688 -601912314 1056603572 1831876909 1374866276 879435296 -1090675990 -614928099 836258131 2028756939 354429739 1463826319
REM
CELL 1.54180   50.00000   50.00000   50.00000   90.00000   90.00000   90.00000
LATT -1
SFAC C  
C      1  0.4868610000000  0.5197760000000  0.4904510000000 1.0
C      1  0.4979070000000  0.5047490000000  0.5676150000000 1.0
C      1  0.5298650000000  0.5297580000000  0.4039630000000 1.0
C      1  0.5456100000000  0.4530920000000  0.4259740000000 1.0
C      1  0.4949240000000  0.5107120000000  0.5960700000000 1.0
C      1  0.5285000000000  0.4184410000000  0.4552840000000 1.0
C      1  0.5222200000000  0.4911670000000  0.5612510000000 1.0
C      1  0.4835820000000  0.4663710000000  0.4343990000000 1.0
C      1  0.4005570000000  0.4464300000000  0.4946400000000 1.0
C      1  0.5267090000000  0.4767350000000  0.5923580000000 1.0
C      1  0.5220140000000  0.5139780000000  0.4683410000000 1.0
C      1  0.4879910000000  0.5541470000000  0.3954190000000 1.0
C      1  0.5005710000000  0.4293630000000  0.4160240000000 1.0
C      1  0.4574120000000  0.5877120000000  0.5306770000000 1.0
C      1  0.5444510000000  0.5216890000000  0.5930030000000 1.0
C      1  0.5478430000000  0.4958920000000  0.4432990000000 1.0
C      1  0.4170400000000  0.4252940000000  0.5074990000000 1.0
C      1  0.4437760000000  0.5506070000000  0.5764480000000 1.0
C      1  0.5849780000000  0.4682320000000  0.4606360000000 1.0
C      1  0.5118860000000  0.4447050000000  0.4907590000000 1.0
C      1  0.4925490000000  0.4486150000000  0.3954740000000 1.0
C      1  0.5196670000000  0.5030220000000  0.4047570000000 1.0
C      1  0.4176490000000  0.4932680000000  0.5660970000000 1.0
C      1  0.4508320000000  0.5618060000000  0.4271610000000 1.0
C      1  0.5547050000000  0.4184790000000  0.4879760000000 1.0
C      1  0.4903650000000  0.3977390000000  0.4938930000000 1.0
C      1  0.4365330000000  0.4296620000000  0.4719760000000 1.0
C      1  0.4601100000000  0.4402670000000  0.4805570000000 1.0
C      1  0.4659510000000  0.5288570000000  0.4722820000000 1.0
C      1  0.5980790000000  0.4853350000000  0.5112330000000 1.0
C      1  0.3999340000000  0.5405050000000  0.5516880000000 1.0
C      1  0.4265180000000  0.5400460000000  0.4935200000000 1.0
C      1  0.5780970000000  0.5662980000000  0.4826900000000 1.0
C      1  0.4825060000000  0.4479960000000  0.5813980000000 1.0
C      1  0.5143910000000  0.5508820000000  0.3919410000000 1.0
C      1  0.5044940000000  0.4704010000000  0.3797240000000 1.0
C      1  0.5665890000000  0.4511220000000  0.4455030000000 1.0
C      1  0.4976390000000  0.5840940000000  0.4303470000000 1.0
C      1  0.5099760000000  0.4354120000000  0.5432430000000 1.0
C      1  0.5192230000000  0.5327120000000  0.5251350000000 1.0
C      1  0.5387270000000  0.5623770000000  0.4570740000000 1.0
C      1  0.4909350000000  0.4522120000000  0.5521800000000 1.0
C      1  0.5593870000000  0.4888060000000  0.4941790000000 1.0
C      1  0.5044360000000  0.5756200000000  0.4031390000000 1.0
C      1  0.5402450000000  0.4910800000000  0.4703100000000 1.0
C      1  0.5270740000000  0.4304590000000  0.4288460000000 1.0
C      1  0.4171640000000  0.4686850000000  0.4481230000000 1.0
C      1  0.5890440000000  0.4842130000000  0.5364300000000 1.0
C      1  0.3926160000000  0.5244160000000  0.5288890000000 1.0
C      1  0.5465240000000  0.4368660000000  0.4638270000000 1.0
C      1  0.5350800000000  0.4357900000000  0.5971380000000 1.0
C      1  0.5681270000000  0.5126030000000  0.5686550000000 1.0
C      1  0.4420940000000  0.5629630000000  0.5330370000000 1.0
C      1  0.4718780000000  0.5754680000000  0.4430090000000 1.0
C      1  0.4730310000000  0.5974310000000  0.4806190000000 1.0
C      1  0.4477620000000  0.5029080000000  0.5158500000000 1.0
C      1  0.5244760000000  0.5033140000000  0.6033850000000 1.0
C      1  0.4620470000000  0.3984910000000  0.5007210000000 1.0
C      1  0.5404750000000  0.5380220000000  0.5059510000000 1.0
C      1  0.5033130000000  0.4205970000000  0.4743170000000 1.0
C      1  0.4767630000000  0.4670970000000  0.5318580000000 1.0
C      1  0.4608800000000  0.4433650000000  0.5128630000000 1.0
C      1  0.5358300000000  0.4099060000000  0.5093140000000 1.0
C      1  0.4698200000000  0.4912490000000  0.6052910000000 1.0
C      1  0.5812870000000  0.5610660000000  0.5110480000000 1.0
C      1  0.4318420000000  0.4458330000000  0.5220670000000 1.0
C      1  0.5306700000000  0.6013750000000  0.5188700000000 1.0
C      1  0.5234390000000  0.4612820000000  0.4703980000000 1.0
C      1  0.5663460000000  0.5514870000000  0.4387660000000 1.0
C      1  0.5950060000000  0.5199470000000  0.4719560000000 1.0
C      1  0.5843300000000  0.5450140000000  0.4638450000000 1.0
C      1  0.5312460000000  0.4815260000000  0.4257360000000 1.0
C      1  0.4328020000000  0.4527000000000  0.4324510000000 1.0
C      1  0.5253660000000  0.5418220000000  0.4774630000000 1.0
C      1  0.4644310000000  0.5175900000000  0.4204410000000 1.0
C      1  0.4787150000000  0.5155640000000  0.5490870000000 1.0
C      1  0.4351700000000  0.4089540000000  0.4903680000000 1.0
C      1  0.4724540000000  0.5441500000000  0.4167440000000 1.0
C      1  0.4306200000000  0.4960530000000  0.4497190000000 1.0
C      1  0.5061010000000  0.5600170000000  0.5856360000000 1.0
C      1  0.4612010000000  0.4704230000000  0.5878010000000 1.0
C      1  0.4507260000000  0.5409610000000  0.5130240000000 1.0
C      1  0.5745200000000  0.4363630000000  0.4986380000000 1.0
C      1  0.4339180000000  0.5433850000000  0.4421290000000 1.0
C      1  0.5055690000000  0.5900840000000  0.4768760000000 1.0
C      1  0.5558270000000  0.5543970000000  0.5467020000000 1.0
C      1  0.4982450000000  0.5005720000000  0.4745860000000 1.0
C      1  0.4204810000000  0.4945600000000  0.5081930000000 1.0
C      1  0.4788580000000  0.4302310000000  0.4615540000000 1.0
C      1  0.5827350000000  0.4651210000000  0.4912600000000 1.0
C      1  0.5438900000000  0.4601920000000  0.5333360000000 1.0
C      1  0.4068790000000  0.5203100000000  0.5036080000000 1.0
C      1  0.4988840000000  0.4830790000000  0.5183340000000 1.0
C      1  0.4658090000000  0.4157860000000  0.5236050000000 1.0
C      1  0.5781610000000  0.5361160000000  0.5503610000000 1.0
C      1  0.4694010000000  0.5393400000000  0.5674160000000 1.0
C      1  0.5117910000000  0.3933520000000  0.5132910000000 1.0
C      1  0.4794200000000  0.5497390000000  0.4561150000000 1.0
C      1  0.5618520000000  0.4588100000000  0.5567530000000 1.0
C      1  0.5082780000000  0.4714760000000  0.4456850000000 1.0
C      1  0.5415290000000  0.4146730000000  0.5770730000000 1.0
C      1  0.5233910000000  0.4777900000000  0.5345330000000 1.0
C      1  0.4822400000000  0.5934510000000  0.5455960000000 1.0
C      1  0.5922580000000  0.5380610000000  0.5253690000000 1.0
C      1  0.4851670000000  0.5399660000000  0.5916040000000 1.0
C      1  0.4734560000000  0.4189040000000  0.5743010000000 1.0
C      1  0.4126360000000  0.4662260000000  0.5131160000000 1.0
C      1  0.4775570000000  0.4046150000000  0.5499330000000 1.0
C      1  0.5264170000000  0.4380550000000  0.5166780000000 1.0
C      1  0.5627160000000  0.5135570000000  0.5054040000000 1.0
C      1  0.5016390000000  0.6009320000000  0.5259010000000 1.0
C      1  0.4483680000000  0.5836440000000  0.4760860000000 1.0
C      1  0.4534730000000  0.4403970000000  0.4196220000000 1.0
C      1  0.4506800000000  0.5028050000000  0.4686530000000 1.0
C      1  0.5938400000000  0.5151690000000  0.5033590000000 1.0
C      1  0.5547940000000  0.5406490000000  0.4133430000000 1.0
C      1  0.5204120000000  0.4115780000000  0.5571010000000 1.0
C      1  0.4382810000000  0.5154750000000  0.4288620000000 1.0
C      1  0.4592030000000  0.4875320000000  0.4925460000000 1.0
C      1  0.5005450000000  0.5825220000000  0.5663450000000 1.0
C      1  0.5117340000000  0.4529830000000  0.5959600000000 1.0
C      1  0.4958530000000  0.5578380000000  0.4822540000000 1.0
C      1  0.5322000000000  0.5964460000000  0.4891900000000 1.0
C      1  0.5922610000000  0.4959910000000  0.4547820000000 1.0
C      1  0.5731330000000  0.5029310000000  0.4338540000000 1.0
C      1  0.5214210000000  0.5781810000000  0.5277640000000 1.0
C      1  0.4954250000000  0.5178360000000  0.5200970000000 1.0
C      1  0.4764680000000  0.4257300000000  0.4329510000000 1.0
C      1  0.4436890000000  0.4801590000000  0.5663630000000 1.0
C      1  0.4135470000000  0.4465730000000  0.4683600000000 1.0
C      1  0.5426540000000  0.5098500000000  0.5545650000000 1.0
C      1  0.5248390000000  0.5794480000000  0.5532910000000 1.0
C      1  0.4241290000000  0.5565580000000  0.5551250000000 1.0
C      1  0.4535180000000  0.5129640000000  0.6073690000000 1.0
C      1  0.5184020000000  0.5847730000000  0.4504170000000 1.0
C      1  0.4541810000000  0.5971720000000  0.5021840000000 1.0
C      1  0.4667640000000  0.4978050000000  0.4040190000000 1.0
C      1  0.3967220000000  0.5110480000000  0.5557140000000 1.0
C      1  0.4446420000000  0.5352040000000  0.6002250000000 1.0
C      1  0.4875560000000  0.4801590000000  0.4911920000000 1.0
C      1  0.4752630000000  0.5552580000000  0.5037740000000 1.0
C      1  0.5785650000000  0.4838540000000  0.5610150000000 1.0
C      1  0.5302570000000  0.5440380000000  0.5829960000000 1.0
C      1  0.4336420000000  0.5542650000000  0.4692110000000 1.0
C      1  0.5042500000000  0.3927160000000  0.5420880000000 1.0
C      1  0.4685960000000  0.4663540000000  0.4090790000000 1.0
C      1  0.5328780000000  0.5359080000000  0.5506770000000 1.0
C      1  0.5546100000000  0.5597940000000  0.5196070000000 1.0
C      1  0.4594110000000  0.4899590000000  0.5413780000000 1.0
C      1  0.5580180000000  0.4384240000000  0.5777070000000 1.0
C      1  0.4942860000000  0.4967860000000  0.3924550000000 1.0
C      1  0.5529070000000  0.5808380000000  0.4757510000000 1.0
C      1  0.5750740000000  0.5281740000000  0.4235870000000 1.0
END
