TITL C-883741-3679-56 6163248.05399665 125000 -24178.2630832694 0 0 162 (C1) n - 1
REM
REM in /home/nfs/bkarasulu/CARBON/AIRSS/Generating-Clusters/ReaxFF-fromJPCA2015/Units_Real/with-SteepDescent/Only-C1/SD-CG/Try1-3A/FIRE-CG
REM
REM
REM
REM
REM
REM ./C.cell (11c1c37f851c82e70ff6c80c92926a4b)
REM
REM compiler GCC version 9.2.1 20190827 (Red Hat 9.2.1-1)
REM options -cpp -mtune=generic -march=x86-64 -g -O0 -fpre-include=/usr/include/finclude/math-vector-fortran.h
REM seed -1378991874 -1716714354 61344354 -1528736757 1564646495 1324260238 -615050504 1686528945 412142277 684422157 1072103803 290223191 2079132383 -362866945 1109235763 -1141617048 -571021324 -619898289 277582196 2139721947 -1785908657 225923295 -23656724 276488090 -1427323069 -598232984 -805328725 419020580 -1807969688 -37609847 1539057621 -244379293 1943775256
REM
CELL 1.54180   50.00000   50.00000   50.00000   90.00000   90.00000   90.00000
LATT -1
SFAC C  
C      1  0.4101110000000  0.5383740000000  0.5126880000000 1.0
C      1  0.5467190000000  0.4326710000000  0.5677570000000 1.0
C      1  0.5189560000000  0.5067080000000  0.4019850000000 1.0
C      1  0.4142660000000  0.4798600000000  0.5609070000000 1.0
C      1  0.4734790000000  0.4107170000000  0.5404650000000 1.0
C      1  0.4289340000000  0.4834650000000  0.4248450000000 1.0
C      1  0.5526260000000  0.5115790000000  0.5351700000000 1.0
C      1  0.5516650000000  0.5586430000000  0.5424310000000 1.0
C      1  0.4640860000000  0.5231750000000  0.4528580000000 1.0
C      1  0.5358890000000  0.5795000000000  0.4421680000000 1.0
C      1  0.4506820000000  0.4984510000000  0.5156100000000 1.0
C      1  0.5554530000000  0.5322370000000  0.5554550000000 1.0
C      1  0.5749980000000  0.4258000000000  0.5264070000000 1.0
C      1  0.4882270000000  0.5750610000000  0.4255610000000 1.0
C      1  0.5673370000000  0.4370810000000  0.5503740000000 1.0
C      1  0.5507050000000  0.4801370000000  0.4763220000000 1.0
C      1  0.5082340000000  0.3974680000000  0.5082910000000 1.0
C      1  0.5874510000000  0.4781050000000  0.5234490000000 1.0
C      1  0.5635230000000  0.5880110000000  0.4731400000000 1.0
C      1  0.5185500000000  0.5773340000000  0.4188610000000 1.0
C      1  0.5986090000000  0.5129140000000  0.5580130000000 1.0
C      1  0.4707390000000  0.4298300000000  0.4918430000000 1.0
C      1  0.5768190000000  0.5197880000000  0.4545730000000 1.0
C      1  0.6003470000000  0.4891740000000  0.5433070000000 1.0
C      1  0.4939250000000  0.5952330000000  0.5124640000000 1.0
C      1  0.4294170000000  0.4437900000000  0.4505780000000 1.0
C      1  0.4922570000000  0.4372840000000  0.4283810000000 1.0
C      1  0.5296800000000  0.4735560000000  0.6164410000000 1.0
C      1  0.5221800000000  0.5389450000000  0.5059320000000 1.0
C      1  0.5378000000000  0.5157800000000  0.5107580000000 1.0
C      1  0.4689560000000  0.5474630000000  0.5819210000000 1.0
C      1  0.4686500000000  0.4121210000000  0.4672980000000 1.0
C      1  0.4495630000000  0.4258830000000  0.4536240000000 1.0
C      1  0.4272810000000  0.4244890000000  0.5153200000000 1.0
C      1  0.5596920000000  0.5057040000000  0.5950230000000 1.0
C      1  0.5224350000000  0.5960860000000  0.5261380000000 1.0
C      1  0.5204360000000  0.5602120000000  0.4883980000000 1.0
C      1  0.5856460000000  0.4687950000000  0.4450990000000 1.0
C      1  0.5017150000000  0.5713780000000  0.5617770000000 1.0
C      1  0.5439540000000  0.6025030000000  0.5081710000000 1.0
C      1  0.4820240000000  0.4773780000000  0.4015100000000 1.0
C      1  0.4776520000000  0.5345820000000  0.3951160000000 1.0
C      1  0.5241080000000  0.4174070000000  0.5537320000000 1.0
C      1  0.5447020000000  0.4282680000000  0.4856560000000 1.0
C      1  0.4744110000000  0.5424190000000  0.5190030000000 1.0
C      1  0.5904670000000  0.4492400000000  0.5174220000000 1.0
C      1  0.5022540000000  0.4397520000000  0.4555000000000 1.0
C      1  0.4960020000000  0.4173520000000  0.5621190000000 1.0
C      1  0.5350870000000  0.4895250000000  0.4969870000000 1.0
C      1  0.5984050000000  0.4715580000000  0.4724230000000 1.0
C      1  0.4907060000000  0.4330180000000  0.5840530000000 1.0
C      1  0.5971730000000  0.5276180000000  0.5334050000000 1.0
C      1  0.5530900000000  0.5404990000000  0.4138580000000 1.0
C      1  0.4697610000000  0.5178600000000  0.6099840000000 1.0
C      1  0.4275380000000  0.5496180000000  0.5631450000000 1.0
C      1  0.5283140000000  0.4783450000000  0.5752930000000 1.0
C      1  0.4745470000000  0.4793790000000  0.4504960000000 1.0
C      1  0.5001980000000  0.4684460000000  0.4568120000000 1.0
C      1  0.5012020000000  0.4737700000000  0.6115780000000 1.0
C      1  0.5243930000000  0.5087690000000  0.4512380000000 1.0
C      1  0.4505540000000  0.5673960000000  0.5680660000000 1.0
C      1  0.4969220000000  0.4770390000000  0.4830660000000 1.0
C      1  0.5126990000000  0.3963240000000  0.4789790000000 1.0
C      1  0.4035430000000  0.4571630000000  0.5148530000000 1.0
C      1  0.4670110000000  0.5051990000000  0.4028400000000 1.0
C      1  0.4680500000000  0.5579220000000  0.4094980000000 1.0
C      1  0.4457760000000  0.4148450000000  0.5327770000000 1.0
C      1  0.4342820000000  0.4434110000000  0.5934710000000 1.0
C      1  0.4831100000000  0.4959090000000  0.5980400000000 1.0
C      1  0.5513600000000  0.5057000000000  0.4624020000000 1.0
C      1  0.4153350000000  0.4535890000000  0.5736030000000 1.0
C      1  0.5608590000000  0.4831650000000  0.5364990000000 1.0
C      1  0.5012460000000  0.5354770000000  0.5226780000000 1.0
C      1  0.5886160000000  0.5181500000000  0.4852100000000 1.0
C      1  0.4872820000000  0.4583380000000  0.5506700000000 1.0
C      1  0.5074380000000  0.5114150000000  0.5378220000000 1.0
C      1  0.4554610000000  0.4851140000000  0.5900000000000 1.0
C      1  0.4560530000000  0.4594220000000  0.6036560000000 1.0
C      1  0.5192880000000  0.4238250000000  0.4216020000000 1.0
C      1  0.4537550000000  0.5024990000000  0.4869260000000 1.0
C      1  0.4844000000000  0.5021090000000  0.4917080000000 1.0
C      1  0.4490590000000  0.5760340000000  0.4519360000000 1.0
C      1  0.5349390000000  0.4711700000000  0.4180350000000 1.0
C      1  0.5116880000000  0.5261720000000  0.5809700000000 1.0
C      1  0.5295860000000  0.4624630000000  0.5067730000000 1.0
C      1  0.4353340000000  0.5196800000000  0.4544790000000 1.0
C      1  0.4183600000000  0.4952120000000  0.4497780000000 1.0
C      1  0.4711590000000  0.4551440000000  0.4168970000000 1.0
C      1  0.5685950000000  0.5593480000000  0.5189220000000 1.0
C      1  0.4845420000000  0.4492260000000  0.6055310000000 1.0
C      1  0.5655530000000  0.5829740000000  0.5022040000000 1.0
C      1  0.4870020000000  0.4688060000000  0.5238140000000 1.0
C      1  0.5655900000000  0.4467590000000  0.4425460000000 1.0
C      1  0.5104570000000  0.4793200000000  0.3986760000000 1.0
C      1  0.4429020000000  0.4577390000000  0.4276690000000 1.0
C      1  0.5606820000000  0.4909230000000  0.4143250000000 1.0
C      1  0.5640900000000  0.5720750000000  0.4483190000000 1.0
C      1  0.4796060000000  0.5416120000000  0.4666760000000 1.0
C      1  0.5149810000000  0.6127620000000  0.4669460000000 1.0
C      1  0.5041480000000  0.5434280000000  0.3927010000000 1.0
C      1  0.4829410000000  0.4105760000000  0.5135440000000 1.0
C      1  0.5741710000000  0.5205300000000  0.5749560000000 1.0
C      1  0.4574230000000  0.4555700000000  0.4942700000000 1.0
C      1  0.4722300000000  0.5787930000000  0.5530930000000 1.0
C      1  0.4388680000000  0.5073540000000  0.4112490000000 1.0
C      1  0.5511790000000  0.4161540000000  0.5106520000000 1.0
C      1  0.4205340000000  0.5539410000000  0.4894480000000 1.0
C      1  0.4935320000000  0.5133340000000  0.5635110000000 1.0
C      1  0.4977200000000  0.5538100000000  0.4477120000000 1.0
C      1  0.5570620000000  0.4767710000000  0.6042830000000 1.0
C      1  0.5805430000000  0.4946330000000  0.4341620000000 1.0
C      1  0.5236200000000  0.4804910000000  0.4444450000000 1.0
C      1  0.4722190000000  0.5552250000000  0.4919260000000 1.0
C      1  0.5487880000000  0.5139330000000  0.4030170000000 1.0
C      1  0.5144760000000  0.4685660000000  0.5526940000000 1.0
C      1  0.5411370000000  0.6087860000000  0.4786550000000 1.0
C      1  0.4543450000000  0.5258860000000  0.5334760000000 1.0
C      1  0.4911300000000  0.4964330000000  0.5193970000000 1.0
C      1  0.4528880000000  0.5944470000000  0.5021670000000 1.0
C      1  0.4736780000000  0.6111770000000  0.4918030000000 1.0
C      1  0.4671220000000  0.5921900000000  0.5282160000000 1.0
C      1  0.4130130000000  0.4539100000000  0.4751930000000 1.0
C      1  0.4070460000000  0.5056880000000  0.4882810000000 1.0
C      1  0.4090810000000  0.4394490000000  0.4983950000000 1.0
C      1  0.4787840000000  0.5047050000000  0.4351270000000 1.0
C      1  0.4714750000000  0.5919440000000  0.4459420000000 1.0
C      1  0.5627270000000  0.4483640000000  0.4732640000000 1.0
C      1  0.4270770000000  0.5394600000000  0.5363660000000 1.0
C      1  0.5880840000000  0.5371820000000  0.5088270000000 1.0
C      1  0.5283760000000  0.5553660000000  0.4026480000000 1.0
C      1  0.5935240000000  0.4917710000000  0.4928650000000 1.0
C      1  0.5073690000000  0.5144510000000  0.4284900000000 1.0
C      1  0.5266750000000  0.5758890000000  0.5458590000000 1.0
C      1  0.4431520000000  0.5720950000000  0.4829300000000 1.0
C      1  0.5363670000000  0.4666380000000  0.5343720000000 1.0
C      1  0.4164780000000  0.4731440000000  0.5320850000000 1.0
C      1  0.4485330000000  0.5341830000000  0.6027270000000 1.0
C      1  0.5508600000000  0.4606480000000  0.5795800000000 1.0
C      1  0.4921710000000  0.3943320000000  0.4580440000000 1.0
C      1  0.4287410000000  0.5266310000000  0.5824950000000 1.0
C      1  0.5231150000000  0.5584500000000  0.4590160000000 1.0
C      1  0.4402970000000  0.4401520000000  0.5644310000000 1.0
C      1  0.4053720000000  0.4829790000000  0.4731350000000 1.0
C      1  0.4325570000000  0.5313890000000  0.4274950000000 1.0
C      1  0.4225310000000  0.5257000000000  0.4915530000000 1.0
C      1  0.4588150000000  0.4580580000000  0.5493970000000 1.0
C      1  0.4469190000000  0.4700710000000  0.5225780000000 1.0
C      1  0.4854880000000  0.6101900000000  0.4649650000000 1.0
C      1  0.5103920000000  0.4016600000000  0.4375710000000 1.0
C      1  0.4457240000000  0.5577340000000  0.4283640000000 1.0
C      1  0.4567250000000  0.4751720000000  0.4733370000000 1.0
C      1  0.5314680000000  0.5055870000000  0.5875820000000 1.0
C      1  0.4706110000000  0.5275060000000  0.5575440000000 1.0
C      1  0.4951110000000  0.5722810000000  0.4944020000000 1.0
C      1  0.5012380000000  0.4557170000000  0.5021060000000 1.0
C      1  0.5290530000000  0.4063570000000  0.5270640000000 1.0
C      1  0.5204570000000  0.4237880000000  0.4717290000000 1.0
C      1  0.5680070000000  0.5449960000000  0.4382100000000 1.0
C      1  0.5900690000000  0.4493040000000  0.4882080000000 1.0
C      1  0.4317280000000  0.4980570000000  0.5768060000000 1.0
C      1  0.5433110000000  0.4426310000000  0.4247180000000 1.0
C      1  0.5005320000000  0.5528040000000  0.5829290000000 1.0
END
