TITL C-884138-6203-440 5.36765920413723 125000 -9629.19362903106 0 0 65 (C1) n - 1
REM
REM in /home/nfs/bkarasulu/CARBON/AIRSS/Generating-Clusters/ReaxFF-fromJPCA2015/Units_Real/with-SteepDescent/Only-C1/SD-CG/Try1-3A/FIRE-CG
REM
REM
REM
REM
REM
REM ./C.cell (11c1c37f851c82e70ff6c80c92926a4b)
REM
REM compiler GCC version 9.2.1 20190827 (Red Hat 9.2.1-1)
REM options -cpp -mtune=generic -march=x86-64 -g -O0 -fpre-include=/usr/include/finclude/math-vector-fortran.h
REM seed -403889248 46520911 -1001557462 891340052 -1267872072 -1354197537 -201008623 -2010059373 778638460 -226767236 -1617317388 1252196820 -1417126315 -32614080 -1238547343 1943326753 1719041718 -596732146 -357737547 627424343 646317283 2102801626 -396461673 1336826357 1845130551 315151200 -1814379100 1050588030 -425933906 855670946 1899803168 -257236638 -1463699953
REM
CELL 1.54180   50.00000   50.00000   50.00000   90.00000   90.00000   90.00000
LATT -1
SFAC C  
C      1  0.5539710000000  0.4344960000000  0.5253530000000 1.0
C      1  0.4795690000000  0.5631840000000  0.4708670000000 1.0
C      1  0.4870740000000  0.4915430000000  0.4350150000000 1.0
C      1  0.4796830000000  0.4468980000000  0.4718200000000 1.0
C      1  0.4521950000000  0.4826920000000  0.5557990000000 1.0
C      1  0.5776600000000  0.4955780000000  0.4573210000000 1.0
C      1  0.4465520000000  0.4435430000000  0.5275670000000 1.0
C      1  0.5566290000000  0.4987320000000  0.4375430000000 1.0
C      1  0.4705190000000  0.5349280000000  0.5561060000000 1.0
C      1  0.5408550000000  0.4791800000000  0.4868290000000 1.0
C      1  0.4573230000000  0.5532510000000  0.4598340000000 1.0
C      1  0.5708060000000  0.5245680000000  0.4945790000000 1.0
C      1  0.5663770000000  0.4777270000000  0.5057830000000 1.0
C      1  0.4948320000000  0.5613060000000  0.4471620000000 1.0
C      1  0.5060290000000  0.4596270000000  0.5532480000000 1.0
C      1  0.4570040000000  0.4650290000000  0.4664320000000 1.0
C      1  0.5551870000000  0.4854360000000  0.5361720000000 1.0
C      1  0.5073470000000  0.5126220000000  0.4308500000000 1.0
C      1  0.4895210000000  0.4681620000000  0.5340770000000 1.0
C      1  0.5088660000000  0.4722920000000  0.4391230000000 1.0
C      1  0.4807580000000  0.4257870000000  0.4931710000000 1.0
C      1  0.4203390000000  0.4977350000000  0.4927710000000 1.0
C      1  0.5062850000000  0.4538470000000  0.4617860000000 1.0
C      1  0.4654740000000  0.4575280000000  0.5476280000000 1.0
C      1  0.5087840000000  0.5404250000000  0.4343210000000 1.0
C      1  0.4461520000000  0.5270780000000  0.5407970000000 1.0
C      1  0.4773820000000  0.5596910000000  0.5425740000000 1.0
C      1  0.4076760000000  0.4821850000000  0.5154330000000 1.0
C      1  0.5701220000000  0.5208150000000  0.4473070000000 1.0
C      1  0.5355090000000  0.5483470000000  0.5017140000000 1.0
C      1  0.5302640000000  0.4601870000000  0.5571710000000 1.0
C      1  0.4325900000000  0.5408380000000  0.4657000000000 1.0
C      1  0.5333690000000  0.4317710000000  0.5024500000000 1.0
C      1  0.4457450000000  0.4995920000000  0.5317600000000 1.0
C      1  0.4577190000000  0.4210440000000  0.5136110000000 1.0
C      1  0.5708990000000  0.4486230000000  0.5092340000000 1.0
C      1  0.5297740000000  0.4535760000000  0.4801960000000 1.0
C      1  0.4629880000000  0.5603770000000  0.5169570000000 1.0
C      1  0.5069210000000  0.4256440000000  0.5011130000000 1.0
C      1  0.5557610000000  0.4582240000000  0.5464010000000 1.0
C      1  0.4926840000000  0.5162180000000  0.5655370000000 1.0
C      1  0.4967740000000  0.5040000000000  0.4752150000000 1.0
C      1  0.5285400000000  0.4939960000000  0.4344350000000 1.0
C      1  0.5407730000000  0.5524070000000  0.4736690000000 1.0
C      1  0.5103750000000  0.5148740000000  0.5118750000000 1.0
C      1  0.4848050000000  0.5604330000000  0.4986230000000 1.0
C      1  0.5522370000000  0.5303710000000  0.5160330000000 1.0
C      1  0.5247280000000  0.5178280000000  0.5604530000000 1.0
C      1  0.5228910000000  0.5572810000000  0.4512900000000 1.0
C      1  0.4756090000000  0.4945420000000  0.5654110000000 1.0
C      1  0.5224140000000  0.5029470000000  0.4876160000000 1.0
C      1  0.4643610000000  0.4906350000000  0.4538830000000 1.0
C      1  0.5082300000000  0.5484570000000  0.5112790000000 1.0
C      1  0.4644310000000  0.4987350000000  0.5088500000000 1.0
C      1  0.4349180000000  0.4712600000000  0.4843840000000 1.0
C      1  0.4695430000000  0.5058290000000  0.4797100000000 1.0
C      1  0.4286300000000  0.5265970000000  0.4933780000000 1.0
C      1  0.5648980000000  0.5378450000000  0.4692440000000 1.0
C      1  0.5221390000000  0.5438660000000  0.5541270000000 1.0
C      1  0.5452030000000  0.5119430000000  0.5394870000000 1.0
C      1  0.5790960000000  0.4980780000000  0.4862930000000 1.0
C      1  0.4269870000000  0.4589030000000  0.5092060000000 1.0
C      1  0.5062750000000  0.5616390000000  0.5397900000000 1.0
C      1  0.4905720000000  0.4959810000000  0.5208180000000 1.0
C      1  0.4403740000000  0.5412270000000  0.5158130000000 1.0
END
