TITL C-883728-9229-416 5.80603656744233 125000 -28737.4380220656 0 0 191 (C1) n - 1
REM
REM in /home/nfs/bkarasulu/CARBON/AIRSS/Generating-Clusters/ReaxFF-fromJPCA2015/Units_Real/with-SteepDescent/Only-C1/SD-CG/Try1-3A/FIRE-CG
REM
REM
REM
REM
REM
REM ./C.cell (11c1c37f851c82e70ff6c80c92926a4b)
REM
REM compiler GCC version 9.2.1 20190827 (Red Hat 9.2.1-1)
REM options -cpp -mtune=generic -march=x86-64 -g -O0 -fpre-include=/usr/include/finclude/math-vector-fortran.h
REM seed 411239533 -2123986553 1278821145 1691170048 836100682 -1779920245 -927213730 -1389207658 705239924 2001763784 1648779718 -368367833 -204155742 206952642 -1862949242 -900481568 1718048189 804972813 -78874314 1069405306 -122451555 -1288062354 -93829957 1426343525 -1929829087 -1685322879 760349489 -1949602171 -1981891031 1302134844 1943707007 125253147 -1213813762
REM
CELL 1.54180   50.00000   50.00000   50.00000   90.00000   90.00000   90.00000
LATT -1
SFAC C  
C      1  0.4229870000000  0.5753650000000  0.4998040000000 1.0
C      1  0.4579960000000  0.4866820000000  0.4774200000000 1.0
C      1  0.5202090000000  0.6059670000000  0.5114820000000 1.0
C      1  0.4778950000000  0.4162140000000  0.5576560000000 1.0
C      1  0.5101280000000  0.5290230000000  0.5498060000000 1.0
C      1  0.3995350000000  0.5237760000000  0.4599630000000 1.0
C      1  0.5011470000000  0.4300880000000  0.4128140000000 1.0
C      1  0.4936780000000  0.3927760000000  0.5065760000000 1.0
C      1  0.4122830000000  0.5224990000000  0.5378730000000 1.0
C      1  0.4406980000000  0.4315990000000  0.4303460000000 1.0
C      1  0.5477920000000  0.5478170000000  0.4339590000000 1.0
C      1  0.4555510000000  0.4515580000000  0.4144290000000 1.0
C      1  0.6112950000000  0.5260630000000  0.4789200000000 1.0
C      1  0.4323900000000  0.5377060000000  0.5776720000000 1.0
C      1  0.5300940000000  0.6182180000000  0.4890500000000 1.0
C      1  0.5668300000000  0.5589200000000  0.4531010000000 1.0
C      1  0.4886300000000  0.5816700000000  0.5405940000000 1.0
C      1  0.5263060000000  0.5418890000000  0.5297880000000 1.0
C      1  0.4895820000000  0.4870870000000  0.5613430000000 1.0
C      1  0.5087510000000  0.6028780000000  0.4492380000000 1.0
C      1  0.4778360000000  0.4672200000000  0.5407290000000 1.0
C      1  0.5206310000000  0.5498380000000  0.4473960000000 1.0
C      1  0.5988980000000  0.5158070000000  0.4276980000000 1.0
C      1  0.4828980000000  0.5584630000000  0.5897690000000 1.0
C      1  0.4554120000000  0.5361050000000  0.4167880000000 1.0
C      1  0.4367940000000  0.5007990000000  0.4017240000000 1.0
C      1  0.5538870000000  0.5505260000000  0.5739790000000 1.0
C      1  0.4637240000000  0.5639300000000  0.4302710000000 1.0
C      1  0.5075840000000  0.4299200000000  0.5580050000000 1.0
C      1  0.5739690000000  0.5312000000000  0.4979230000000 1.0
C      1  0.4998280000000  0.5434070000000  0.4943750000000 1.0
C      1  0.5297620000000  0.4841870000000  0.4665360000000 1.0
C      1  0.5252680000000  0.4951810000000  0.5147420000000 1.0
C      1  0.5819260000000  0.4258990000000  0.5491150000000 1.0
C      1  0.5608850000000  0.4851500000000  0.4075050000000 1.0
C      1  0.6168390000000  0.4996400000000  0.4909470000000 1.0
C      1  0.5605480000000  0.5239370000000  0.5907990000000 1.0
C      1  0.4025880000000  0.5045720000000  0.5605950000000 1.0
C      1  0.4727020000000  0.5671130000000  0.5187190000000 1.0
C      1  0.5433790000000  0.4850540000000  0.4924970000000 1.0
C      1  0.4905030000000  0.4603500000000  0.4601510000000 1.0
C      1  0.4006630000000  0.4769070000000  0.5516030000000 1.0
C      1  0.5236430000000  0.5140420000000  0.5697300000000 1.0
C      1  0.5332620000000  0.4854130000000  0.6151100000000 1.0
C      1  0.4439640000000  0.5837530000000  0.4477870000000 1.0
C      1  0.4270820000000  0.4486830000000  0.4872860000000 1.0
C      1  0.4129990000000  0.4989660000000  0.4168260000000 1.0
C      1  0.4625890000000  0.4152940000000  0.4708750000000 1.0
C      1  0.4455740000000  0.5287470000000  0.4978990000000 1.0
C      1  0.5148210000000  0.4482820000000  0.5356480000000 1.0
C      1  0.4639640000000  0.4743040000000  0.4304810000000 1.0
C      1  0.5219420000000  0.3952070000000  0.5064680000000 1.0
C      1  0.4724620000000  0.6134180000000  0.5086700000000 1.0
C      1  0.4671870000000  0.3956900000000  0.5201300000000 1.0
C      1  0.6062520000000  0.5190250000000  0.5369400000000 1.0
C      1  0.5138290000000  0.5765920000000  0.4143720000000 1.0
C      1  0.4540790000000  0.5616920000000  0.5903530000000 1.0
C      1  0.4308670000000  0.4717520000000  0.5521600000000 1.0
C      1  0.5777230000000  0.5135730000000  0.5466810000000 1.0
C      1  0.4490900000000  0.5183410000000  0.4382920000000 1.0
C      1  0.4599440000000  0.6058260000000  0.4567680000000 1.0
C      1  0.5757620000000  0.4863410000000  0.5333590000000 1.0
C      1  0.5411450000000  0.5131350000000  0.6099300000000 1.0
C      1  0.5402900000000  0.4013550000000  0.5298990000000 1.0
C      1  0.5139240000000  0.4503680000000  0.6046010000000 1.0
C      1  0.4940310000000  0.4422920000000  0.5855130000000 1.0
C      1  0.5678360000000  0.5041640000000  0.4887280000000 1.0
C      1  0.4714500000000  0.5246740000000  0.3952250000000 1.0
C      1  0.3975470000000  0.4400450000000  0.5148800000000 1.0
C      1  0.6158920000000  0.4965410000000  0.5204170000000 1.0
C      1  0.4160710000000  0.4763940000000  0.4385360000000 1.0
C      1  0.4011120000000  0.4743710000000  0.4647750000000 1.0
C      1  0.5389080000000  0.4605090000000  0.4535890000000 1.0
C      1  0.4366360000000  0.4991420000000  0.5317620000000 1.0
C      1  0.5666860000000  0.4508200000000  0.4567440000000 1.0
C      1  0.5934380000000  0.4175600000000  0.5232780000000 1.0
C      1  0.5530060000000  0.5753820000000  0.5005480000000 1.0
C      1  0.4192350000000  0.4761950000000  0.4878570000000 1.0
C      1  0.4197760000000  0.5692040000000  0.4554410000000 1.0
C      1  0.4816570000000  0.4735440000000  0.3894400000000 1.0
C      1  0.4446850000000  0.4694070000000  0.5805170000000 1.0
C      1  0.4853220000000  0.5822670000000  0.4182760000000 1.0
C      1  0.4614770000000  0.4973310000000  0.3892520000000 1.0
C      1  0.4362460000000  0.4431620000000  0.5438080000000 1.0
C      1  0.5141940000000  0.4458610000000  0.4620950000000 1.0
C      1  0.6073880000000  0.4532280000000  0.4876580000000 1.0
C      1  0.5073480000000  0.4339560000000  0.4869640000000 1.0
C      1  0.4704840000000  0.3911410000000  0.5479740000000 1.0
C      1  0.4891640000000  0.5093450000000  0.5424500000000 1.0
C      1  0.5320280000000  0.5921990000000  0.4324630000000 1.0
C      1  0.5495570000000  0.4242940000000  0.4229080000000 1.0
C      1  0.4460120000000  0.4151800000000  0.5121780000000 1.0
C      1  0.4843130000000  0.5199590000000  0.4983040000000 1.0
C      1  0.4669420000000  0.6055930000000  0.5348400000000 1.0
C      1  0.5550930000000  0.4105370000000  0.4708410000000 1.0
C      1  0.5331590000000  0.5222780000000  0.5113870000000 1.0
C      1  0.4585440000000  0.5173820000000  0.5420640000000 1.0
C      1  0.5273260000000  0.5349250000000  0.4866980000000 1.0
C      1  0.5655220000000  0.4212110000000  0.4452910000000 1.0
C      1  0.5492880000000  0.5957890000000  0.4808700000000 1.0
C      1  0.4459960000000  0.4890210000000  0.4475740000000 1.0
C      1  0.4769300000000  0.6173010000000  0.4816020000000 1.0
C      1  0.4628570000000  0.4170530000000  0.4432440000000 1.0
C      1  0.5876980000000  0.4885800000000  0.4239540000000 1.0
C      1  0.5531370000000  0.5854640000000  0.4526710000000 1.0
C      1  0.4893970000000  0.4083390000000  0.4804680000000 1.0
C      1  0.4578520000000  0.5420560000000  0.5206870000000 1.0
C      1  0.4802060000000  0.4453990000000  0.3989290000000 1.0
C      1  0.4924070000000  0.4789360000000  0.4362380000000 1.0
C      1  0.5164820000000  0.5047120000000  0.3967070000000 1.0
C      1  0.4200310000000  0.5476100000000  0.5522540000000 1.0
C      1  0.4389340000000  0.5775190000000  0.5739960000000 1.0
C      1  0.6021940000000  0.4740110000000  0.5337490000000 1.0
C      1  0.5074950000000  0.4004290000000  0.4566820000000 1.0
C      1  0.5311190000000  0.4362140000000  0.4060060000000 1.0
C      1  0.5010290000000  0.5293980000000  0.3944380000000 1.0
C      1  0.5942620000000  0.4826350000000  0.5802710000000 1.0
C      1  0.5456560000000  0.5379990000000  0.4063050000000 1.0
C      1  0.4538410000000  0.5213850000000  0.5693890000000 1.0
C      1  0.4719420000000  0.5540750000000  0.4572700000000 1.0
C      1  0.5228290000000  0.4409390000000  0.5096360000000 1.0
C      1  0.4022220000000  0.4327200000000  0.4872100000000 1.0
C      1  0.4907820000000  0.5319840000000  0.5981180000000 1.0
C      1  0.4814370000000  0.4724790000000  0.5135770000000 1.0
C      1  0.3964610000000  0.4455270000000  0.4605100000000 1.0
C      1  0.3890600000000  0.4671280000000  0.5260340000000 1.0
C      1  0.5197040000000  0.5508570000000  0.4007390000000 1.0
C      1  0.5579750000000  0.4496210000000  0.5834690000000 1.0
C      1  0.5291370000000  0.3992950000000  0.4763140000000 1.0
C      1  0.6070030000000  0.5468650000000  0.5288290000000 1.0
C      1  0.3938730000000  0.5196930000000  0.5113480000000 1.0
C      1  0.4524490000000  0.4343190000000  0.4896240000000 1.0
C      1  0.5489750000000  0.4543980000000  0.5049330000000 1.0
C      1  0.5668050000000  0.4347970000000  0.4849070000000 1.0
C      1  0.4736820000000  0.4622680000000  0.4859220000000 1.0
C      1  0.6008960000000  0.5432080000000  0.5000970000000 1.0
C      1  0.3958070000000  0.5351240000000  0.4859320000000 1.0
C      1  0.5172830000000  0.5892580000000  0.5327580000000 1.0
C      1  0.4176160000000  0.5107090000000  0.5844470000000 1.0
C      1  0.4343110000000  0.4898860000000  0.5974260000000 1.0
C      1  0.4151680000000  0.5431800000000  0.4430770000000 1.0
C      1  0.4642520000000  0.5282410000000  0.4593040000000 1.0
C      1  0.4214940000000  0.4256960000000  0.5249470000000 1.0
C      1  0.4158670000000  0.4452330000000  0.4383570000000 1.0
C      1  0.5553740000000  0.4667380000000  0.5308310000000 1.0
C      1  0.4370050000000  0.4967390000000  0.5018290000000 1.0
C      1  0.4924590000000  0.4137590000000  0.4351530000000 1.0
C      1  0.4249390000000  0.5764390000000  0.5499410000000 1.0
C      1  0.5843880000000  0.4577640000000  0.5838310000000 1.0
C      1  0.5569680000000  0.4285010000000  0.5644530000000 1.0
C      1  0.4392680000000  0.5948070000000  0.5314520000000 1.0
C      1  0.5791190000000  0.5075250000000  0.5760730000000 1.0
C      1  0.5700760000000  0.4036930000000  0.5326750000000 1.0
C      1  0.5220920000000  0.5244290000000  0.4606140000000 1.0
C      1  0.5573590000000  0.5519860000000  0.4827300000000 1.0
C      1  0.4878270000000  0.5654190000000  0.4795860000000 1.0
C      1  0.4607660000000  0.4957090000000  0.6098040000000 1.0
C      1  0.4747670000000  0.5091850000000  0.5860190000000 1.0
C      1  0.5035270000000  0.4802170000000  0.4065690000000 1.0
C      1  0.5351910000000  0.4664650000000  0.5917920000000 1.0
C      1  0.5093130000000  0.5726010000000  0.4609650000000 1.0
C      1  0.5335290000000  0.4142890000000  0.5546660000000 1.0
C      1  0.5767750000000  0.5031490000000  0.4619850000000 1.0
C      1  0.5012330000000  0.5707620000000  0.5690730000000 1.0
C      1  0.5192710000000  0.5269700000000  0.5958050000000 1.0
C      1  0.4777340000000  0.5077120000000  0.4745190000000 1.0
C      1  0.5050240000000  0.6203020000000  0.4742040000000 1.0
C      1  0.5633980000000  0.5507490000000  0.5479440000000 1.0
C      1  0.4062370000000  0.5632570000000  0.4822010000000 1.0
C      1  0.4789280000000  0.4737830000000  0.6151250000000 1.0
C      1  0.5449350000000  0.5092540000000  0.4005960000000 1.0
C      1  0.6014290000000  0.4615070000000  0.5605350000000 1.0
C      1  0.5462310000000  0.4614440000000  0.4060340000000 1.0
C      1  0.5067790000000  0.5002500000000  0.4582400000000 1.0
C      1  0.5198680000000  0.4848300000000  0.5667980000000 1.0
C      1  0.4700030000000  0.4575490000000  0.5917480000000 1.0
C      1  0.5879910000000  0.4761270000000  0.4517290000000 1.0
C      1  0.4472100000000  0.5819340000000  0.5092780000000 1.0
C      1  0.5955170000000  0.4306320000000  0.4964430000000 1.0
C      1  0.4797150000000  0.6042230000000  0.4358410000000 1.0
C      1  0.6114810000000  0.4759820000000  0.4739850000000 1.0
C      1  0.4001870000000  0.5219600000000  0.4305000000000 1.0
C      1  0.5862530000000  0.5539440000000  0.5478660000000 1.0
C      1  0.4650160000000  0.4414830000000  0.5473140000000 1.0
C      1  0.5920210000000  0.5283110000000  0.4547230000000 1.0
C      1  0.5076160000000  0.4729970000000  0.6214900000000 1.0
C      1  0.5272030000000  0.5613880000000  0.5721570000000 1.0
C      1  0.5290910000000  0.4727490000000  0.5399840000000 1.0
C      1  0.5408860000000  0.5684720000000  0.5274300000000 1.0
C      1  0.4943610000000  0.4987020000000  0.5146180000000 1.0
C      1  0.3890160000000  0.4930740000000  0.5153700000000 1.0
END
