TITL C-884130-5973-178 5.70231145516007 125000 -12555.9245811285 0 0 84 (C1) n - 1
REM
REM in /home/nfs/bkarasulu/CARBON/AIRSS/Generating-Clusters/ReaxFF-fromJPCA2015/Units_Real/with-SteepDescent/Only-C1/SD-CG/Try1-3A/FIRE-CG
REM
REM
REM
REM
REM
REM ./C.cell (11c1c37f851c82e70ff6c80c92926a4b)
REM
REM compiler GCC version 9.2.1 20190827 (Red Hat 9.2.1-1)
REM options -cpp -mtune=generic -march=x86-64 -g -O0 -fpre-include=/usr/include/finclude/math-vector-fortran.h
REM seed -1194564191 -1798740549 -2127131005 -107842491 569767778 266507484 159840405 -841390774 1463239211 -2128038389 -1294110190 976183263 -1233471646 -528875805 -615959436 79372526 -797335850 -1304270503 -180647957 1754880127 33047933 1151037520 1572580327 -105945979 1540042779 900624045 -289677265 -1228600340 765260938 -770424563 656923343 1379813789 101073460
REM
CELL 1.54180   50.00000   50.00000   50.00000   90.00000   90.00000   90.00000
LATT -1
SFAC C  
C      1  0.4618830000000  0.5593090000000  0.4945870000000 1.0
C      1  0.4671080000000  0.5177950000000  0.4737600000000 1.0
C      1  0.5089060000000  0.5776270000000  0.4980830000000 1.0
C      1  0.4580020000000  0.4242680000000  0.4978160000000 1.0
C      1  0.5136310000000  0.5651250000000  0.5238260000000 1.0
C      1  0.5432310000000  0.5662680000000  0.4597640000000 1.0
C      1  0.5428890000000  0.5415570000000  0.5523950000000 1.0
C      1  0.4973120000000  0.4079450000000  0.4759250000000 1.0
C      1  0.5501870000000  0.5112270000000  0.4413870000000 1.0
C      1  0.5872570000000  0.5018420000000  0.5233760000000 1.0
C      1  0.4753100000000  0.4295910000000  0.4470470000000 1.0
C      1  0.4290480000000  0.5331190000000  0.4579870000000 1.0
C      1  0.4851500000000  0.4362400000000  0.5415240000000 1.0
C      1  0.4337360000000  0.5512500000000  0.4810270000000 1.0
C      1  0.4549250000000  0.5702980000000  0.5238660000000 1.0
C      1  0.5715410000000  0.4605920000000  0.5657270000000 1.0
C      1  0.5636070000000  0.5490610000000  0.4731520000000 1.0
C      1  0.5163240000000  0.5414130000000  0.5633230000000 1.0
C      1  0.5368140000000  0.5784990000000  0.4863390000000 1.0
C      1  0.5882080000000  0.4832360000000  0.5600310000000 1.0
C      1  0.4873710000000  0.5068290000000  0.5887160000000 1.0
C      1  0.5225200000000  0.4442090000000  0.4540970000000 1.0
C      1  0.5120960000000  0.5169400000000  0.4891920000000 1.0
C      1  0.4530770000000  0.4701250000000  0.5645120000000 1.0
C      1  0.5044550000000  0.4145010000000  0.5036360000000 1.0
C      1  0.5849620000000  0.5099340000000  0.5507310000000 1.0
C      1  0.4285630000000  0.5622910000000  0.5198140000000 1.0
C      1  0.5262290000000  0.4293150000000  0.5160550000000 1.0
C      1  0.5383580000000  0.5010960000000  0.5748460000000 1.0
C      1  0.4636470000000  0.4824100000000  0.4424330000000 1.0
C      1  0.5683030000000  0.5203960000000  0.4637910000000 1.0
C      1  0.4898860000000  0.4935340000000  0.4497730000000 1.0
C      1  0.5775900000000  0.5027180000000  0.4830600000000 1.0
C      1  0.5261370000000  0.5262500000000  0.4354470000000 1.0
C      1  0.4237400000000  0.4950940000000  0.4874510000000 1.0
C      1  0.5155180000000  0.4365080000000  0.5431530000000 1.0
C      1  0.4690150000000  0.4149370000000  0.4720550000000 1.0
C      1  0.4579030000000  0.5504250000000  0.4340720000000 1.0
C      1  0.5268910000000  0.5189990000000  0.5125180000000 1.0
C      1  0.5005730000000  0.4863910000000  0.4098420000000 1.0
C      1  0.4933150000000  0.5608220000000  0.4542560000000 1.0
C      1  0.4296650000000  0.5108450000000  0.5364890000000 1.0
C      1  0.4634680000000  0.5174950000000  0.5769490000000 1.0
C      1  0.4685010000000  0.5561310000000  0.5452380000000 1.0
C      1  0.4161100000000  0.5430100000000  0.5029080000000 1.0
C      1  0.4623340000000  0.4901450000000  0.5851740000000 1.0
C      1  0.4745490000000  0.4732020000000  0.4163350000000 1.0
C      1  0.4925180000000  0.4752650000000  0.4960560000000 1.0
C      1  0.4864140000000  0.5710840000000  0.4810590000000 1.0
C      1  0.4587150000000  0.5271970000000  0.5475010000000 1.0
C      1  0.4209300000000  0.4655580000000  0.4904220000000 1.0
C      1  0.5295690000000  0.4542570000000  0.5591240000000 1.0
C      1  0.5289550000000  0.4765660000000  0.4104330000000 1.0
C      1  0.5725330000000  0.4533410000000  0.5380090000000 1.0
C      1  0.5049400000000  0.4229170000000  0.4508660000000 1.0
C      1  0.5705290000000  0.4558180000000  0.5108040000000 1.0
C      1  0.5554810000000  0.5599770000000  0.4988990000000 1.0
C      1  0.5344090000000  0.4994530000000  0.4936160000000 1.0
C      1  0.5430700000000  0.4713130000000  0.5744710000000 1.0
C      1  0.4637770000000  0.4530300000000  0.4343280000000 1.0
C      1  0.5128050000000  0.5151760000000  0.5763650000000 1.0
C      1  0.5303060000000  0.4708720000000  0.4864540000000 1.0
C      1  0.4752500000000  0.5293760000000  0.5007190000000 1.0
C      1  0.4659070000000  0.4722490000000  0.5002560000000 1.0
C      1  0.4386380000000  0.4890430000000  0.5497200000000 1.0
C      1  0.4461110000000  0.4515150000000  0.4991790000000 1.0
C      1  0.4331910000000  0.5456360000000  0.4316850000000 1.0
C      1  0.5433340000000  0.4489860000000  0.5025240000000 1.0
C      1  0.4741430000000  0.5146830000000  0.5247000000000 1.0
C      1  0.4944930000000  0.4970870000000  0.4777380000000 1.0
C      1  0.5210450000000  0.5526200000000  0.4463650000000 1.0
C      1  0.4790460000000  0.4203760000000  0.5175440000000 1.0
C      1  0.5572690000000  0.5191040000000  0.5623930000000 1.0
C      1  0.5459480000000  0.4832660000000  0.4338820000000 1.0
C      1  0.4975550000000  0.5582790000000  0.5465810000000 1.0
C      1  0.5850320000000  0.4837410000000  0.5022320000000 1.0
C      1  0.5390070000000  0.4642780000000  0.4572930000000 1.0
C      1  0.5380660000000  0.5456720000000  0.5214720000000 1.0
C      1  0.4407410000000  0.5057610000000  0.4651850000000 1.0
C      1  0.4811900000000  0.4832370000000  0.5225820000000 1.0
C      1  0.5029550000000  0.5082730000000  0.4294780000000 1.0
C      1  0.4750450000000  0.5382560000000  0.4511750000000 1.0
C      1  0.4180980000000  0.5138600000000  0.5103940000000 1.0
C      1  0.4731400000000  0.4620640000000  0.5450110000000 1.0
END
