TITL C-883734-4173-266 22.7896419917583 125000 -10116.360850652 0 0 69 (C1) n - 1
REM
REM in /home/nfs/bkarasulu/CARBON/AIRSS/Generating-Clusters/ReaxFF-fromJPCA2015/Units_Real/with-SteepDescent/Only-C1/SD-CG/Try1-3A/FIRE-CG
REM
REM
REM
REM
REM
REM ./C.cell (11c1c37f851c82e70ff6c80c92926a4b)
REM
REM compiler GCC version 9.2.1 20190827 (Red Hat 9.2.1-1)
REM options -cpp -mtune=generic -march=x86-64 -g -O0 -fpre-include=/usr/include/finclude/math-vector-fortran.h
REM seed -806910122 -1612893263 -451469189 -1437317592 1144641247 1945851690 -191111240 2056248344 824401207 471450890 2059370651 356566780 -1131616129 -355279824 973660207 980123880 -597655742 2092891119 -1616353091 -1059511183 1874708605 -705786009 -1726270787 -1992286266 -63338186 -218226812 -623895857 524048643 -476398963 1398027012 -1941858423 851959158 -534772994
REM
CELL 1.54180   50.00000   50.00000   50.00000   90.00000   90.00000   90.00000
LATT -1
SFAC C  
C      1  0.4898040000000  0.4638090000000  0.5613460000000 1.0
C      1  0.4340870000000  0.5198500000000  0.5377540000000 1.0
C      1  0.4746480000000  0.4463000000000  0.5067850000000 1.0
C      1  0.5474210000000  0.4994690000000  0.5735640000000 1.0
C      1  0.4984020000000  0.4826760000000  0.5723780000000 1.0
C      1  0.5094670000000  0.4470610000000  0.5390240000000 1.0
C      1  0.5430280000000  0.4438830000000  0.4608160000000 1.0
C      1  0.5395840000000  0.4388880000000  0.5427790000000 1.0
C      1  0.4234720000000  0.4952270000000  0.5256460000000 1.0
C      1  0.5648290000000  0.5578640000000  0.5284090000000 1.0
C      1  0.5621190000000  0.5039330000000  0.5257260000000 1.0
C      1  0.5015870000000  0.5245290000000  0.5663690000000 1.0
C      1  0.5378040000000  0.5464260000000  0.5197870000000 1.0
C      1  0.5048180000000  0.4801270000000  0.4846650000000 1.0
C      1  0.5318920000000  0.4378810000000  0.4876780000000 1.0
C      1  0.5605170000000  0.5404360000000  0.4432230000000 1.0
C      1  0.4582940000000  0.4770180000000  0.4725630000000 1.0
C      1  0.4700290000000  0.5209370000000  0.4281150000000 1.0
C      1  0.4960470000000  0.5731740000000  0.5040290000000 1.0
C      1  0.4630920000000  0.5145940000000  0.5049430000000 1.0
C      1  0.4932690000000  0.4315050000000  0.5179640000000 1.0
C      1  0.5323660000000  0.5176100000000  0.4649510000000 1.0
C      1  0.4907330000000  0.5121170000000  0.5414800000000 1.0
C      1  0.5071990000000  0.4221930000000  0.4933320000000 1.0
C      1  0.5690390000000  0.4707030000000  0.4909240000000 1.0
C      1  0.4450630000000  0.5237920000000  0.4400790000000 1.0
C      1  0.5597600000000  0.4731460000000  0.5683130000000 1.0
C      1  0.4598380000000  0.4509800000000  0.5292350000000 1.0
C      1  0.4427280000000  0.5703560000000  0.5206530000000 1.0
C      1  0.5347370000000  0.4977650000000  0.4411130000000 1.0
C      1  0.5616880000000  0.4575730000000  0.5422930000000 1.0
C      1  0.5223500000000  0.4448340000000  0.4402890000000 1.0
C      1  0.4959390000000  0.4286380000000  0.4681420000000 1.0
C      1  0.5721550000000  0.5424180000000  0.5527690000000 1.0
C      1  0.5147900000000  0.5627570000000  0.5280620000000 1.0
C      1  0.4342300000000  0.4736780000000  0.4916410000000 1.0
C      1  0.5623530000000  0.4867480000000  0.4441640000000 1.0
C      1  0.4797920000000  0.4669540000000  0.4890730000000 1.0
C      1  0.4282570000000  0.5231160000000  0.4564350000000 1.0
C      1  0.4167790000000  0.4961990000000  0.4965220000000 1.0
C      1  0.5264780000000  0.4651370000000  0.4976080000000 1.0
C      1  0.5089860000000  0.5478860000000  0.5510560000000 1.0
C      1  0.4912740000000  0.4452950000000  0.4453460000000 1.0
C      1  0.4620540000000  0.5079550000000  0.4791790000000 1.0
C      1  0.4684410000000  0.5730770000000  0.5085610000000 1.0
C      1  0.5084420000000  0.5085850000000  0.4783530000000 1.0
C      1  0.4832960000000  0.5402660000000  0.4454580000000 1.0
C      1  0.4738940000000  0.4692450000000  0.4447120000000 1.0
C      1  0.5134060000000  0.5009480000000  0.5261740000000 1.0
C      1  0.5654600000000  0.4650690000000  0.4639630000000 1.0
C      1  0.4404310000000  0.4712460000000  0.5205610000000 1.0
C      1  0.4641450000000  0.5213350000000  0.5311000000000 1.0
C      1  0.5076740000000  0.5578500000000  0.4515960000000 1.0
C      1  0.4696160000000  0.4659950000000  0.5496180000000 1.0
C      1  0.5698820000000  0.4765740000000  0.5178560000000 1.0
C      1  0.5652460000000  0.5131720000000  0.5536030000000 1.0
C      1  0.4240840000000  0.5445930000000  0.5269270000000 1.0
C      1  0.5747350000000  0.5136970000000  0.4436940000000 1.0
C      1  0.4850010000000  0.5241180000000  0.4701600000000 1.0
C      1  0.5199440000000  0.4722020000000  0.5248070000000 1.0
C      1  0.5033350000000  0.5661320000000  0.4773450000000 1.0
C      1  0.4148280000000  0.5459040000000  0.4986390000000 1.0
C      1  0.5347740000000  0.5457540000000  0.4579720000000 1.0
C      1  0.4315120000000  0.5686410000000  0.4949450000000 1.0
C      1  0.5367740000000  0.5170780000000  0.5187680000000 1.0
C      1  0.4816130000000  0.4914760000000  0.4276750000000 1.0
C      1  0.4140830000000  0.5211010000000  0.4806020000000 1.0
C      1  0.5087460000000  0.4906710000000  0.4331050000000 1.0
C      1  0.5178420000000  0.5018360000000  0.5775820000000 1.0
END
