TITL C-884133-6611-149 3.44369407345548 125000 -11593.5002645718 0 0 77 (C1) n - 1
REM
REM in /home/nfs/bkarasulu/CARBON/AIRSS/Generating-Clusters/ReaxFF-fromJPCA2015/Units_Real/with-SteepDescent/Only-C1/SD-CG/Try1-3A/FIRE-CG
REM
REM
REM
REM
REM
REM ./C.cell (11c1c37f851c82e70ff6c80c92926a4b)
REM
REM compiler GCC version 9.2.1 20190827 (Red Hat 9.2.1-1)
REM options -cpp -mtune=generic -march=x86-64 -g -O0 -fpre-include=/usr/include/finclude/math-vector-fortran.h
REM seed -260684438 -153128327 1441766866 119196251 -189402719 1836175166 -1466900883 306494093 -1997684773 1890630002 379071743 -1173200363 1961990068 1981373315 1562931534 1849734246 -1736383518 -1732135938 1299993009 1802668726 1712733721 -1476331340 -1909418765 -1598615934 1156112355 1244657476 -611165760 -1326969624 -1955822133 -2128915887 816346149 -1508900072 -609250883
REM
CELL 1.54180   50.00000   50.00000   50.00000   90.00000   90.00000   90.00000
LATT -1
SFAC C  
C      1  0.5664640000000  0.5100250000000  0.4601200000000 1.0
C      1  0.4812900000000  0.4724880000000  0.4235350000000 1.0
C      1  0.5427020000000  0.4231880000000  0.4878450000000 1.0
C      1  0.5423100000000  0.5722060000000  0.4991690000000 1.0
C      1  0.5243990000000  0.4572510000000  0.5668740000000 1.0
C      1  0.4701470000000  0.5112130000000  0.4952760000000 1.0
C      1  0.5090390000000  0.4906040000000  0.5104440000000 1.0
C      1  0.5165100000000  0.5783230000000  0.4940660000000 1.0
C      1  0.5072850000000  0.5238630000000  0.4119770000000 1.0
C      1  0.4905380000000  0.4455500000000  0.4595850000000 1.0
C      1  0.4121680000000  0.5022200000000  0.4977180000000 1.0
C      1  0.4693250000000  0.5475730000000  0.4652740000000 1.0
C      1  0.5063300000000  0.5699660000000  0.5496140000000 1.0
C      1  0.4673410000000  0.5421720000000  0.5349220000000 1.0
C      1  0.5328070000000  0.4829420000000  0.4388870000000 1.0
C      1  0.5009450000000  0.4436690000000  0.5287390000000 1.0
C      1  0.4243880000000  0.5250570000000  0.4834760000000 1.0
C      1  0.5448180000000  0.5573420000000  0.5249220000000 1.0
C      1  0.4816750000000  0.5571830000000  0.5587560000000 1.0
C      1  0.5343630000000  0.5267010000000  0.5612080000000 1.0
C      1  0.4869570000000  0.5452030000000  0.4422760000000 1.0
C      1  0.4675740000000  0.4987160000000  0.4270490000000 1.0
C      1  0.5024500000000  0.4903120000000  0.5550860000000 1.0
C      1  0.4945980000000  0.5794760000000  0.5265720000000 1.0
C      1  0.4839720000000  0.4853800000000  0.4958100000000 1.0
C      1  0.5409580000000  0.5313850000000  0.5195720000000 1.0
C      1  0.5614320000000  0.4687900000000  0.4963300000000 1.0
C      1  0.5412070000000  0.4544100000000  0.4502280000000 1.0
C      1  0.5186270000000  0.5186230000000  0.4781570000000 1.0
C      1  0.5103300000000  0.4667880000000  0.4235800000000 1.0
C      1  0.4682650000000  0.4690520000000  0.5669410000000 1.0
C      1  0.5517620000000  0.5031770000000  0.5545190000000 1.0
C      1  0.4974420000000  0.4744870000000  0.4726240000000 1.0
C      1  0.4700980000000  0.5634710000000  0.4892720000000 1.0
C      1  0.5692650000000  0.5008180000000  0.5305280000000 1.0
C      1  0.4832190000000  0.4297530000000  0.4848440000000 1.0
C      1  0.5484840000000  0.5084340000000  0.4365880000000 1.0
C      1  0.5042660000000  0.4228490000000  0.5032150000000 1.0
C      1  0.4177710000000  0.5158690000000  0.5235980000000 1.0
C      1  0.4540780000000  0.4926720000000  0.5548020000000 1.0
C      1  0.5114630000000  0.4330720000000  0.5564620000000 1.0
C      1  0.5642470000000  0.5212060000000  0.5099900000000 1.0
C      1  0.4521320000000  0.5556170000000  0.5112830000000 1.0
C      1  0.4837070000000  0.5316310000000  0.5730750000000 1.0
C      1  0.4975970000000  0.4693630000000  0.5750560000000 1.0
C      1  0.4608150000000  0.4427690000000  0.5554000000000 1.0
C      1  0.5320920000000  0.5296860000000  0.4242750000000 1.0
C      1  0.4671080000000  0.4562850000000  0.4429550000000 1.0
C      1  0.4284540000000  0.4785600000000  0.5066320000000 1.0
C      1  0.5087090000000  0.5164420000000  0.5679580000000 1.0
C      1  0.5449710000000  0.4741380000000  0.5519910000000 1.0
C      1  0.4924580000000  0.5789190000000  0.5009020000000 1.0
C      1  0.5154730000000  0.5198820000000  0.5089330000000 1.0
C      1  0.5283470000000  0.4082640000000  0.4980030000000 1.0
C      1  0.4706000000000  0.4403790000000  0.5274840000000 1.0
C      1  0.5325580000000  0.5547440000000  0.5507800000000 1.0
C      1  0.4611380000000  0.5201720000000  0.5593220000000 1.0
C      1  0.5142090000000  0.4942800000000  0.4635610000000 1.0
C      1  0.4511720000000  0.4976850000000  0.4503820000000 1.0
C      1  0.5643200000000  0.4883830000000  0.4777700000000 1.0
C      1  0.4846270000000  0.4310930000000  0.5662860000000 1.0
C      1  0.4836980000000  0.5278250000000  0.5137970000000 1.0
C      1  0.4478410000000  0.4702900000000  0.4598410000000 1.0
C      1  0.5535430000000  0.5545990000000  0.4779860000000 1.0
C      1  0.5163790000000  0.5502660000000  0.4410110000000 1.0
C      1  0.5283540000000  0.5437090000000  0.4669180000000 1.0
C      1  0.5533590000000  0.4473400000000  0.4761000000000 1.0
C      1  0.5161450000000  0.4444990000000  0.4405730000000 1.0
C      1  0.5690360000000  0.5304140000000  0.4826310000000 1.0
C      1  0.4608040000000  0.4407990000000  0.4998230000000 1.0
C      1  0.4337220000000  0.4925400000000  0.5327410000000 1.0
C      1  0.4521380000000  0.5215950000000  0.4703580000000 1.0
C      1  0.4807560000000  0.5248920000000  0.4204860000000 1.0
C      1  0.5615010000000  0.4729660000000  0.5270560000000 1.0
C      1  0.4434110000000  0.4617270000000  0.4882440000000 1.0
C      1  0.4274760000000  0.5405260000000  0.5078610000000 1.0
C      1  0.5080380000000  0.4742430000000  0.5320750000000 1.0
END
