TITL C-883732-77-85 7.40826408359326 125000 -8156.57569294667 0 0 56 (C1) n - 1
REM
REM in /home/nfs/bkarasulu/CARBON/AIRSS/Generating-Clusters/ReaxFF-fromJPCA2015/Units_Real/with-SteepDescent/Only-C1/SD-CG/Try1-3A/FIRE-CG
REM
REM
REM
REM
REM
REM ./C.cell (11c1c37f851c82e70ff6c80c92926a4b)
REM
REM compiler GCC version 9.2.1 20190827 (Red Hat 9.2.1-1)
REM options -cpp -mtune=generic -march=x86-64 -g -O0 -fpre-include=/usr/include/finclude/math-vector-fortran.h
REM seed 326093429 -541439987 22708835 1243256838 1899992210 1676504625 -382095318 -756889681 -1798285638 526178140 -1211432864 -1688666998 1289459834 -2101568279 1600237781 1514078564 -529904815 1462914083 257843445 934850696 -208055144 -160628725 971584308 -531212900 -86151988 522607611 -2049589904 1151545814 -2089272076 -1354952010 -1113155519 -1155017283 1862736050
REM
CELL 1.54180   50.00000   50.00000   50.00000   90.00000   90.00000   90.00000
LATT -1
SFAC C  
C      1  0.5605370000000  0.5277620000000  0.4955410000000 1.0
C      1  0.5653360000000  0.4642700000000  0.5011160000000 1.0
C      1  0.5128550000000  0.4723700000000  0.5720540000000 1.0
C      1  0.4847470000000  0.5502090000000  0.5426130000000 1.0
C      1  0.5531850000000  0.5450400000000  0.5435270000000 1.0
C      1  0.4538920000000  0.4655070000000  0.5431090000000 1.0
C      1  0.5224980000000  0.4575020000000  0.5067440000000 1.0
C      1  0.4483230000000  0.5110120000000  0.4531490000000 1.0
C      1  0.5327460000000  0.5555230000000  0.5415860000000 1.0
C      1  0.4397500000000  0.5282480000000  0.5327400000000 1.0
C      1  0.5034840000000  0.5012860000000  0.5753030000000 1.0
C      1  0.4764570000000  0.5537200000000  0.4680670000000 1.0
C      1  0.5206740000000  0.4423810000000  0.4604190000000 1.0
C      1  0.5113370000000  0.5732590000000  0.5050720000000 1.0
C      1  0.4949160000000  0.5271930000000  0.5064840000000 1.0
C      1  0.4265560000000  0.5192370000000  0.5096140000000 1.0
C      1  0.4679370000000  0.5208710000000  0.5013880000000 1.0
C      1  0.4552790000000  0.5421590000000  0.4846100000000 1.0
C      1  0.5034890000000  0.4558710000000  0.5514260000000 1.0
C      1  0.4494210000000  0.4832580000000  0.4473020000000 1.0
C      1  0.5450510000000  0.4711710000000  0.5204800000000 1.0
C      1  0.4322680000000  0.5286550000000  0.4709870000000 1.0
C      1  0.5351960000000  0.5002020000000  0.4471830000000 1.0
C      1  0.5112220000000  0.4827610000000  0.4461300000000 1.0
C      1  0.4645360000000  0.5333890000000  0.5499800000000 1.0
C      1  0.5065750000000  0.5659800000000  0.5348560000000 1.0
C      1  0.4744430000000  0.4773000000000  0.4819100000000 1.0
C      1  0.5559180000000  0.4600670000000  0.4723060000000 1.0
C      1  0.4223890000000  0.5132060000000  0.4855250000000 1.0
C      1  0.4751100000000  0.5310130000000  0.4496670000000 1.0
C      1  0.5726550000000  0.5042830000000  0.4814190000000 1.0
C      1  0.5295720000000  0.5283310000000  0.4541890000000 1.0
C      1  0.5026320000000  0.5270690000000  0.4490620000000 1.0
C      1  0.5555680000000  0.5243810000000  0.5244040000000 1.0
C      1  0.5098900000000  0.4543770000000  0.4417900000000 1.0
C      1  0.5342220000000  0.5660480000000  0.4905300000000 1.0
C      1  0.4443110000000  0.4730340000000  0.5156550000000 1.0
C      1  0.5351480000000  0.4454980000000  0.4818140000000 1.0
C      1  0.5114010000000  0.4845130000000  0.4958230000000 1.0
C      1  0.4853250000000  0.4464150000000  0.4431260000000 1.0
C      1  0.4661470000000  0.4504020000000  0.4789910000000 1.0
C      1  0.4755140000000  0.5087500000000  0.5664920000000 1.0
C      1  0.4609290000000  0.4922160000000  0.5009840000000 1.0
C      1  0.4974290000000  0.4880290000000  0.4708120000000 1.0
C      1  0.4968830000000  0.5522400000000  0.4901010000000 1.0
C      1  0.5874730000000  0.4851860000000  0.4990990000000 1.0
C      1  0.5130290000000  0.5051620000000  0.5134120000000 1.0
C      1  0.5278460000000  0.4955540000000  0.5619840000000 1.0
C      1  0.4997730000000  0.4447080000000  0.5281640000000 1.0
C      1  0.5568000000000  0.4881470000000  0.4625780000000 1.0
C      1  0.5450860000000  0.5440520000000  0.4767080000000 1.0
C      1  0.4706290000000  0.4431040000000  0.5290550000000 1.0
C      1  0.4596550000000  0.4549630000000  0.4502010000000 1.0
C      1  0.4532720000000  0.4471670000000  0.5053190000000 1.0
C      1  0.5377440000000  0.4983350000000  0.5323490000000 1.0
C      1  0.4649390000000  0.4876150000000  0.5550490000000 1.0
END
