TITL C-883729-9652-476 22.1698233085155 125000 -25647.4994239671 0 0 171 (C1) n - 1
REM
REM in /home/nfs/bkarasulu/CARBON/AIRSS/Generating-Clusters/ReaxFF-fromJPCA2015/Units_Real/with-SteepDescent/Only-C1/SD-CG/Try1-3A/FIRE-CG
REM
REM
REM
REM
REM
REM ./C.cell (11c1c37f851c82e70ff6c80c92926a4b)
REM
REM compiler GCC version 9.2.1 20190827 (Red Hat 9.2.1-1)
REM options -cpp -mtune=generic -march=x86-64 -g -O0 -fpre-include=/usr/include/finclude/math-vector-fortran.h
REM seed -1147114139 1288965125 1875619630 1294503786 509160204 -444115480 344243802 735224847 1185933748 436221472 1772958534 1888908261 -1386396958 -1289571739 1070705007 1838439373 1030053501 -1877583703 -365606631 978193703 -380520513 303326914 391461425 955658192 394698269 916412041 1074933405 676417228 1475770122 1028788615 1128427296 921387097 -87765249
REM
CELL 1.54180   50.00000   50.00000   50.00000   90.00000   90.00000   90.00000
LATT -1
SFAC C  
C      1  0.3909780000000  0.5161890000000  0.4692290000000 1.0
C      1  0.5102170000000  0.5151410000000  0.4289700000000 1.0
C      1  0.4324990000000  0.5170250000000  0.4749880000000 1.0
C      1  0.5170300000000  0.4037540000000  0.5366320000000 1.0
C      1  0.5600540000000  0.4196850000000  0.5071700000000 1.0
C      1  0.5247130000000  0.5667920000000  0.4178710000000 1.0
C      1  0.4726030000000  0.4234820000000  0.5715920000000 1.0
C      1  0.5351110000000  0.4723500000000  0.5056260000000 1.0
C      1  0.4832900000000  0.5636020000000  0.4461770000000 1.0
C      1  0.5247220000000  0.4360320000000  0.5765310000000 1.0
C      1  0.4971310000000  0.4773900000000  0.3899240000000 1.0
C      1  0.4574510000000  0.5486920000000  0.4483130000000 1.0
C      1  0.5170760000000  0.4399490000000  0.4764250000000 1.0
C      1  0.5063270000000  0.5894740000000  0.5392550000000 1.0
C      1  0.4655630000000  0.5327060000000  0.5466430000000 1.0
C      1  0.4116880000000  0.5111300000000  0.5200810000000 1.0
C      1  0.4819270000000  0.4675180000000  0.5622080000000 1.0
C      1  0.5069640000000  0.5311070000000  0.5102740000000 1.0
C      1  0.4528480000000  0.4938640000000  0.4079350000000 1.0
C      1  0.5552960000000  0.5700300000000  0.4743210000000 1.0
C      1  0.4852030000000  0.4225860000000  0.4234020000000 1.0
C      1  0.4252000000000  0.4469770000000  0.4410530000000 1.0
C      1  0.5827500000000  0.5630690000000  0.4823570000000 1.0
C      1  0.4292150000000  0.5595730000000  0.5329210000000 1.0
C      1  0.4232110000000  0.4756570000000  0.4462180000000 1.0
C      1  0.6003180000000  0.4688050000000  0.5307860000000 1.0
C      1  0.3965300000000  0.4501550000000  0.5189890000000 1.0
C      1  0.5378770000000  0.5279520000000  0.4385140000000 1.0
C      1  0.4146160000000  0.5605030000000  0.4924230000000 1.0
C      1  0.4549650000000  0.4823400000000  0.5189280000000 1.0
C      1  0.5360400000000  0.5174500000000  0.5464770000000 1.0
C      1  0.6080630000000  0.4973900000000  0.5278060000000 1.0
C      1  0.5790620000000  0.5338860000000  0.5475330000000 1.0
C      1  0.4932320000000  0.5013280000000  0.4793190000000 1.0
C      1  0.5832850000000  0.4683140000000  0.5550610000000 1.0
C      1  0.5128120000000  0.4118360000000  0.4230850000000 1.0
C      1  0.4962300000000  0.4412150000000  0.5717440000000 1.0
C      1  0.5059650000000  0.3950980000000  0.4449120000000 1.0
C      1  0.5301740000000  0.5836550000000  0.5853670000000 1.0
C      1  0.4525820000000  0.5344180000000  0.5897560000000 1.0
C      1  0.4698540000000  0.4002320000000  0.5212780000000 1.0
C      1  0.5407190000000  0.4201630000000  0.4299500000000 1.0
C      1  0.4710530000000  0.4711350000000  0.3991490000000 1.0
C      1  0.4693040000000  0.4477190000000  0.4861180000000 1.0
C      1  0.5308240000000  0.4598670000000  0.5902570000000 1.0
C      1  0.4147520000000  0.4733190000000  0.5598390000000 1.0
C      1  0.4993200000000  0.4911230000000  0.5528030000000 1.0
C      1  0.4204180000000  0.5005020000000  0.5693310000000 1.0
C      1  0.5684640000000  0.4315640000000  0.4678430000000 1.0
C      1  0.4813430000000  0.5299120000000  0.5898210000000 1.0
C      1  0.5544890000000  0.4684840000000  0.5498270000000 1.0
C      1  0.4751180000000  0.6058000000000  0.5045680000000 1.0
C      1  0.5367870000000  0.5275740000000  0.4820080000000 1.0
C      1  0.5220290000000  0.4032820000000  0.5074840000000 1.0
C      1  0.5033100000000  0.5554110000000  0.4678940000000 1.0
C      1  0.5740240000000  0.5514300000000  0.4247480000000 1.0
C      1  0.4551340000000  0.4388840000000  0.5919700000000 1.0
C      1  0.5611160000000  0.5146760000000  0.4517760000000 1.0
C      1  0.5349850000000  0.5375060000000  0.5090520000000 1.0
C      1  0.5821630000000  0.4918950000000  0.5720960000000 1.0
C      1  0.5576840000000  0.4752100000000  0.5216780000000 1.0
C      1  0.4411280000000  0.5077100000000  0.5894470000000 1.0
C      1  0.4235900000000  0.4416210000000  0.5224610000000 1.0
C      1  0.4878480000000  0.3999880000000  0.5417250000000 1.0
C      1  0.4858560000000  0.5586270000000  0.5925850000000 1.0
C      1  0.3941170000000  0.5226430000000  0.4406310000000 1.0
C      1  0.5651290000000  0.4995240000000  0.5096880000000 1.0
C      1  0.4110550000000  0.5298390000000  0.4897520000000 1.0
C      1  0.4157720000000  0.4229570000000  0.4577190000000 1.0
C      1  0.5314270000000  0.4825670000000  0.4585770000000 1.0
C      1  0.4607270000000  0.4614440000000  0.5405430000000 1.0
C      1  0.5833770000000  0.4255410000000  0.5237640000000 1.0
C      1  0.4334450000000  0.4536280000000  0.5471500000000 1.0
C      1  0.5583980000000  0.4140790000000  0.5364100000000 1.0
C      1  0.5637110000000  0.4667420000000  0.4197260000000 1.0
C      1  0.4983430000000  0.4892320000000  0.4356550000000 1.0
C      1  0.3827860000000  0.4719890000000  0.4997900000000 1.0
C      1  0.5490780000000  0.5438400000000  0.4131600000000 1.0
C      1  0.5680530000000  0.4967530000000  0.4806030000000 1.0
C      1  0.5198620000000  0.6012930000000  0.4879320000000 1.0
C      1  0.5524210000000  0.5131210000000  0.4001740000000 1.0
C      1  0.5566240000000  0.4427950000000  0.4275720000000 1.0
C      1  0.4685760000000  0.4210000000000  0.5419470000000 1.0
C      1  0.5160300000000  0.5072150000000  0.6086170000000 1.0
C      1  0.4603000000000  0.5995340000000  0.5290700000000 1.0
C      1  0.4908650000000  0.5210080000000  0.5572450000000 1.0
C      1  0.4426770000000  0.4416610000000  0.4969910000000 1.0
C      1  0.4439600000000  0.5387650000000  0.4246890000000 1.0
C      1  0.5876430000000  0.5757510000000  0.5100790000000 1.0
C      1  0.5162180000000  0.5368680000000  0.5500620000000 1.0
C      1  0.5100260000000  0.4637070000000  0.4269240000000 1.0
C      1  0.5031020000000  0.6031030000000  0.5104810000000 1.0
C      1  0.4778850000000  0.5894960000000  0.5497070000000 1.0
C      1  0.5328990000000  0.4305890000000  0.4994830000000 1.0
C      1  0.5204180000000  0.5058000000000  0.4712420000000 1.0
C      1  0.4818300000000  0.4848410000000  0.4591940000000 1.0
C      1  0.5464580000000  0.4772200000000  0.4804650000000 1.0
C      1  0.5091450000000  0.4613460000000  0.5146480000000 1.0
C      1  0.5355840000000  0.4846680000000  0.6033850000000 1.0
C      1  0.3853620000000  0.4918640000000  0.4805170000000 1.0
C      1  0.5614020000000  0.5854080000000  0.5189590000000 1.0
C      1  0.4269290000000  0.4896660000000  0.4208130000000 1.0
C      1  0.5710710000000  0.4931090000000  0.4117110000000 1.0
C      1  0.5916020000000  0.5518270000000  0.4432100000000 1.0
C      1  0.5695370000000  0.5511360000000  0.5700230000000 1.0
C      1  0.4522330000000  0.5344140000000  0.5215360000000 1.0
C      1  0.5137370000000  0.5613670000000  0.5982110000000 1.0
C      1  0.6114020000000  0.5179050000000  0.4760420000000 1.0
C      1  0.5548340000000  0.5773900000000  0.5681840000000 1.0
C      1  0.5327860000000  0.5513230000000  0.4634020000000 1.0
C      1  0.5061030000000  0.3920540000000  0.4890530000000 1.0
C      1  0.4699360000000  0.5736380000000  0.5726900000000 1.0
C      1  0.5199380000000  0.5859590000000  0.4377130000000 1.0
C      1  0.4664870000000  0.4659610000000  0.5909880000000 1.0
C      1  0.4085510000000  0.5192590000000  0.5494340000000 1.0
C      1  0.4048100000000  0.5474730000000  0.5454640000000 1.0
C      1  0.4376730000000  0.4172240000000  0.4764180000000 1.0
C      1  0.4390980000000  0.4727800000000  0.4955660000000 1.0
C      1  0.5225590000000  0.3964500000000  0.4672630000000 1.0
C      1  0.4798560000000  0.5921860000000  0.4588210000000 1.0
C      1  0.4780720000000  0.3962550000000  0.4937090000000 1.0
C      1  0.5951930000000  0.4483710000000  0.5106920000000 1.0
C      1  0.4922230000000  0.5492870000000  0.4932250000000 1.0
C      1  0.5544180000000  0.4949840000000  0.5827740000000 1.0
C      1  0.5079060000000  0.6001410000000  0.4594460000000 1.0
C      1  0.4546650000000  0.4475650000000  0.4392180000000 1.0
C      1  0.4975660000000  0.5582890000000  0.4173580000000 1.0
C      1  0.3877040000000  0.4911180000000  0.5215140000000 1.0
C      1  0.4786700000000  0.4038840000000  0.4456580000000 1.0
C      1  0.4687060000000  0.4601560000000  0.4618030000000 1.0
C      1  0.5834260000000  0.5056880000000  0.4366560000000 1.0
C      1  0.4411010000000  0.5076690000000  0.5242570000000 1.0
C      1  0.4624030000000  0.5207900000000  0.4109820000000 1.0
C      1  0.4326270000000  0.4877680000000  0.4718860000000 1.0
C      1  0.4936740000000  0.5056910000000  0.5077030000000 1.0
C      1  0.5220440000000  0.4690460000000  0.3990040000000 1.0
C      1  0.3923120000000  0.4693830000000  0.5410840000000 1.0
C      1  0.4355600000000  0.5866060000000  0.5193530000000 1.0
C      1  0.5579600000000  0.5240830000000  0.5254190000000 1.0
C      1  0.4066430000000  0.5098620000000  0.4192420000000 1.0
C      1  0.5334470000000  0.4948800000000  0.3933150000000 1.0
C      1  0.5881420000000  0.4488970000000  0.4807280000000 1.0
C      1  0.5215820000000  0.6023120000000  0.5655470000000 1.0
C      1  0.6041520000000  0.4964610000000  0.4561510000000 1.0
C      1  0.5463560000000  0.5898830000000  0.4925420000000 1.0
C      1  0.6105900000000  0.5089640000000  0.5024920000000 1.0
C      1  0.4020370000000  0.5604290000000  0.5188340000000 1.0
C      1  0.5347250000000  0.4908030000000  0.5594580000000 1.0
C      1  0.5485500000000  0.4143080000000  0.4573320000000 1.0
C      1  0.6027220000000  0.5461820000000  0.4678050000000 1.0
C      1  0.5486950000000  0.5717450000000  0.5415170000000 1.0
C      1  0.4688890000000  0.4447060000000  0.4140360000000 1.0
C      1  0.4148050000000  0.5354640000000  0.4250310000000 1.0
C      1  0.4944690000000  0.4841100000000  0.5255370000000 1.0
C      1  0.4627480000000  0.4031310000000  0.4704880000000 1.0
C      1  0.5505350000000  0.5416510000000  0.5892010000000 1.0
C      1  0.4649350000000  0.5420550000000  0.4960530000000 1.0
C      1  0.4613380000000  0.5942630000000  0.4808030000000 1.0
C      1  0.4877140000000  0.5072320000000  0.6083140000000 1.0
C      1  0.5224640000000  0.4559200000000  0.4521770000000 1.0
C      1  0.4949270000000  0.4453540000000  0.4949260000000 1.0
C      1  0.5223810000000  0.5627980000000  0.5379470000000 1.0
C      1  0.4626360000000  0.4924860000000  0.6027590000000 1.0
C      1  0.5909490000000  0.4768950000000  0.4723360000000 1.0
C      1  0.4533060000000  0.5349300000000  0.4721760000000 1.0
C      1  0.4355610000000  0.5815650000000  0.4907090000000 1.0
C      1  0.5278820000000  0.5354640000000  0.6041770000000 1.0
C      1  0.5351910000000  0.4183620000000  0.5530660000000 1.0
C      1  0.4534010000000  0.5506470000000  0.5661450000000 1.0
C      1  0.4913170000000  0.5298890000000  0.4134760000000 1.0
C      1  0.5947120000000  0.5108770000000  0.5523200000000 1.0
END
