TITL C-883730-8503-321 31.31537391183 125000 -24482.4078071822 0 0 163 (C1) n - 1
REM
REM in /home/nfs/bkarasulu/CARBON/AIRSS/Generating-Clusters/ReaxFF-fromJPCA2015/Units_Real/with-SteepDescent/Only-C1/SD-CG/Try1-3A/FIRE-CG
REM
REM
REM
REM
REM
REM ./C.cell (11c1c37f851c82e70ff6c80c92926a4b)
REM
REM compiler GCC version 9.2.1 20190827 (Red Hat 9.2.1-1)
REM options -cpp -mtune=generic -march=x86-64 -g -O0 -fpre-include=/usr/include/finclude/math-vector-fortran.h
REM seed 1593817398 1267359413 1405191372 -5557630 204960529 1788497477 -1193425398 1372762181 1188008554 1890581041 1187464133 -2014547787 1130148490 -390200576 -282891856 -1838882413 -1989485223 -1678998964 -98934593 237795930 1453682480 -770134719 1338310396 157045883 565348354 2038441929 1363854928 -954579447 -17323960 2014984980 1625350192 1355845726 -1420971166
REM
CELL 1.54180   50.00000   50.00000   50.00000   90.00000   90.00000   90.00000
LATT -1
SFAC C  
C      1  0.4648910000000  0.5352280000000  0.5854660000000 1.0
C      1  0.4312820000000  0.4306650000000  0.5167590000000 1.0
C      1  0.5278610000000  0.4945520000000  0.4364620000000 1.0
C      1  0.5564570000000  0.5214080000000  0.4680790000000 1.0
C      1  0.4234840000000  0.4557590000000  0.4785140000000 1.0
C      1  0.5281960000000  0.5737820000000  0.5598970000000 1.0
C      1  0.4925310000000  0.4299880000000  0.5640390000000 1.0
C      1  0.5125910000000  0.6000120000000  0.4863260000000 1.0
C      1  0.5092670000000  0.5180530000000  0.5563180000000 1.0
C      1  0.5729110000000  0.5054360000000  0.4193940000000 1.0
C      1  0.4362620000000  0.4881690000000  0.5245290000000 1.0
C      1  0.5139240000000  0.4729550000000  0.4814450000000 1.0
C      1  0.4959680000000  0.4978540000000  0.5180510000000 1.0
C      1  0.4387730000000  0.4370580000000  0.4599910000000 1.0
C      1  0.4651900000000  0.4208790000000  0.4326050000000 1.0
C      1  0.4704810000000  0.5191200000000  0.5387110000000 1.0
C      1  0.4170830000000  0.4807940000000  0.4422330000000 1.0
C      1  0.5354040000000  0.4365540000000  0.4077250000000 1.0
C      1  0.5331930000000  0.5019550000000  0.5519840000000 1.0
C      1  0.5226150000000  0.5547060000000  0.5017210000000 1.0
C      1  0.5470060000000  0.4787560000000  0.4516780000000 1.0
C      1  0.4331110000000  0.4551780000000  0.4373450000000 1.0
C      1  0.4682950000000  0.5383160000000  0.5569370000000 1.0
C      1  0.4830040000000  0.4730580000000  0.5313650000000 1.0
C      1  0.5533530000000  0.4850310000000  0.5035370000000 1.0
C      1  0.4973210000000  0.5006260000000  0.5986130000000 1.0
C      1  0.5896170000000  0.5658890000000  0.5149450000000 1.0
C      1  0.5321110000000  0.3952530000000  0.5289240000000 1.0
C      1  0.5104580000000  0.4121970000000  0.4443470000000 1.0
C      1  0.4767660000000  0.4596570000000  0.4019230000000 1.0
C      1  0.5657050000000  0.5473270000000  0.4280670000000 1.0
C      1  0.4290140000000  0.5545560000000  0.5661940000000 1.0
C      1  0.4686560000000  0.5093270000000  0.5976640000000 1.0
C      1  0.3857870000000  0.5355170000000  0.4838660000000 1.0
C      1  0.4618780000000  0.4474070000000  0.6028010000000 1.0
C      1  0.5658670000000  0.5316100000000  0.4919360000000 1.0
C      1  0.5150060000000  0.5899010000000  0.5399650000000 1.0
C      1  0.4826800000000  0.4314580000000  0.4124760000000 1.0
C      1  0.5852930000000  0.4813570000000  0.4296290000000 1.0
C      1  0.4514960000000  0.5108110000000  0.5214500000000 1.0
C      1  0.4478890000000  0.5741890000000  0.5785440000000 1.0
C      1  0.4944890000000  0.5660170000000  0.6032160000000 1.0
C      1  0.4705510000000  0.4803760000000  0.5578690000000 1.0
C      1  0.4344960000000  0.5009000000000  0.4322050000000 1.0
C      1  0.5637740000000  0.4863460000000  0.5821130000000 1.0
C      1  0.4519110000000  0.4674300000000  0.5776570000000 1.0
C      1  0.5646590000000  0.5347130000000  0.5617250000000 1.0
C      1  0.5586060000000  0.4386690000000  0.4262060000000 1.0
C      1  0.5749150000000  0.4412660000000  0.5054770000000 1.0
C      1  0.5188060000000  0.5983230000000  0.4566420000000 1.0
C      1  0.5330740000000  0.5813510000000  0.4347760000000 1.0
C      1  0.5437300000000  0.5318340000000  0.5110680000000 1.0
C      1  0.4868410000000  0.4064370000000  0.4636950000000 1.0
C      1  0.5267870000000  0.5884190000000  0.5114610000000 1.0
C      1  0.5166860000000  0.5455680000000  0.6040510000000 1.0
C      1  0.4566740000000  0.5750820000000  0.5235270000000 1.0
C      1  0.5568650000000  0.5922700000000  0.5136930000000 1.0
C      1  0.5834150000000  0.5245900000000  0.4393620000000 1.0
C      1  0.3970440000000  0.4971670000000  0.4567280000000 1.0
C      1  0.5702890000000  0.5767260000000  0.5347430000000 1.0
C      1  0.4006730000000  0.5502550000000  0.5038660000000 1.0
C      1  0.4374350000000  0.5292850000000  0.5065700000000 1.0
C      1  0.5108080000000  0.4741000000000  0.4362430000000 1.0
C      1  0.4717630000000  0.5862560000000  0.5654030000000 1.0
C      1  0.4652280000000  0.5628880000000  0.4305020000000 1.0
C      1  0.5140470000000  0.4756740000000  0.5680310000000 1.0
C      1  0.4878290000000  0.4419630000000  0.5934890000000 1.0
C      1  0.4765240000000  0.4711360000000  0.4564490000000 1.0
C      1  0.5548280000000  0.5606430000000  0.5545210000000 1.0
C      1  0.3940400000000  0.5463220000000  0.4578950000000 1.0
C      1  0.4946460000000  0.4081180000000  0.5213210000000 1.0
C      1  0.5409970000000  0.5060970000000  0.5223830000000 1.0
C      1  0.5304780000000  0.4619150000000  0.3966860000000 1.0
C      1  0.4467980000000  0.5584990000000  0.5012970000000 1.0
C      1  0.3992630000000  0.5225130000000  0.4420700000000 1.0
C      1  0.4201990000000  0.5654460000000  0.4885640000000 1.0
C      1  0.4234330000000  0.5037570000000  0.5676600000000 1.0
C      1  0.5109550000000  0.4234920000000  0.4184320000000 1.0
C      1  0.4398540000000  0.4333380000000  0.5455590000000 1.0
C      1  0.5113640000000  0.3862030000000  0.5107270000000 1.0
C      1  0.4725610000000  0.5987840000000  0.5195530000000 1.0
C      1  0.5440590000000  0.5092880000000  0.4093500000000 1.0
C      1  0.4809330000000  0.5028160000000  0.4102310000000 1.0
C      1  0.5277890000000  0.4338780000000  0.4924060000000 1.0
C      1  0.5605430000000  0.5734320000000  0.4406610000000 1.0
C      1  0.5865860000000  0.5264140000000  0.5438100000000 1.0
C      1  0.5544040000000  0.4401450000000  0.5335080000000 1.0
C      1  0.4623640000000  0.4890980000000  0.4305430000000 1.0
C      1  0.5101470000000  0.4630030000000  0.5947760000000 1.0
C      1  0.4953440000000  0.5250630000000  0.4227030000000 1.0
C      1  0.5828860000000  0.4791470000000  0.5607040000000 1.0
C      1  0.5313920000000  0.4071850000000  0.4823210000000 1.0
C      1  0.5019260000000  0.4635160000000  0.4569250000000 1.0
C      1  0.5756470000000  0.5824530000000  0.4934600000000 1.0
C      1  0.4286260000000  0.4547660000000  0.5620550000000 1.0
C      1  0.5341400000000  0.5349380000000  0.4583450000000 1.0
C      1  0.4678690000000  0.4672020000000  0.4835510000000 1.0
C      1  0.4157920000000  0.4517600000000  0.5059600000000 1.0
C      1  0.5959340000000  0.5119200000000  0.4636300000000 1.0
C      1  0.5754810000000  0.4382240000000  0.4763330000000 1.0
C      1  0.4136150000000  0.4783520000000  0.5553720000000 1.0
C      1  0.5210840000000  0.4220850000000  0.5687560000000 1.0
C      1  0.4500460000000  0.4149360000000  0.5005380000000 1.0
C      1  0.5541150000000  0.4943110000000  0.4749250000000 1.0
C      1  0.5965180000000  0.5378600000000  0.5181380000000 1.0
C      1  0.4752540000000  0.5668950000000  0.4844150000000 1.0
C      1  0.5420560000000  0.5391300000000  0.4134630000000 1.0
C      1  0.5864670000000  0.4899710000000  0.5115020000000 1.0
C      1  0.4593810000000  0.4185810000000  0.4728270000000 1.0
C      1  0.4254270000000  0.5280710000000  0.4298960000000 1.0
C      1  0.4944970000000  0.5895030000000  0.4489170000000 1.0
C      1  0.4945710000000  0.5202580000000  0.4759290000000 1.0
C      1  0.5684230000000  0.4529990000000  0.5573750000000 1.0
C      1  0.5263930000000  0.4499850000000  0.5300140000000 1.0
C      1  0.3904060000000  0.5063710000000  0.4841650000000 1.0
C      1  0.5957830000000  0.4600610000000  0.4746160000000 1.0
C      1  0.5957370000000  0.4619540000000  0.5040820000000 1.0
C      1  0.4409680000000  0.4797330000000  0.4808060000000 1.0
C      1  0.5250950000000  0.4880040000000  0.3932570000000 1.0
C      1  0.4699330000000  0.5642380000000  0.5460110000000 1.0
C      1  0.5299760000000  0.4421810000000  0.5887570000000 1.0
C      1  0.4448130000000  0.4962830000000  0.5868060000000 1.0
C      1  0.4389070000000  0.5526360000000  0.4394140000000 1.0
C      1  0.4655310000000  0.4203070000000  0.5493860000000 1.0
C      1  0.5367340000000  0.4110000000000  0.4561850000000 1.0
C      1  0.5600220000000  0.5729310000000  0.4703650000000 1.0
C      1  0.5349010000000  0.5587810000000  0.4743880000000 1.0
C      1  0.5131160000000  0.5189810000000  0.4472470000000 1.0
C      1  0.4102160000000  0.5287370000000  0.5228540000000 1.0
C      1  0.4654900000000  0.5614080000000  0.5986960000000 1.0
C      1  0.4660090000000  0.4057950000000  0.5241730000000 1.0
C      1  0.5977820000000  0.4844780000000  0.4562150000000 1.0
C      1  0.4187540000000  0.5620970000000  0.4597130000000 1.0
C      1  0.5374190000000  0.4605890000000  0.4911380000000 1.0
C      1  0.5549770000000  0.4573420000000  0.5829920000000 1.0
C      1  0.5056660000000  0.3928130000000  0.4812960000000 1.0
C      1  0.4696220000000  0.5785650000000  0.4543520000000 1.0
C      1  0.5182690000000  0.5706970000000  0.5875220000000 1.0
C      1  0.4808730000000  0.4562020000000  0.5069400000000 1.0
C      1  0.4964840000000  0.5475050000000  0.4903840000000 1.0
C      1  0.4653770000000  0.5141090000000  0.4763870000000 1.0
C      1  0.4880170000000  0.6002930000000  0.5446950000000 1.0
C      1  0.5057390000000  0.4976580000000  0.4925350000000 1.0
C      1  0.5489100000000  0.5123850000000  0.5773610000000 1.0
C      1  0.4952690000000  0.5226980000000  0.5317790000000 1.0
C      1  0.5652840000000  0.4632870000000  0.4362600000000 1.0
C      1  0.4396240000000  0.5098130000000  0.4803480000000 1.0
C      1  0.4852520000000  0.5947340000000  0.4936100000000 1.0
C      1  0.4522350000000  0.4642660000000  0.4161890000000 1.0
C      1  0.5406660000000  0.4143630000000  0.5476690000000 1.0
C      1  0.5906650000000  0.4978240000000  0.5396530000000 1.0
C      1  0.5593930000000  0.4268200000000  0.4519960000000 1.0
C      1  0.5922650000000  0.5177650000000  0.4945140000000 1.0
C      1  0.4913360000000  0.5531750000000  0.4181380000000 1.0
C      1  0.5205090000000  0.5596910000000  0.4189440000000 1.0
C      1  0.4931380000000  0.4954610000000  0.5700560000000 1.0
C      1  0.3996090000000  0.5020510000000  0.5113060000000 1.0
C      1  0.4119980000000  0.4780010000000  0.5223000000000 1.0
C      1  0.5207000000000  0.5183260000000  0.5955930000000 1.0
C      1  0.5052800000000  0.4377800000000  0.5113240000000 1.0
C      1  0.4186440000000  0.5304620000000  0.5548850000000 1.0
C      1  0.4950320000000  0.4829680000000  0.3946740000000 1.0
C      1  0.5058550000000  0.4566780000000  0.5487950000000 1.0
END
