TITL C-883731-9874-94 12.6046019601368 125000 -5966.69463578004 0 0 41 (C1) n - 1
REM
REM in /home/nfs/bkarasulu/CARBON/AIRSS/Generating-Clusters/ReaxFF-fromJPCA2015/Units_Real/with-SteepDescent/Only-C1/SD-CG/Try1-3A/FIRE-CG
REM
REM
REM
REM
REM
REM ./C.cell (11c1c37f851c82e70ff6c80c92926a4b)
REM
REM compiler GCC version 9.2.1 20190827 (Red Hat 9.2.1-1)
REM options -cpp -mtune=generic -march=x86-64 -g -O0 -fpre-include=/usr/include/finclude/math-vector-fortran.h
REM seed 2036018574 -1605434388 2019444368 -1713179562 -1861277324 -1962690222 1247749609 918388711 658801684 -1996860938 878254691 -204098088 1516178956 -1894459384 1152881727 853775931 676435790 1561562874 -715516066 97495124 392337708 431931025 376313056 -621067513 -1730169208 -686784142 259873188 -1492218433 -24571912 -1411704761 1493315338 -1203581290 1616370258
REM
CELL 1.54180   50.00000   50.00000   50.00000   90.00000   90.00000   90.00000
LATT -1
SFAC C  
C      1  0.5270810000000  0.4603020000000  0.4589870000000 1.0
C      1  0.4913550000000  0.5249220000000  0.5467830000000 1.0
C      1  0.5526650000000  0.5413160000000  0.4872680000000 1.0
C      1  0.5075220000000  0.5287640000000  0.4820110000000 1.0
C      1  0.5224520000000  0.4902780000000  0.5187070000000 1.0
C      1  0.5322590000000  0.4634740000000  0.5090460000000 1.0
C      1  0.4584820000000  0.5496910000000  0.5082630000000 1.0
C      1  0.5326330000000  0.4981660000000  0.5446500000000 1.0
C      1  0.5439020000000  0.4692710000000  0.4827060000000 1.0
C      1  0.4882800000000  0.4971520000000  0.4491660000000 1.0
C      1  0.4735100000000  0.5474510000000  0.5343340000000 1.0
C      1  0.4754100000000  0.5003150000000  0.5463050000000 1.0
C      1  0.5357510000000  0.5192630000000  0.4459730000000 1.0
C      1  0.4919480000000  0.4302450000000  0.5151410000000 1.0
C      1  0.4660410000000  0.4901360000000  0.4705850000000 1.0
C      1  0.4477880000000  0.4486740000000  0.4961970000000 1.0
C      1  0.5549930000000  0.5179230000000  0.4683460000000 1.0
C      1  0.4288510000000  0.4853040000000  0.4903270000000 1.0
C      1  0.5283520000000  0.5593660000000  0.5151540000000 1.0
C      1  0.4656910000000  0.4850490000000  0.5221700000000 1.0
C      1  0.5246240000000  0.5523080000000  0.4880730000000 1.0
C      1  0.4863040000000  0.4290600000000  0.4757590000000 1.0
C      1  0.5674850000000  0.5044630000000  0.5118950000000 1.0
C      1  0.5122130000000  0.4445410000000  0.5148970000000 1.0
C      1  0.5590640000000  0.4934220000000  0.4850180000000 1.0
C      1  0.4500810000000  0.5299030000000  0.4934560000000 1.0
C      1  0.4799690000000  0.4914380000000  0.4978040000000 1.0
C      1  0.5208220000000  0.5245920000000  0.5489850000000 1.0
C      1  0.4548110000000  0.5619690000000  0.5472330000000 1.0
C      1  0.4446480000000  0.4672840000000  0.4733510000000 1.0
C      1  0.5599310000000  0.5332350000000  0.5142960000000 1.0
C      1  0.5090840000000  0.4793150000000  0.4478260000000 1.0
C      1  0.4371570000000  0.5689830000000  0.5273310000000 1.0
C      1  0.5063620000000  0.5208160000000  0.4536110000000 1.0
C      1  0.5041660000000  0.5065770000000  0.5012280000000 1.0
C      1  0.5395720000000  0.5431980000000  0.5350740000000 1.0
C      1  0.4413940000000  0.5094400000000  0.4781440000000 1.0
C      1  0.4403990000000  0.4711340000000  0.5141420000000 1.0
C      1  0.4692170000000  0.4274370000000  0.4983160000000 1.0
C      1  0.5057220000000  0.4417740000000  0.4630250000000 1.0
C      1  0.5620070000000  0.4920490000000  0.5384210000000 1.0
END
