TITL C-883732-77-320 -2.47916329121685 125000 -8248.16496128685 0 0 55 (C1) n - 1
REM
REM in /home/nfs/bkarasulu/CARBON/AIRSS/Generating-Clusters/ReaxFF-fromJPCA2015/Units_Real/with-SteepDescent/Only-C1/SD-CG/Try1-3A/FIRE-CG
REM
REM
REM
REM
REM
REM ./C.cell (11c1c37f851c82e70ff6c80c92926a4b)
REM
REM compiler GCC version 9.2.1 20190827 (Red Hat 9.2.1-1)
REM options -cpp -mtune=generic -march=x86-64 -g -O0 -fpre-include=/usr/include/finclude/math-vector-fortran.h
REM seed 1586289014 1825001724 -381900014 935245646 -127753174 1457262234 -1879220139 621600833 1569018132 -2143748745 466181920 -1616567491 1712998681 1120250604 427816898 1357520558 -808043306 -185970506 -1362340440 1405369778 471714181 -1674822980 -419544195 -207133710 1903907539 -1391493308 1839129974 1384808896 845682605 -803195174 2084863758 1164573357 -813089154
REM
CELL 1.54180   50.00000   50.00000   50.00000   90.00000   90.00000   90.00000
LATT -1
SFAC C  
C      1  0.5619730000000  0.4989860000000  0.4774920000000 1.0
C      1  0.5562750000000  0.5129690000000  0.5028690000000 1.0
C      1  0.5062940000000  0.5034990000000  0.5166490000000 1.0
C      1  0.4928350000000  0.5383940000000  0.5492000000000 1.0
C      1  0.4446170000000  0.4835560000000  0.5463770000000 1.0
C      1  0.4538000000000  0.4602990000000  0.4788240000000 1.0
C      1  0.5419600000000  0.5576760000000  0.4889960000000 1.0
C      1  0.4931980000000  0.5286820000000  0.5214480000000 1.0
C      1  0.5369200000000  0.4546870000000  0.4680050000000 1.0
C      1  0.5561360000000  0.4708080000000  0.4830900000000 1.0
C      1  0.4785710000000  0.4520670000000  0.4648660000000 1.0
C      1  0.5146680000000  0.4496120000000  0.5381240000000 1.0
C      1  0.5217000000000  0.5064250000000  0.4680370000000 1.0
C      1  0.4485320000000  0.4572170000000  0.5339050000000 1.0
C      1  0.5217240000000  0.4405640000000  0.4882730000000 1.0
C      1  0.5446310000000  0.5442090000000  0.5371910000000 1.0
C      1  0.4844630000000  0.4731550000000  0.5649840000000 1.0
C      1  0.4507190000000  0.5351940000000  0.4870140000000 1.0
C      1  0.4886910000000  0.4865700000000  0.4237240000000 1.0
C      1  0.5469730000000  0.4696270000000  0.5103890000000 1.0
C      1  0.4660720000000  0.4954400000000  0.5634940000000 1.0
C      1  0.5202310000000  0.5467000000000  0.4753350000000 1.0
C      1  0.5010190000000  0.5658250000000  0.5433210000000 1.0
C      1  0.5456740000000  0.5071470000000  0.4537720000000 1.0
C      1  0.4539140000000  0.4481360000000  0.5062200000000 1.0
C      1  0.5085780000000  0.5546660000000  0.4515720000000 1.0
C      1  0.4689480000000  0.5245890000000  0.5594730000000 1.0
C      1  0.5240870000000  0.4653320000000  0.4440820000000 1.0
C      1  0.5303470000000  0.4480940000000  0.5146850000000 1.0
C      1  0.4730340000000  0.5181260000000  0.4549070000000 1.0
C      1  0.5339630000000  0.4902990000000  0.4317790000000 1.0
C      1  0.4499290000000  0.5301350000000  0.5378590000000 1.0
C      1  0.5540480000000  0.5409720000000  0.5095900000000 1.0
C      1  0.5128340000000  0.4721350000000  0.5574340000000 1.0
C      1  0.5151310000000  0.5701630000000  0.4895890000000 1.0
C      1  0.5074570000000  0.5358490000000  0.4281560000000 1.0
C      1  0.4704860000000  0.4503270000000  0.5520680000000 1.0
C      1  0.4642000000000  0.5380360000000  0.5131710000000 1.0
C      1  0.5276080000000  0.4968060000000  0.5576960000000 1.0
C      1  0.4463810000000  0.5139820000000  0.4661490000000 1.0
C      1  0.4933650000000  0.4359340000000  0.4839390000000 1.0
C      1  0.4560480000000  0.4944760000000  0.5034270000000 1.0
C      1  0.5375350000000  0.5203840000000  0.5512230000000 1.0
C      1  0.4833510000000  0.5422780000000  0.4419870000000 1.0
C      1  0.4421550000000  0.4873720000000  0.4787100000000 1.0
C      1  0.5109560000000  0.5066660000000  0.4220100000000 1.0
C      1  0.5111550000000  0.5765120000000  0.5181630000000 1.0
C      1  0.5279520000000  0.5678810000000  0.5384600000000 1.0
C      1  0.4401810000000  0.5049360000000  0.5266530000000 1.0
C      1  0.4778500000000  0.4321850000000  0.5085710000000 1.0
C      1  0.4945570000000  0.4639450000000  0.4425230000000 1.0
C      1  0.5369000000000  0.4963910000000  0.5178610000000 1.0
C      1  0.4896550000000  0.4357520000000  0.5353470000000 1.0
C      1  0.4940200000000  0.5048250000000  0.4722550000000 1.0
C      1  0.4856960000000  0.4935060000000  0.4990650000000 1.0
END
