TITL C-883728-9229-330 -14.1520270245037 125000 -17596.1837755836 0 0 117 (C1) n - 1
REM
REM in /home/nfs/bkarasulu/CARBON/AIRSS/Generating-Clusters/ReaxFF-fromJPCA2015/Units_Real/with-SteepDescent/Only-C1/SD-CG/Try1-3A/FIRE-CG
REM
REM
REM
REM
REM
REM ./C.cell (11c1c37f851c82e70ff6c80c92926a4b)
REM
REM compiler GCC version 9.2.1 20190827 (Red Hat 9.2.1-1)
REM options -cpp -mtune=generic -march=x86-64 -g -O0 -fpre-include=/usr/include/finclude/math-vector-fortran.h
REM seed -1942913921 1801731814 -325448573 -222191624 2115402177 -508152970 -1206202479 -1188632798 143722123 1375215414 21971511 -1000673713 599965951 1189072203 -1743192853 -1061033404 1674241444 -616273395 -2079558621 -1934303936 683026616 -1867227367 -472874871 219550306 -973220365 -653310877 1898065890 330483997 1850426163 1722155509 -201365295 156574270 -1923210097
REM
CELL 1.54180   50.00000   50.00000   50.00000   90.00000   90.00000   90.00000
LATT -1
SFAC C  
C      1  0.5616820000000  0.5659290000000  0.4810200000000 1.0
C      1  0.4140200000000  0.5070810000000  0.4586800000000 1.0
C      1  0.5112210000000  0.4435570000000  0.5130370000000 1.0
C      1  0.5216480000000  0.4933610000000  0.5284150000000 1.0
C      1  0.5047090000000  0.4865520000000  0.4001060000000 1.0
C      1  0.4983430000000  0.4550470000000  0.4921510000000 1.0
C      1  0.4524950000000  0.5069890000000  0.5790750000000 1.0
C      1  0.4871080000000  0.4858050000000  0.4466660000000 1.0
C      1  0.5823080000000  0.5018710000000  0.4797420000000 1.0
C      1  0.4241750000000  0.4885240000000  0.4387840000000 1.0
C      1  0.5006960000000  0.5395010000000  0.5373350000000 1.0
C      1  0.4556190000000  0.5691370000000  0.4601590000000 1.0
C      1  0.4785430000000  0.5277210000000  0.4801790000000 1.0
C      1  0.5320970000000  0.4984110000000  0.4029400000000 1.0
C      1  0.5153090000000  0.4146520000000  0.5138390000000 1.0
C      1  0.5764710000000  0.5301280000000  0.5626870000000 1.0
C      1  0.5524670000000  0.4838940000000  0.4179120000000 1.0
C      1  0.5759330000000  0.4577810000000  0.5374170000000 1.0
C      1  0.3979660000000  0.4591230000000  0.5016010000000 1.0
C      1  0.5831130000000  0.4881420000000  0.4541780000000 1.0
C      1  0.5049620000000  0.5325860000000  0.4157170000000 1.0
C      1  0.5146890000000  0.4774810000000  0.4530070000000 1.0
C      1  0.4688240000000  0.4244460000000  0.4550690000000 1.0
C      1  0.5873340000000  0.4639800000000  0.5113730000000 1.0
C      1  0.5008110000000  0.5554480000000  0.4340070000000 1.0
C      1  0.4578060000000  0.5827690000000  0.4843600000000 1.0
C      1  0.5160340000000  0.5789180000000  0.5385940000000 1.0
C      1  0.5962040000000  0.4903640000000  0.5204600000000 1.0
C      1  0.5180990000000  0.4300320000000  0.4503550000000 1.0
C      1  0.5845270000000  0.5505040000000  0.4696700000000 1.0
C      1  0.5944810000000  0.5272800000000  0.4855320000000 1.0
C      1  0.4180560000000  0.4905270000000  0.5558180000000 1.0
C      1  0.4382410000000  0.5686550000000  0.5388030000000 1.0
C      1  0.5009200000000  0.5799220000000  0.5127330000000 1.0
C      1  0.4539340000000  0.5498310000000  0.5595810000000 1.0
C      1  0.4785520000000  0.5198370000000  0.5887290000000 1.0
C      1  0.5351280000000  0.4059020000000  0.4936240000000 1.0
C      1  0.5075650000000  0.4600350000000  0.5685040000000 1.0
C      1  0.4742960000000  0.4384150000000  0.4313350000000 1.0
C      1  0.5503450000000  0.5244770000000  0.4425350000000 1.0
C      1  0.4506070000000  0.5888840000000  0.5232820000000 1.0
C      1  0.5298300000000  0.5389360000000  0.5895810000000 1.0
C      1  0.5538540000000  0.4983330000000  0.4925650000000 1.0
C      1  0.4174430000000  0.5349150000000  0.4663340000000 1.0
C      1  0.5516800000000  0.5360990000000  0.5228620000000 1.0
C      1  0.5562540000000  0.4216800000000  0.4828190000000 1.0
C      1  0.5961260000000  0.5207090000000  0.5147600000000 1.0
C      1  0.5489110000000  0.5046000000000  0.5238150000000 1.0
C      1  0.4830450000000  0.5557890000000  0.4588330000000 1.0
C      1  0.5379350000000  0.5218370000000  0.4756130000000 1.0
C      1  0.4459350000000  0.4291430000000  0.5183740000000 1.0
C      1  0.4726240000000  0.5930610000000  0.5057930000000 1.0
C      1  0.5691370000000  0.5025390000000  0.4328350000000 1.0
C      1  0.4322950000000  0.4614070000000  0.4796160000000 1.0
C      1  0.5257010000000  0.5496340000000  0.5389710000000 1.0
C      1  0.5709260000000  0.5014320000000  0.5689840000000 1.0
C      1  0.5111590000000  0.4526110000000  0.4675970000000 1.0
C      1  0.4372490000000  0.4883240000000  0.4663350000000 1.0
C      1  0.4659670000000  0.4149240000000  0.4787220000000 1.0
C      1  0.5321320000000  0.4620030000000  0.5204890000000 1.0
C      1  0.4056550000000  0.4757770000000  0.5199790000000 1.0
C      1  0.5466490000000  0.4896590000000  0.5791320000000 1.0
C      1  0.5368150000000  0.4627950000000  0.5693380000000 1.0
C      1  0.5096330000000  0.5596340000000  0.4948640000000 1.0
C      1  0.4341060000000  0.5325370000000  0.5733150000000 1.0
C      1  0.4096320000000  0.5188730000000  0.5662470000000 1.0
C      1  0.4345370000000  0.5177130000000  0.5079650000000 1.0
C      1  0.5035800000000  0.4594530000000  0.4096650000000 1.0
C      1  0.4877030000000  0.5106390000000  0.4060960000000 1.0
C      1  0.4249740000000  0.5582920000000  0.5155760000000 1.0
C      1  0.4881430000000  0.4207550000000  0.5460420000000 1.0
C      1  0.5271960000000  0.5089730000000  0.5902680000000 1.0
C      1  0.4388960000000  0.5460020000000  0.4504980000000 1.0
C      1  0.4542290000000  0.4528080000000  0.5670200000000 1.0
C      1  0.4560710000000  0.5245310000000  0.4397430000000 1.0
C      1  0.4461810000000  0.4556440000000  0.5041640000000 1.0
C      1  0.5003790000000  0.5030960000000  0.5809660000000 1.0
C      1  0.5679700000000  0.4516950000000  0.4861230000000 1.0
C      1  0.5217940000000  0.5707910000000  0.4473700000000 1.0
C      1  0.5464320000000  0.4697560000000  0.4947060000000 1.0
C      1  0.5662320000000  0.4645400000000  0.4581020000000 1.0
C      1  0.4997170000000  0.4856380000000  0.5549150000000 1.0
C      1  0.5538020000000  0.5391900000000  0.5769040000000 1.0
C      1  0.4769630000000  0.5480740000000  0.5813110000000 1.0
C      1  0.5319800000000  0.5230760000000  0.4176730000000 1.0
C      1  0.5485940000000  0.4524800000000  0.5449290000000 1.0
C      1  0.4621880000000  0.5259880000000  0.5050590000000 1.0
C      1  0.4686920000000  0.4685250000000  0.4320910000000 1.0
C      1  0.5030960000000  0.5748090000000  0.5634490000000 1.0
C      1  0.5091060000000  0.5274760000000  0.4893630000000 1.0
C      1  0.4203700000000  0.4958450000000  0.5266270000000 1.0
C      1  0.5507340000000  0.5699330000000  0.4530260000000 1.0
C      1  0.4407410000000  0.4783990000000  0.5707270000000 1.0
C      1  0.5798990000000  0.5358680000000  0.5336260000000 1.0
C      1  0.4168300000000  0.5388630000000  0.4967270000000 1.0
C      1  0.4720170000000  0.5315630000000  0.5353390000000 1.0
C      1  0.5740230000000  0.4894990000000  0.5412790000000 1.0
C      1  0.5420740000000  0.4707380000000  0.4421950000000 1.0
C      1  0.4036510000000  0.4472250000000  0.4763950000000 1.0
C      1  0.4852120000000  0.4409200000000  0.5656060000000 1.0
C      1  0.4489200000000  0.4358060000000  0.5458730000000 1.0
C      1  0.4664210000000  0.4745600000000  0.5149200000000 1.0
C      1  0.4726060000000  0.4820960000000  0.5422780000000 1.0
C      1  0.4885920000000  0.4048790000000  0.5228100000000 1.0
C      1  0.5490780000000  0.5423080000000  0.4925300000000 1.0
C      1  0.5051430000000  0.5031600000000  0.5064740000000 1.0
C      1  0.4884000000000  0.4810350000000  0.4972020000000 1.0
C      1  0.5033230000000  0.4351090000000  0.4244460000000 1.0
C      1  0.4626870000000  0.5072460000000  0.5505210000000 1.0
C      1  0.5366280000000  0.4122700000000  0.4636500000000 1.0
C      1  0.5043680000000  0.5575820000000  0.5853480000000 1.0
C      1  0.4639890000000  0.4091460000000  0.5056760000000 1.0
C      1  0.4682080000000  0.5058130000000  0.4601230000000 1.0
C      1  0.4467270000000  0.4849650000000  0.4204930000000 1.0
C      1  0.5689620000000  0.5487080000000  0.4444290000000 1.0
C      1  0.5042040000000  0.5749500000000  0.4709690000000 1.0
C      1  0.4597090000000  0.5108200000000  0.4139280000000 1.0
END
