TITL C-884129-4740-220 -2.35168140465411 125000 -9059.70636743605 0 0 62 (C1) n - 1
REM
REM in /home/nfs/bkarasulu/CARBON/AIRSS/Generating-Clusters/ReaxFF-fromJPCA2015/Units_Real/with-SteepDescent/Only-C1/SD-CG/Try1-3A/FIRE-CG
REM
REM
REM
REM
REM
REM ./C.cell (11c1c37f851c82e70ff6c80c92926a4b)
REM
REM compiler GCC version 9.2.1 20190827 (Red Hat 9.2.1-1)
REM options -cpp -mtune=generic -march=x86-64 -g -O0 -fpre-include=/usr/include/finclude/math-vector-fortran.h
REM seed 548014129 1807267415 -394825988 1184232009 -169952870 1270109648 -1691354542 -2081090843 -1096719692 1167000283 1287415904 -1078985795 -352052627 -1761755390 2036585308 1228384649 600897456 1447313281 -725972884 -2778017 1344311857 1507055881 -2128799545 1899132086 1898625117 -5117367 1349577835 -775019255 -964575166 1263770180 -854486944 -1692398262 1723549622
REM
CELL 1.54180   50.00000   50.00000   50.00000   90.00000   90.00000   90.00000
LATT -1
SFAC C  
C      1  0.4542420000000  0.5511380000000  0.5423840000000 1.0
C      1  0.5148440000000  0.4545390000000  0.4407970000000 1.0
C      1  0.5509400000000  0.5451880000000  0.5213570000000 1.0
C      1  0.5012800000000  0.5034100000000  0.4932910000000 1.0
C      1  0.5177950000000  0.4659070000000  0.4667560000000 1.0
C      1  0.5071190000000  0.5668810000000  0.5373260000000 1.0
C      1  0.5365580000000  0.4375330000000  0.5251580000000 1.0
C      1  0.4988260000000  0.4453170000000  0.5578930000000 1.0
C      1  0.4812630000000  0.4670910000000  0.5491740000000 1.0
C      1  0.5321060000000  0.4764290000000  0.4295860000000 1.0
C      1  0.5048090000000  0.5587420000000  0.4622210000000 1.0
C      1  0.4370650000000  0.4742110000000  0.5240880000000 1.0
C      1  0.5368130000000  0.5044440000000  0.5642840000000 1.0
C      1  0.5459490000000  0.4707770000000  0.4725700000000 1.0
C      1  0.5011280000000  0.5180760000000  0.4684960000000 1.0
C      1  0.5342690000000  0.4449040000000  0.4751870000000 1.0
C      1  0.4799110000000  0.5376220000000  0.4604730000000 1.0
C      1  0.4849430000000  0.4546590000000  0.4473280000000 1.0
C      1  0.5180280000000  0.4560550000000  0.5789210000000 1.0
C      1  0.4703650000000  0.5402060000000  0.5074330000000 1.0
C      1  0.5231810000000  0.5364200000000  0.5310950000000 1.0
C      1  0.5610940000000  0.5289090000000  0.4765790000000 1.0
C      1  0.4529270000000  0.5021300000000  0.4416860000000 1.0
C      1  0.5096270000000  0.4291030000000  0.5359300000000 1.0
C      1  0.4673340000000  0.5420100000000  0.5657720000000 1.0
C      1  0.4475110000000  0.5100090000000  0.4879840000000 1.0
C      1  0.4739030000000  0.4967920000000  0.5055990000000 1.0
C      1  0.4266300000000  0.5169710000000  0.5099590000000 1.0
C      1  0.5266010000000  0.4305200000000  0.4980460000000 1.0
C      1  0.4765780000000  0.4465630000000  0.4999880000000 1.0
C      1  0.4332460000000  0.4667550000000  0.4976150000000 1.0
C      1  0.4760280000000  0.5183980000000  0.5246100000000 1.0
C      1  0.4988030000000  0.4295690000000  0.5083860000000 1.0
C      1  0.5159750000000  0.4857070000000  0.5763300000000 1.0
C      1  0.5362940000000  0.5232590000000  0.4338070000000 1.0
C      1  0.5729880000000  0.5194780000000  0.4991910000000 1.0
C      1  0.4888780000000  0.4899290000000  0.5642180000000 1.0
C      1  0.4915830000000  0.5006780000000  0.4248190000000 1.0
C      1  0.5530970000000  0.4848830000000  0.4483990000000 1.0
C      1  0.4320630000000  0.5300310000000  0.5346010000000 1.0
C      1  0.4875220000000  0.4833670000000  0.4478640000000 1.0
C      1  0.4601340000000  0.5355720000000  0.4817660000000 1.0
C      1  0.5425420000000  0.4645080000000  0.5271790000000 1.0
C      1  0.5178070000000  0.5622790000000  0.4877560000000 1.0
C      1  0.4722030000000  0.5210690000000  0.4341070000000 1.0
C      1  0.5203580000000  0.5102020000000  0.5134070000000 1.0
C      1  0.4393680000000  0.4916060000000  0.4642840000000 1.0
C      1  0.4702280000000  0.5642480000000  0.5197200000000 1.0
C      1  0.4682610000000  0.4489540000000  0.4724400000000 1.0
C      1  0.5575970000000  0.5137070000000  0.4506490000000 1.0
C      1  0.5214860000000  0.5016190000000  0.4207130000000 1.0
C      1  0.5406350000000  0.4905020000000  0.5221700000000 1.0
C      1  0.5213630000000  0.5356290000000  0.4565850000000 1.0
C      1  0.5178940000000  0.5243390000000  0.5575750000000 1.0
C      1  0.5684670000000  0.5217960000000  0.5270510000000 1.0
C      1  0.4979070000000  0.5720470000000  0.5112930000000 1.0
C      1  0.4267620000000  0.5006890000000  0.5336970000000 1.0
C      1  0.5439490000000  0.5492150000000  0.4931960000000 1.0
C      1  0.4866790000000  0.5182740000000  0.5533620000000 1.0
C      1  0.4678830000000  0.4678490000000  0.5214570000000 1.0
C      1  0.4415360000000  0.4621920000000  0.4713260000000 1.0
C      1  0.5568230000000  0.4990940000000  0.5430630000000 1.0
END
