TITL C-883736-9678-96 -16.285411587462 125000 -8880.66157312171 0 0 61 (C1) n - 1
REM
REM in /home/nfs/bkarasulu/CARBON/AIRSS/Generating-Clusters/ReaxFF-fromJPCA2015/Units_Real/with-SteepDescent/Only-C1/SD-CG/Try1-3A/FIRE-CG
REM
REM
REM
REM
REM
REM ./C.cell (11c1c37f851c82e70ff6c80c92926a4b)
REM
REM compiler GCC version 9.2.1 20190827 (Red Hat 9.2.1-1)
REM options -cpp -mtune=generic -march=x86-64 -g -O0 -fpre-include=/usr/include/finclude/math-vector-fortran.h
REM seed -1844530007 1394034955 -1928840586 965179788 1093795376 -1717875408 -1568106380 1999337010 1326421529 -303374068 -2055277310 -407334007 -694481838 215104576 1644871795 1381212536 1010970490 986032757 1083782809 -1227629785 -1376675842 -208136101 1710801059 1885378087 1659718877 -119228919 637853266 1424096050 1065095624 676200831 462208810 1726479364 814740428
REM
CELL 1.54180   50.00000   50.00000   50.00000   90.00000   90.00000   90.00000
LATT -1
SFAC C  
C      1  0.5361560000000  0.5920740000000  0.4976350000000 1.0
C      1  0.5339190000000  0.5500420000000  0.4662080000000 1.0
C      1  0.5443840000000  0.4528420000000  0.5227410000000 1.0
C      1  0.5521420000000  0.4638900000000  0.4473160000000 1.0
C      1  0.4518100000000  0.4989640000000  0.4879860000000 1.0
C      1  0.4957640000000  0.4384420000000  0.5154210000000 1.0
C      1  0.5032990000000  0.4433740000000  0.4868400000000 1.0
C      1  0.5409900000000  0.4835150000000  0.5580950000000 1.0
C      1  0.5506170000000  0.4993350000000  0.5335530000000 1.0
C      1  0.5168000000000  0.4497430000000  0.5321920000000 1.0
C      1  0.4214170000000  0.4570890000000  0.4891630000000 1.0
C      1  0.4500500000000  0.5451180000000  0.4692260000000 1.0
C      1  0.5293960000000  0.4403490000000  0.4810640000000 1.0
C      1  0.4839520000000  0.5237860000000  0.4300810000000 1.0
C      1  0.5145320000000  0.5507930000000  0.4430570000000 1.0
C      1  0.4488020000000  0.5539870000000  0.5383570000000 1.0
C      1  0.5055330000000  0.5218230000000  0.4956200000000 1.0
C      1  0.5140890000000  0.5261280000000  0.4276820000000 1.0
C      1  0.4748600000000  0.4642100000000  0.4529640000000 1.0
C      1  0.5300050000000  0.5717910000000  0.5487680000000 1.0
C      1  0.5667610000000  0.5194080000000  0.5206530000000 1.0
C      1  0.4244620000000  0.5076480000000  0.4925460000000 1.0
C      1  0.5426480000000  0.5023680000000  0.4643800000000 1.0
C      1  0.5449200000000  0.5637300000000  0.4883740000000 1.0
C      1  0.5331780000000  0.5045220000000  0.4359000000000 1.0
C      1  0.4360080000000  0.4554740000000  0.4639800000000 1.0
C      1  0.5801430000000  0.5046170000000  0.4982920000000 1.0
C      1  0.4797840000000  0.5562700000000  0.5251150000000 1.0
C      1  0.5305980000000  0.5243560000000  0.4806650000000 1.0
C      1  0.5054840000000  0.4710810000000  0.4913890000000 1.0
C      1  0.5308730000000  0.5892600000000  0.5260720000000 1.0
C      1  0.5009080000000  0.5653770000000  0.5422320000000 1.0
C      1  0.4540750000000  0.4848130000000  0.4581190000000 1.0
C      1  0.5570440000000  0.4735140000000  0.5364100000000 1.0
C      1  0.4441080000000  0.4373990000000  0.5008520000000 1.0
C      1  0.4296490000000  0.5299160000000  0.4757630000000 1.0
C      1  0.4853720000000  0.5504430000000  0.4467550000000 1.0
C      1  0.5075850000000  0.5036190000000  0.5847490000000 1.0
C      1  0.4530420000000  0.5269050000000  0.5385000000000 1.0
C      1  0.4949070000000  0.4945340000000  0.5011900000000 1.0
C      1  0.4702840000000  0.5013800000000  0.4396170000000 1.0
C      1  0.5680800000000  0.4898910000000  0.4758230000000 1.0
C      1  0.5556100000000  0.5473860000000  0.5126640000000 1.0
C      1  0.4589540000000  0.4996950000000  0.5355760000000 1.0
C      1  0.4517060000000  0.4474620000000  0.5415490000000 1.0
C      1  0.4451620000000  0.4597860000000  0.5668640000000 1.0
C      1  0.5142080000000  0.4683650000000  0.5537310000000 1.0
C      1  0.4653930000000  0.4827850000000  0.5594160000000 1.0
C      1  0.4676080000000  0.4933420000000  0.5089520000000 1.0
C      1  0.4525190000000  0.4333190000000  0.4731030000000 1.0
C      1  0.5354560000000  0.5069500000000  0.5810880000000 1.0
C      1  0.5524740000000  0.4446230000000  0.4956490000000 1.0
C      1  0.4804270000000  0.4397630000000  0.4641920000000 1.0
C      1  0.4077270000000  0.4822030000000  0.4960260000000 1.0
C      1  0.5472780000000  0.5531430000000  0.5360890000000 1.0
C      1  0.4748270000000  0.5554450000000  0.4735600000000 1.0
C      1  0.4882190000000  0.5451040000000  0.4987440000000 1.0
C      1  0.4661750000000  0.4378300000000  0.5199000000000 1.0
C      1  0.5646790000000  0.4592800000000  0.4726870000000 1.0
C      1  0.4933770000000  0.4811500000000  0.5675980000000 1.0
C      1  0.5397730000000  0.4785490000000  0.4312650000000 1.0
END
