TITL C-883734-4173-396 47.8264698597879 125000 -12704.5070341439 0 0 86 (C1) n - 1
REM
REM in /home/nfs/bkarasulu/CARBON/AIRSS/Generating-Clusters/ReaxFF-fromJPCA2015/Units_Real/with-SteepDescent/Only-C1/SD-CG/Try1-3A/FIRE-CG
REM
REM
REM
REM
REM
REM ./C.cell (11c1c37f851c82e70ff6c80c92926a4b)
REM
REM compiler GCC version 9.2.1 20190827 (Red Hat 9.2.1-1)
REM options -cpp -mtune=generic -march=x86-64 -g -O0 -fpre-include=/usr/include/finclude/math-vector-fortran.h
REM seed 621318363 1044408077 -1115973601 1907127295 701922839 420825972 -1947332012 -1286692039 -1315468565 -454017368 91885327 1995391100 1265500496 1147615577 -358530830 126923896 -884285480 472954982 727186016 551118613 154342440 -844696178 -313924428 -472329950 -1489523094 -888847919 -1510946105 -1047264372 1713547123 -1079753181 -1018146001 -211929751 635037594
REM
CELL 1.54180   50.00000   50.00000   50.00000   90.00000   90.00000   90.00000
LATT -1
SFAC C  
C      1  0.5372230000000  0.4648300000000  0.4406740000000 1.0
C      1  0.4442250000000  0.4487900000000  0.4879550000000 1.0
C      1  0.4878510000000  0.5126990000000  0.5296820000000 1.0
C      1  0.5624290000000  0.4624430000000  0.4837390000000 1.0
C      1  0.4495940000000  0.5255470000000  0.4654030000000 1.0
C      1  0.4686970000000  0.5704350000000  0.4768340000000 1.0
C      1  0.5322790000000  0.5129370000000  0.4235130000000 1.0
C      1  0.5008920000000  0.4590990000000  0.5126580000000 1.0
C      1  0.5015300000000  0.5242600000000  0.4686060000000 1.0
C      1  0.4628950000000  0.5584850000000  0.5505120000000 1.0
C      1  0.5365670000000  0.5381920000000  0.4357510000000 1.0
C      1  0.5031750000000  0.5005790000000  0.5738440000000 1.0
C      1  0.4673730000000  0.5744550000000  0.5259790000000 1.0
C      1  0.4810170000000  0.4527060000000  0.5813020000000 1.0
C      1  0.5098230000000  0.4582000000000  0.4383560000000 1.0
C      1  0.5198970000000  0.5321160000000  0.4903310000000 1.0
C      1  0.4383670000000  0.4934600000000  0.5401440000000 1.0
C      1  0.4399250000000  0.4993290000000  0.4937840000000 1.0
C      1  0.5605380000000  0.4638400000000  0.4605920000000 1.0
C      1  0.5033120000000  0.5298300000000  0.5810050000000 1.0
C      1  0.4723540000000  0.4654640000000  0.5154830000000 1.0
C      1  0.4845080000000  0.5527560000000  0.5706700000000 1.0
C      1  0.4585370000000  0.4472200000000  0.5619480000000 1.0
C      1  0.5093430000000  0.5312540000000  0.5192660000000 1.0
C      1  0.5683460000000  0.5019270000000  0.5084320000000 1.0
C      1  0.4942130000000  0.4498760000000  0.4659900000000 1.0
C      1  0.5617710000000  0.5365850000000  0.5299760000000 1.0
C      1  0.4532370000000  0.4595050000000  0.4440220000000 1.0
C      1  0.5681330000000  0.4909380000000  0.4546120000000 1.0
C      1  0.5218880000000  0.4167060000000  0.5004070000000 1.0
C      1  0.5146010000000  0.4686370000000  0.5353070000000 1.0
C      1  0.5485120000000  0.4898990000000  0.4326440000000 1.0
C      1  0.5004040000000  0.4334780000000  0.5712570000000 1.0
C      1  0.4957730000000  0.4787510000000  0.4735350000000 1.0
C      1  0.5066660000000  0.5625480000000  0.5572980000000 1.0
C      1  0.4540100000000  0.4431540000000  0.5153290000000 1.0
C      1  0.5134600000000  0.4102140000000  0.5291200000000 1.0
C      1  0.5599710000000  0.4667550000000  0.5340660000000 1.0
C      1  0.4608460000000  0.5132770000000  0.5437140000000 1.0
C      1  0.4830800000000  0.4973580000000  0.4895020000000 1.0
C      1  0.5618930000000  0.4956400000000  0.5341840000000 1.0
C      1  0.4912180000000  0.4201450000000  0.5458310000000 1.0
C      1  0.4996160000000  0.4767880000000  0.4210970000000 1.0
C      1  0.5487000000000  0.4247310000000  0.5111720000000 1.0
C      1  0.5548900000000  0.5396220000000  0.4573670000000 1.0
C      1  0.5717360000000  0.5179030000000  0.4658640000000 1.0
C      1  0.4647680000000  0.4913820000000  0.5061790000000 1.0
C      1  0.5372890000000  0.4532000000000  0.5481960000000 1.0
C      1  0.4952920000000  0.5780160000000  0.4862720000000 1.0
C      1  0.5302150000000  0.5341000000000  0.5719670000000 1.0
C      1  0.4756020000000  0.5214680000000  0.4781160000000 1.0
C      1  0.5037490000000  0.4928240000000  0.5456590000000 1.0
C      1  0.5436630000000  0.5544080000000  0.4816680000000 1.0
C      1  0.5384060000000  0.4224140000000  0.5377350000000 1.0
C      1  0.5396260000000  0.5039610000000  0.5152600000000 1.0
C      1  0.5030220000000  0.4731460000000  0.5851200000000 1.0
C      1  0.4296380000000  0.4752300000000  0.4837030000000 1.0
C      1  0.4731530000000  0.4734010000000  0.4259760000000 1.0
C      1  0.4628590000000  0.5518170000000  0.4547780000000 1.0
C      1  0.4429990000000  0.5049880000000  0.4452310000000 1.0
C      1  0.5346660000000  0.5046850000000  0.4869650000000 1.0
C      1  0.5130570000000  0.5591550000000  0.4367540000000 1.0
C      1  0.5613750000000  0.4525360000000  0.5086490000000 1.0
C      1  0.4822390000000  0.5237500000000  0.4194490000000 1.0
C      1  0.4625100000000  0.4444230000000  0.4661810000000 1.0
C      1  0.4331870000000  0.5508010000000  0.5089220000000 1.0
C      1  0.5215090000000  0.5753780000000  0.4726180000000 1.0
C      1  0.4228070000000  0.5301370000000  0.5239610000000 1.0
C      1  0.5218190000000  0.4533450000000  0.5746250000000 1.0
C      1  0.5143750000000  0.4985860000000  0.4666330000000 1.0
C      1  0.4340560000000  0.4788710000000  0.4548460000000 1.0
C      1  0.4636530000000  0.5017410000000  0.4247440000000 1.0
C      1  0.4941070000000  0.5784420000000  0.5154880000000 1.0
C      1  0.4387950000000  0.4682270000000  0.5556420000000 1.0
C      1  0.5178510000000  0.5794080000000  0.4455140000000 1.0
C      1  0.5779780000000  0.5240010000000  0.4942340000000 1.0
C      1  0.5637830000000  0.5476720000000  0.5038800000000 1.0
C      1  0.5468710000000  0.5354280000000  0.5519860000000 1.0
C      1  0.5049560000000  0.5051280000000  0.4167750000000 1.0
C      1  0.4830350000000  0.5481250000000  0.4345300000000 1.0
C      1  0.4229020000000  0.5012280000000  0.5153050000000 1.0
C      1  0.5120450000000  0.5590050000000  0.5294930000000 1.0
C      1  0.4507900000000  0.5708820000000  0.5009990000000 1.0
C      1  0.5076910000000  0.4400980000000  0.4918400000000 1.0
C      1  0.4440190000000  0.5365000000000  0.5461940000000 1.0
C      1  0.4643270000000  0.4287310000000  0.5391580000000 1.0
END
