TITL C-883734-4173-164 25.1975639964487 125000 -25507.994609594 0 0 173 (C1) n - 1
REM
REM in /home/nfs/bkarasulu/CARBON/AIRSS/Generating-Clusters/ReaxFF-fromJPCA2015/Units_Real/with-SteepDescent/Only-C1/SD-CG/Try1-3A/FIRE-CG
REM
REM
REM
REM
REM
REM ./C.cell (11c1c37f851c82e70ff6c80c92926a4b)
REM
REM compiler GCC version 9.2.1 20190827 (Red Hat 9.2.1-1)
REM options -cpp -mtune=generic -march=x86-64 -g -O0 -fpre-include=/usr/include/finclude/math-vector-fortran.h
REM seed 1596287474 -234518232 -767458241 1375610747 1886154263 894144178 831934765 -1908687090 2145502343 582416423 13955204 1750584527 2110958427 -1958290016 1350968038 -1448430096 1551733929 1234518001 -1538666177 625889296 830090285 -2011868222 1165129063 165169029 -400261906 195812612 2043323722 -1132551532 -690478918 1301311276 -462460254 2101974548 1784224541
REM
CELL 1.54180   50.00000   50.00000   50.00000   90.00000   90.00000   90.00000
LATT -1
SFAC C  
C      1  0.5689120000000  0.5078230000000  0.4840980000000 1.0
C      1  0.5651550000000  0.5522990000000  0.5643200000000 1.0
C      1  0.4246040000000  0.4479270000000  0.5528460000000 1.0
C      1  0.4352880000000  0.4286620000000  0.5719510000000 1.0
C      1  0.5080450000000  0.4367590000000  0.5325760000000 1.0
C      1  0.4686570000000  0.5620320000000  0.3986760000000 1.0
C      1  0.5057420000000  0.6266480000000  0.5024940000000 1.0
C      1  0.4734750000000  0.5982820000000  0.4872010000000 1.0
C      1  0.5672600000000  0.5322050000000  0.5000450000000 1.0
C      1  0.5175090000000  0.5709310000000  0.5608440000000 1.0
C      1  0.4887270000000  0.4563170000000  0.5434860000000 1.0
C      1  0.4962520000000  0.5221060000000  0.4290130000000 1.0
C      1  0.4958100000000  0.5525440000000  0.3993860000000 1.0
C      1  0.5517780000000  0.5094680000000  0.4610550000000 1.0
C      1  0.5018280000000  0.5506670000000  0.6050440000000 1.0
C      1  0.4040860000000  0.4871830000000  0.4697670000000 1.0
C      1  0.4245810000000  0.5476340000000  0.4272060000000 1.0
C      1  0.4781990000000  0.4413930000000  0.4056780000000 1.0
C      1  0.5932000000000  0.5629820000000  0.4831540000000 1.0
C      1  0.4878960000000  0.4046070000000  0.4641380000000 1.0
C      1  0.4900860000000  0.4635290000000  0.3881860000000 1.0
C      1  0.6083660000000  0.4853810000000  0.4985370000000 1.0
C      1  0.5783120000000  0.5323490000000  0.5471260000000 1.0
C      1  0.4901140000000  0.5233980000000  0.3970450000000 1.0
C      1  0.5290710000000  0.5608000000000  0.5086520000000 1.0
C      1  0.4757460000000  0.5790970000000  0.5741440000000 1.0
C      1  0.5596710000000  0.4859010000000  0.4177870000000 1.0
C      1  0.4293410000000  0.4446960000000  0.4592770000000 1.0
C      1  0.4731180000000  0.4758590000000  0.5978360000000 1.0
C      1  0.4574800000000  0.5456860000000  0.5203450000000 1.0
C      1  0.4117170000000  0.5026790000000  0.4465700000000 1.0
C      1  0.4744910000000  0.4805170000000  0.4434450000000 1.0
C      1  0.4488500000000  0.3935960000000  0.5025000000000 1.0
C      1  0.4208860000000  0.5096600000000  0.5171410000000 1.0
C      1  0.5154680000000  0.4743580000000  0.5045460000000 1.0
C      1  0.4807000000000  0.6114030000000  0.5124740000000 1.0
C      1  0.6019470000000  0.4888540000000  0.4690400000000 1.0
C      1  0.5831310000000  0.5295870000000  0.4398500000000 1.0
C      1  0.5821330000000  0.4863020000000  0.5532580000000 1.0
C      1  0.4561910000000  0.4494440000000  0.4728770000000 1.0
C      1  0.4547770000000  0.5380980000000  0.5970900000000 1.0
C      1  0.4028540000000  0.4980630000000  0.5635650000000 1.0
C      1  0.4817330000000  0.4105780000000  0.5714400000000 1.0
C      1  0.4221420000000  0.4871420000000  0.5819790000000 1.0
C      1  0.5743840000000  0.4670980000000  0.5300830000000 1.0
C      1  0.4492230000000  0.5786500000000  0.5657670000000 1.0
C      1  0.5495960000000  0.4541960000000  0.4658010000000 1.0
C      1  0.4858040000000  0.4995270000000  0.6119700000000 1.0
C      1  0.4997810000000  0.4593530000000  0.4867050000000 1.0
C      1  0.5331070000000  0.5071660000000  0.5389350000000 1.0
C      1  0.4200250000000  0.4580670000000  0.5048690000000 1.0
C      1  0.5107150000000  0.5002860000000  0.3902120000000 1.0
C      1  0.5353970000000  0.4945010000000  0.6020620000000 1.0
C      1  0.5464040000000  0.5773690000000  0.5248400000000 1.0
C      1  0.4104720000000  0.5571630000000  0.5035510000000 1.0
C      1  0.4359370000000  0.5520110000000  0.5782650000000 1.0
C      1  0.4635210000000  0.3946640000000  0.4759760000000 1.0
C      1  0.4570490000000  0.5205120000000  0.3952720000000 1.0
C      1  0.5281820000000  0.4790020000000  0.5452100000000 1.0
C      1  0.5710240000000  0.5740210000000  0.4671420000000 1.0
C      1  0.4536490000000  0.4329910000000  0.4927240000000 1.0
C      1  0.5108700000000  0.4484450000000  0.4634430000000 1.0
C      1  0.4536560000000  0.4994660000000  0.4400040000000 1.0
C      1  0.5135310000000  0.3998210000000  0.4779270000000 1.0
C      1  0.5600250000000  0.4620230000000  0.4887300000000 1.0
C      1  0.5020510000000  0.3952070000000  0.5302770000000 1.0
C      1  0.5490390000000  0.4357670000000  0.4293790000000 1.0
C      1  0.4391110000000  0.4116810000000  0.4817470000000 1.0
C      1  0.5105570000000  0.4078420000000  0.5061240000000 1.0
C      1  0.5979330000000  0.4622390000000  0.5124250000000 1.0
C      1  0.5166320000000  0.5608360000000  0.4241960000000 1.0
C      1  0.4511220000000  0.4036810000000  0.5302790000000 1.0
C      1  0.4787920000000  0.4529700000000  0.4330030000000 1.0
C      1  0.5687780000000  0.4434290000000  0.5686300000000 1.0
C      1  0.4674800000000  0.4799620000000  0.3913270000000 1.0
C      1  0.4944860000000  0.5457470000000  0.4420170000000 1.0
C      1  0.5289630000000  0.4017530000000  0.5426910000000 1.0
C      1  0.5699660000000  0.4180970000000  0.5265570000000 1.0
C      1  0.6142880000000  0.5344280000000  0.5051620000000 1.0
C      1  0.5289120000000  0.4097090000000  0.4551790000000 1.0
C      1  0.5911250000000  0.4663440000000  0.4522940000000 1.0
C      1  0.4021350000000  0.4985610000000  0.4966480000000 1.0
C      1  0.4740280000000  0.5932370000000  0.5341490000000 1.0
C      1  0.4815980000000  0.5613270000000  0.5270780000000 1.0
C      1  0.5533140000000  0.5136100000000  0.5879330000000 1.0
C      1  0.6015610000000  0.5178060000000  0.4591780000000 1.0
C      1  0.5246040000000  0.4599240000000  0.5249690000000 1.0
C      1  0.4976890000000  0.5837700000000  0.4795760000000 1.0
C      1  0.5034840000000  0.4294800000000  0.5770300000000 1.0
C      1  0.4301560000000  0.4196250000000  0.5450140000000 1.0
C      1  0.5021800000000  0.5505480000000  0.5464780000000 1.0
C      1  0.4385630000000  0.5684140000000  0.5130480000000 1.0
C      1  0.4667500000000  0.4669680000000  0.5288650000000 1.0
C      1  0.4650550000000  0.5035680000000  0.5602490000000 1.0
C      1  0.4797190000000  0.5294880000000  0.6077000000000 1.0
C      1  0.4532620000000  0.4283120000000  0.3978180000000 1.0
C      1  0.5089090000000  0.5220880000000  0.5499410000000 1.0
C      1  0.4621510000000  0.4278740000000  0.5853970000000 1.0
C      1  0.5183480000000  0.5879660000000  0.4351510000000 1.0
C      1  0.4022420000000  0.5435950000000  0.4785330000000 1.0
C      1  0.5772720000000  0.4221790000000  0.4781110000000 1.0
C      1  0.5794100000000  0.4676650000000  0.5761670000000 1.0
C      1  0.5211640000000  0.5961930000000  0.4643240000000 1.0
C      1  0.5286950000000  0.4707290000000  0.5872290000000 1.0
C      1  0.6121300000000  0.5078280000000  0.5174290000000 1.0
C      1  0.4290090000000  0.4870510000000  0.4271530000000 1.0
C      1  0.5694420000000  0.4394500000000  0.4526780000000 1.0
C      1  0.5219760000000  0.5203890000000  0.4899930000000 1.0
C      1  0.4295430000000  0.5745260000000  0.4362220000000 1.0
C      1  0.4938320000000  0.5031320000000  0.5646090000000 1.0
C      1  0.5404780000000  0.4635920000000  0.4172060000000 1.0
C      1  0.4947660000000  0.4310960000000  0.4455600000000 1.0
C      1  0.4822560000000  0.4483440000000  0.5905350000000 1.0
C      1  0.5597430000000  0.5105700000000  0.5584960000000 1.0
C      1  0.4527720000000  0.5253540000000  0.4555560000000 1.0
C      1  0.4538560000000  0.5173580000000  0.5125840000000 1.0
C      1  0.4051760000000  0.5231250000000  0.5434680000000 1.0
C      1  0.5092270000000  0.6258310000000  0.4730910000000 1.0
C      1  0.3787590000000  0.5339780000000  0.4924500000000 1.0
C      1  0.6113810000000  0.5399950000000  0.4760030000000 1.0
C      1  0.5465910000000  0.5723710000000  0.5537270000000 1.0
C      1  0.5007170000000  0.5751040000000  0.5856450000000 1.0
C      1  0.5568860000000  0.5161580000000  0.4325490000000 1.0
C      1  0.5324050000000  0.6171320000000  0.5059790000000 1.0
C      1  0.5982460000000  0.5109620000000  0.5431570000000 1.0
C      1  0.5280140000000  0.5456920000000  0.6001560000000 1.0
C      1  0.5407970000000  0.5398540000000  0.4968410000000 1.0
C      1  0.5546470000000  0.5424450000000  0.5909660000000 1.0
C      1  0.5462390000000  0.5461150000000  0.4276320000000 1.0
C      1  0.5612600000000  0.4419910000000  0.5414410000000 1.0
C      1  0.5175670000000  0.4736320000000  0.3963700000000 1.0
C      1  0.5306580000000  0.4980240000000  0.5062080000000 1.0
C      1  0.4192680000000  0.5305890000000  0.4517660000000 1.0
C      1  0.5543870000000  0.5996610000000  0.5058240000000 1.0
C      1  0.4438950000000  0.5438990000000  0.4054450000000 1.0
C      1  0.4761490000000  0.4000040000000  0.5442760000000 1.0
C      1  0.5267970000000  0.4949060000000  0.4590440000000 1.0
C      1  0.5518520000000  0.3968070000000  0.5245410000000 1.0
C      1  0.4623110000000  0.4960980000000  0.5319480000000 1.0
C      1  0.5840150000000  0.4470650000000  0.4916430000000 1.0
C      1  0.5683390000000  0.5555740000000  0.4417400000000 1.0
C      1  0.5129330000000  0.4991350000000  0.6226030000000 1.0
C      1  0.3906830000000  0.5416860000000  0.5178030000000 1.0
C      1  0.4735960000000  0.4693240000000  0.4824940000000 1.0
C      1  0.5776030000000  0.4783070000000  0.4351520000000 1.0
C      1  0.5543410000000  0.4579350000000  0.5876230000000 1.0
C      1  0.5888940000000  0.5497240000000  0.5098390000000 1.0
C      1  0.5586140000000  0.4867390000000  0.5030600000000 1.0
C      1  0.5103270000000  0.5079520000000  0.4416370000000 1.0
C      1  0.4677680000000  0.5502500000000  0.4486480000000 1.0
C      1  0.4472090000000  0.5849300000000  0.4872670000000 1.0
C      1  0.5661810000000  0.4061240000000  0.4989730000000 1.0
C      1  0.5249240000000  0.4278010000000  0.5562330000000 1.0
C      1  0.4207980000000  0.5377950000000  0.5611400000000 1.0
C      1  0.4470910000000  0.4499410000000  0.5120830000000 1.0
C      1  0.5518180000000  0.5917010000000  0.4775350000000 1.0
C      1  0.5302260000000  0.4661770000000  0.4505380000000 1.0
C      1  0.4809240000000  0.4924640000000  0.4695260000000 1.0
C      1  0.4548410000000  0.5762440000000  0.4481030000000 1.0
C      1  0.4960680000000  0.5320440000000  0.4881570000000 1.0
C      1  0.5009560000000  0.5604420000000  0.4985460000000 1.0
C      1  0.4116970000000  0.4595780000000  0.4769180000000 1.0
C      1  0.4100720000000  0.4816820000000  0.5182890000000 1.0
C      1  0.4320450000000  0.5844420000000  0.4630920000000 1.0
C      1  0.4709550000000  0.5175770000000  0.4824790000000 1.0
C      1  0.5063150000000  0.4747700000000  0.5645840000000 1.0
C      1  0.4518780000000  0.4884670000000  0.5817980000000 1.0
C      1  0.4261320000000  0.4556640000000  0.4322210000000 1.0
C      1  0.4463460000000  0.5865650000000  0.5378840000000 1.0
C      1  0.4372120000000  0.4391340000000  0.4127620000000 1.0
C      1  0.5244120000000  0.4216810000000  0.4314910000000 1.0
C      1  0.4456330000000  0.4944580000000  0.3988700000000 1.0
C      1  0.4069150000000  0.4691650000000  0.5636670000000 1.0
END
