TITL C-884129-4740-143 18.884723629221 125000 -8495.35332649692 0 0 59 (C1) n - 1
REM
REM in /home/nfs/bkarasulu/CARBON/AIRSS/Generating-Clusters/ReaxFF-fromJPCA2015/Units_Real/with-SteepDescent/Only-C1/SD-CG/Try1-3A/FIRE-CG
REM
REM
REM
REM
REM
REM ./C.cell (11c1c37f851c82e70ff6c80c92926a4b)
REM
REM compiler GCC version 9.2.1 20190827 (Red Hat 9.2.1-1)
REM options -cpp -mtune=generic -march=x86-64 -g -O0 -fpre-include=/usr/include/finclude/math-vector-fortran.h
REM seed 550115481 -1041819758 1091716134 614896439 168017348 2147057542 -981003274 831248519 -1360886150 465519289 661610338 669364369 -1177305137 -1826502037 1964479153 -425632455 -373634356 272130321 -1728370611 564339053 1653976797 327297696 -1317240521 -702190376 1234603946 -449623714 560614851 -904571311 1250614656 903700699 -31049230 91735296 1852982117
REM
CELL 1.54180   50.00000   50.00000   50.00000   90.00000   90.00000   90.00000
LATT -1
SFAC C  
C      1  0.5143350000000  0.5351820000000  0.5636010000000 1.0
C      1  0.4639320000000  0.5651840000000  0.4901500000000 1.0
C      1  0.5125760000000  0.4907500000000  0.4352560000000 1.0
C      1  0.4577150000000  0.5316640000000  0.4418460000000 1.0
C      1  0.5245350000000  0.4273270000000  0.5253670000000 1.0
C      1  0.5489040000000  0.4575060000000  0.5500460000000 1.0
C      1  0.5509710000000  0.4667850000000  0.4569840000000 1.0
C      1  0.5281600000000  0.4950960000000  0.4940780000000 1.0
C      1  0.4448000000000  0.4805900000000  0.4693580000000 1.0
C      1  0.5386760000000  0.5358980000000  0.5498870000000 1.0
C      1  0.5700070000000  0.4959730000000  0.4995120000000 1.0
C      1  0.4822780000000  0.5738380000000  0.5109210000000 1.0
C      1  0.5047070000000  0.5120610000000  0.5476810000000 1.0
C      1  0.5482390000000  0.4901130000000  0.5135810000000 1.0
C      1  0.5521200000000  0.5418880000000  0.5261860000000 1.0
C      1  0.5336530000000  0.5567670000000  0.4875710000000 1.0
C      1  0.4663930000000  0.4482720000000  0.4856430000000 1.0
C      1  0.5245410000000  0.5157380000000  0.4451840000000 1.0
C      1  0.4935730000000  0.4693780000000  0.4447590000000 1.0
C      1  0.5606240000000  0.4910710000000  0.4707520000000 1.0
C      1  0.5394700000000  0.4423030000000  0.5060470000000 1.0
C      1  0.4881070000000  0.5516470000000  0.4938210000000 1.0
C      1  0.4887950000000  0.4356760000000  0.4979760000000 1.0
C      1  0.5654860000000  0.5249400000000  0.5044000000000 1.0
C      1  0.5161940000000  0.4461790000000  0.4888730000000 1.0
C      1  0.5537200000000  0.4639550000000  0.5188990000000 1.0
C      1  0.4833630000000  0.4971760000000  0.5625590000000 1.0
C      1  0.5301730000000  0.5602730000000  0.5167280000000 1.0
C      1  0.4808670000000  0.5347580000000  0.4412940000000 1.0
C      1  0.4347250000000  0.5360660000000  0.4571220000000 1.0
C      1  0.5076030000000  0.5397580000000  0.4481190000000 1.0
C      1  0.4808460000000  0.4449820000000  0.5441660000000 1.0
C      1  0.4819380000000  0.4680870000000  0.5617610000000 1.0
C      1  0.4376910000000  0.5097800000000  0.4706380000000 1.0
C      1  0.5543800000000  0.5368470000000  0.4804420000000 1.0
C      1  0.4687560000000  0.4688240000000  0.5356390000000 1.0
C      1  0.5100490000000  0.4747590000000  0.4886230000000 1.0
C      1  0.5040970000000  0.5671930000000  0.5287610000000 1.0
C      1  0.5495480000000  0.5162380000000  0.4600980000000 1.0
C      1  0.4693460000000  0.4901340000000  0.5154170000000 1.0
C      1  0.5053260000000  0.5143810000000  0.4965720000000 1.0
C      1  0.5334200000000  0.4448010000000  0.4655600000000 1.0
C      1  0.5153290000000  0.4492060000000  0.4423060000000 1.0
C      1  0.5339050000000  0.4702410000000  0.4327790000000 1.0
C      1  0.4963050000000  0.4296300000000  0.5253850000000 1.0
C      1  0.4979500000000  0.5251640000000  0.5220470000000 1.0
C      1  0.4691730000000  0.4656060000000  0.4616690000000 1.0
C      1  0.5092410000000  0.5548320000000  0.4733000000000 1.0
C      1  0.4308260000000  0.4759220000000  0.5197570000000 1.0
C      1  0.4407420000000  0.5491720000000  0.4836620000000 1.0
C      1  0.4523480000000  0.5144290000000  0.5182190000000 1.0
C      1  0.5276850000000  0.4390290000000  0.5495680000000 1.0
C      1  0.4686850000000  0.5354680000000  0.5484460000000 1.0
C      1  0.4358330000000  0.4987230000000  0.5371120000000 1.0
C      1  0.4576850000000  0.5108560000000  0.5584430000000 1.0
C      1  0.4390990000000  0.5237530000000  0.4955990000000 1.0
C      1  0.4412360000000  0.4645640000000  0.4938350000000 1.0
C      1  0.4872850000000  0.4906690000000  0.4938360000000 1.0
C      1  0.4920330000000  0.5528990000000  0.5521610000000 1.0
END
