TITL C-884136-4169-283 -2.93664556755412 125000 -11458.5139825384 0 0 77 (C1) n - 1
REM
REM in /home/nfs/bkarasulu/CARBON/AIRSS/Generating-Clusters/ReaxFF-fromJPCA2015/Units_Real/with-SteepDescent/Only-C1/SD-CG/Try1-3A/FIRE-CG
REM
REM
REM
REM
REM
REM ./C.cell (11c1c37f851c82e70ff6c80c92926a4b)
REM
REM compiler GCC version 9.2.1 20190827 (Red Hat 9.2.1-1)
REM options -cpp -mtune=generic -march=x86-64 -g -O0 -fpre-include=/usr/include/finclude/math-vector-fortran.h
REM seed 1506755260 -63770736 -538268098 1895025792 1549140358 1541796397 -2047643575 -988644649 -1245762918 -1525211859 1485026566 1038163546 -776414859 -1505939759 -1040269040 1809948432 852927149 1454117786 884371549 -830403467 -1952565593 1142446593 1821811695 213135427 1280679486 2133621706 -1995009700 749876598 -1309301072 950043484 42519874 -999802193 -212573136
REM
CELL 1.54180   50.00000   50.00000   50.00000   90.00000   90.00000   90.00000
LATT -1
SFAC C  
C      1  0.4535090000000  0.4255290000000  0.5409790000000 1.0
C      1  0.5251790000000  0.4509030000000  0.5385360000000 1.0
C      1  0.5527520000000  0.5046790000000  0.4536410000000 1.0
C      1  0.5404790000000  0.5625940000000  0.4637010000000 1.0
C      1  0.4864630000000  0.5793570000000  0.5221810000000 1.0
C      1  0.4949770000000  0.4492330000000  0.5413600000000 1.0
C      1  0.4643990000000  0.4525390000000  0.4462130000000 1.0
C      1  0.5333440000000  0.4345010000000  0.5132970000000 1.0
C      1  0.5711360000000  0.5184130000000  0.5028950000000 1.0
C      1  0.4492900000000  0.4302430000000  0.4789180000000 1.0
C      1  0.4979990000000  0.5820740000000  0.4817930000000 1.0
C      1  0.4692290000000  0.4087650000000  0.5235120000000 1.0
C      1  0.5159550000000  0.4293890000000  0.4927090000000 1.0
C      1  0.4562190000000  0.4755790000000  0.5486410000000 1.0
C      1  0.5322440000000  0.5573390000000  0.5073040000000 1.0
C      1  0.5769150000000  0.4634830000000  0.4684930000000 1.0
C      1  0.5108200000000  0.5801910000000  0.5061850000000 1.0
C      1  0.4808520000000  0.4794470000000  0.4948530000000 1.0
C      1  0.5107780000000  0.5106530000000  0.5184030000000 1.0
C      1  0.5542690000000  0.5297060000000  0.5458830000000 1.0
C      1  0.4962930000000  0.4933590000000  0.5703480000000 1.0
C      1  0.4821350000000  0.4706770000000  0.5595560000000 1.0
C      1  0.4756430000000  0.5273850000000  0.4953520000000 1.0
C      1  0.5727450000000  0.5473150000000  0.5047350000000 1.0
C      1  0.4465960000000  0.5574430000000  0.4663590000000 1.0
C      1  0.4306230000000  0.5378330000000  0.4796720000000 1.0
C      1  0.4919210000000  0.5846990000000  0.5509490000000 1.0
C      1  0.4524090000000  0.4533280000000  0.5301700000000 1.0
C      1  0.5546490000000  0.5525210000000  0.5273290000000 1.0
C      1  0.4555080000000  0.5488840000000  0.5395910000000 1.0
C      1  0.4961940000000  0.4259630000000  0.4746550000000 1.0
C      1  0.5613060000000  0.4384440000000  0.4639660000000 1.0
C      1  0.5328900000000  0.5100070000000  0.4327430000000 1.0
C      1  0.5227660000000  0.5269120000000  0.4966200000000 1.0
C      1  0.5529270000000  0.4827630000000  0.5335160000000 1.0
C      1  0.5551600000000  0.5644780000000  0.4868300000000 1.0
C      1  0.5621710000000  0.4777600000000  0.4476610000000 1.0
C      1  0.4954300000000  0.5774600000000  0.4547590000000 1.0
C      1  0.4820110000000  0.4213760000000  0.5455270000000 1.0
C      1  0.5672190000000  0.5086130000000  0.5301900000000 1.0
C      1  0.5164650000000  0.5350960000000  0.4323630000000 1.0
C      1  0.5564120000000  0.4382890000000  0.4949700000000 1.0
C      1  0.5057910000000  0.4878520000000  0.4816920000000 1.0
C      1  0.5614140000000  0.4667800000000  0.4929820000000 1.0
C      1  0.4225660000000  0.5311580000000  0.5074230000000 1.0
C      1  0.4534920000000  0.5181800000000  0.4776370000000 1.0
C      1  0.4817380000000  0.5053060000000  0.5149470000000 1.0
C      1  0.4246460000000  0.4633640000000  0.4802140000000 1.0
C      1  0.5489910000000  0.5117220000000  0.4832250000000 1.0
C      1  0.5211620000000  0.5613550000000  0.4444700000000 1.0
C      1  0.5090210000000  0.5373490000000  0.5701260000000 1.0
C      1  0.4913620000000  0.4427480000000  0.4512150000000 1.0
C      1  0.5188620000000  0.4834980000000  0.4287020000000 1.0
C      1  0.4374950000000  0.4456350000000  0.4597210000000 1.0
C      1  0.4937540000000  0.5228090000000  0.4456030000000 1.0
C      1  0.4677560000000  0.5706530000000  0.4573190000000 1.0
C      1  0.4853340000000  0.5204400000000  0.5679620000000 1.0
C      1  0.4759570000000  0.4540800000000  0.5128320000000 1.0
C      1  0.4534390000000  0.5025920000000  0.5355240000000 1.0
C      1  0.4717060000000  0.4245780000000  0.4962660000000 1.0
C      1  0.5256260000000  0.4936680000000  0.5690940000000 1.0
C      1  0.5446130000000  0.4528220000000  0.4440650000000 1.0
C      1  0.5333630000000  0.5214810000000  0.5650760000000 1.0
C      1  0.5007570000000  0.5169230000000  0.4770950000000 1.0
C      1  0.4378030000000  0.5530800000000  0.5181480000000 1.0
C      1  0.5386620000000  0.4706630000000  0.5557710000000 1.0
C      1  0.4762810000000  0.5035590000000  0.4320760000000 1.0
C      1  0.5268630000000  0.4865820000000  0.5193660000000 1.0
C      1  0.4235050000000  0.4830450000000  0.4987140000000 1.0
C      1  0.4282840000000  0.5043630000000  0.5170710000000 1.0
C      1  0.5071710000000  0.5669760000000  0.5693490000000 1.0
C      1  0.4611770000000  0.5252920000000  0.5528840000000 1.0
C      1  0.4682550000000  0.5553090000000  0.5149930000000 1.0
C      1  0.5339310000000  0.4837970000000  0.4913310000000 1.0
C      1  0.4609870000000  0.4818790000000  0.4466980000000 1.0
C      1  0.4563600000000  0.4891480000000  0.4749740000000 1.0
C      1  0.5156000000000  0.4560890000000  0.4380780000000 1.0
END
