TITL C-884127-5181-362 1.33030226215729 125000 -15323.975329749 0 0 103 (C1) n - 1
REM
REM in /home/nfs/bkarasulu/CARBON/AIRSS/Generating-Clusters/ReaxFF-fromJPCA2015/Units_Real/with-SteepDescent/Only-C1/SD-CG/Try1-3A/FIRE-CG
REM
REM
REM
REM
REM
REM ./C.cell (11c1c37f851c82e70ff6c80c92926a4b)
REM
REM compiler GCC version 9.2.1 20190827 (Red Hat 9.2.1-1)
REM options -cpp -mtune=generic -march=x86-64 -g -O0 -fpre-include=/usr/include/finclude/math-vector-fortran.h
REM seed -5176113 -99469142 1055733281 2093507479 -732481793 140549985 -636067433 -1650558485 -822913853 77422040 866861950 1755019630 -132888523 -1467041418 -1798253939 1404719421 1271726959 1888450664 2039516223 -1389807844 -936290151 -152959271 1459921628 1467308361 -1674571140 -348023520 -730874232 1424351875 -807966782 2118935085 -636911607 1428358980 -514506894
REM
CELL 1.54180   50.00000   50.00000   50.00000   90.00000   90.00000   90.00000
LATT -1
SFAC C  
C      1  0.4731070000000  0.5847110000000  0.5145510000000 1.0
C      1  0.4599920000000  0.5378780000000  0.4597830000000 1.0
C      1  0.5520480000000  0.5495790000000  0.5688030000000 1.0
C      1  0.5661750000000  0.5526870000000  0.4928910000000 1.0
C      1  0.4388310000000  0.4802880000000  0.4396430000000 1.0
C      1  0.4972740000000  0.5965880000000  0.5028940000000 1.0
C      1  0.5530300000000  0.4385910000000  0.4762370000000 1.0
C      1  0.5541320000000  0.4126060000000  0.4900240000000 1.0
C      1  0.4336320000000  0.5060110000000  0.5623540000000 1.0
C      1  0.4672460000000  0.5148400000000  0.5005800000000 1.0
C      1  0.5842800000000  0.4841410000000  0.5272730000000 1.0
C      1  0.4513240000000  0.4404230000000  0.4387380000000 1.0
C      1  0.4270050000000  0.4837930000000  0.5440800000000 1.0
C      1  0.4094230000000  0.5178980000000  0.5099800000000 1.0
C      1  0.4689600000000  0.5464350000000  0.5420230000000 1.0
C      1  0.4524510000000  0.5731820000000  0.4992740000000 1.0
C      1  0.4894390000000  0.4659410000000  0.4758900000000 1.0
C      1  0.5365530000000  0.4108080000000  0.5349300000000 1.0
C      1  0.4877530000000  0.4409880000000  0.5684500000000 1.0
C      1  0.5131550000000  0.4572490000000  0.5578290000000 1.0
C      1  0.5333780000000  0.5750620000000  0.4550440000000 1.0
C      1  0.4917450000000  0.5644600000000  0.4332400000000 1.0
C      1  0.5310700000000  0.3963950000000  0.4832800000000 1.0
C      1  0.5634710000000  0.4801020000000  0.4755720000000 1.0
C      1  0.4774810000000  0.5329170000000  0.5644320000000 1.0
C      1  0.4546980000000  0.4501040000000  0.5173810000000 1.0
C      1  0.4804350000000  0.5428420000000  0.4155870000000 1.0
C      1  0.4947070000000  0.5976150000000  0.4732970000000 1.0
C      1  0.5254950000000  0.4245060000000  0.4315150000000 1.0
C      1  0.4443130000000  0.5052440000000  0.4288360000000 1.0
C      1  0.4651980000000  0.4618850000000  0.5665610000000 1.0
C      1  0.4942500000000  0.4965030000000  0.4619320000000 1.0
C      1  0.4601420000000  0.5112210000000  0.5752210000000 1.0
C      1  0.4233910000000  0.5226760000000  0.4717770000000 1.0
C      1  0.5805320000000  0.5077440000000  0.5142090000000 1.0
C      1  0.5013810000000  0.4309280000000  0.4167870000000 1.0
C      1  0.5427740000000  0.4292070000000  0.5556760000000 1.0
C      1  0.4349980000000  0.5275560000000  0.4468100000000 1.0
C      1  0.4581280000000  0.5651310000000  0.4720230000000 1.0
C      1  0.4707200000000  0.4664220000000  0.4989500000000 1.0
C      1  0.5777880000000  0.4632480000000  0.5438680000000 1.0
C      1  0.5251840000000  0.5067020000000  0.4987670000000 1.0
C      1  0.5432480000000  0.5831750000000  0.4769680000000 1.0
C      1  0.4149640000000  0.4708310000000  0.5001020000000 1.0
C      1  0.4704090000000  0.4262790000000  0.4265430000000 1.0
C      1  0.5569670000000  0.4781980000000  0.5606590000000 1.0
C      1  0.4719400000000  0.4851160000000  0.5833010000000 1.0
C      1  0.5651610000000  0.5666370000000  0.5165160000000 1.0
C      1  0.4096850000000  0.4885920000000  0.5202010000000 1.0
C      1  0.5480120000000  0.5884200000000  0.5044840000000 1.0
C      1  0.5201910000000  0.5877110000000  0.5471660000000 1.0
C      1  0.4814910000000  0.5372170000000  0.5188520000000 1.0
C      1  0.5057910000000  0.5352950000000  0.4067910000000 1.0
C      1  0.4714590000000  0.5740650000000  0.5436030000000 1.0
C      1  0.5580500000000  0.5215310000000  0.5330000000000 1.0
C      1  0.4491690000000  0.4078090000000  0.4929450000000 1.0
C      1  0.4479120000000  0.4621600000000  0.5437700000000 1.0
C      1  0.5005400000000  0.5692000000000  0.5590070000000 1.0
C      1  0.5115780000000  0.4110390000000  0.5178590000000 1.0
C      1  0.4966040000000  0.4952020000000  0.5918790000000 1.0
C      1  0.5641820000000  0.5500800000000  0.5431450000000 1.0
C      1  0.4387240000000  0.5776160000000  0.5471310000000 1.0
C      1  0.4343590000000  0.5173770000000  0.4941650000000 1.0
C      1  0.4870700000000  0.4177520000000  0.5809500000000 1.0
C      1  0.5716360000000  0.4450520000000  0.5212120000000 1.0
C      1  0.5654120000000  0.5306940000000  0.4750810000000 1.0
C      1  0.4324640000000  0.4567340000000  0.4518000000000 1.0
C      1  0.5082660000000  0.4578350000000  0.4141760000000 1.0
C      1  0.4359520000000  0.4343430000000  0.5011440000000 1.0
C      1  0.5615430000000  0.4182240000000  0.5196320000000 1.0
C      1  0.5152250000000  0.4847170000000  0.4166780000000 1.0
C      1  0.5229100000000  0.5955660000000  0.5184270000000 1.0
C      1  0.5479880000000  0.5052240000000  0.5566290000000 1.0
C      1  0.4302360000000  0.5667260000000  0.5221140000000 1.0
C      1  0.5316360000000  0.4452700000000  0.4562450000000 1.0
C      1  0.5212650000000  0.5653560000000  0.4316250000000 1.0
C      1  0.5077390000000  0.5359460000000  0.5201230000000 1.0
C      1  0.5399690000000  0.4543050000000  0.5689540000000 1.0
C      1  0.4773710000000  0.4019990000000  0.4938650000000 1.0
C      1  0.4220020000000  0.4520160000000  0.4822410000000 1.0
C      1  0.5216490000000  0.5093840000000  0.4718960000000 1.0
C      1  0.4793000000000  0.5787400000000  0.4561920000000 1.0
C      1  0.5417300000000  0.4909730000000  0.4301360000000 1.0
C      1  0.5411430000000  0.5241600000000  0.4597040000000 1.0
C      1  0.5451230000000  0.5195690000000  0.4326980000000 1.0
C      1  0.5058310000000  0.4448720000000  0.4729270000000 1.0
C      1  0.4926480000000  0.4972990000000  0.4314020000000 1.0
C      1  0.5752550000000  0.5048670000000  0.4854040000000 1.0
C      1  0.5131030000000  0.4642270000000  0.5318380000000 1.0
C      1  0.5079460000000  0.4891310000000  0.5152710000000 1.0
C      1  0.4720840000000  0.5137870000000  0.4192850000000 1.0
C      1  0.4104100000000  0.5443160000000  0.5230560000000 1.0
C      1  0.5261910000000  0.4644260000000  0.5100620000000 1.0
C      1  0.5315830000000  0.5404190000000  0.4169720000000 1.0
C      1  0.5204230000000  0.5074060000000  0.5984220000000 1.0
C      1  0.5043000000000  0.5424890000000  0.5678380000000 1.0
C      1  0.5047700000000  0.4154880000000  0.4887090000000 1.0
C      1  0.5535740000000  0.4591930000000  0.4988970000000 1.0
C      1  0.4789150000000  0.4912490000000  0.5108020000000 1.0
C      1  0.4752720000000  0.5167660000000  0.4728240000000 1.0
C      1  0.5314980000000  0.5254620000000  0.5729920000000 1.0
C      1  0.5320780000000  0.5276170000000  0.5146490000000 1.0
C      1  0.5489670000000  0.4737470000000  0.4520470000000 1.0
END
