TITL C-884127-5181-246 4.89696639225983 125000 -11699.6398777471 0 0 79 (C1) n - 1
REM
REM in /home/nfs/bkarasulu/CARBON/AIRSS/Generating-Clusters/ReaxFF-fromJPCA2015/Units_Real/with-SteepDescent/Only-C1/SD-CG/Try1-3A/FIRE-CG
REM
REM
REM
REM
REM
REM ./C.cell (11c1c37f851c82e70ff6c80c92926a4b)
REM
REM compiler GCC version 9.2.1 20190827 (Red Hat 9.2.1-1)
REM options -cpp -mtune=generic -march=x86-64 -g -O0 -fpre-include=/usr/include/finclude/math-vector-fortran.h
REM seed 765449053 1365318129 867014565 -995148110 420971857 -983083581 -841058340 -17840500 1537999394 -2021615992 1180015900 1193369105 1433065260 -158576007 1249910469 2052677547 -13638286 -1321268799 -1764743862 -1873634673 -1770443877 -619187324 -1827960138 168992619 425869037 1868105364 1272096816 1292227941 1835364042 1408621827 906896809 -41590706 885487300
REM
CELL 1.54180   50.00000   50.00000   50.00000   90.00000   90.00000   90.00000
LATT -1
SFAC C  
C      1  0.4807660000000  0.4735090000000  0.4629880000000 1.0
C      1  0.5580980000000  0.4846120000000  0.5883250000000 1.0
C      1  0.4284180000000  0.4695560000000  0.5000900000000 1.0
C      1  0.5277220000000  0.4977770000000  0.4680460000000 1.0
C      1  0.4828970000000  0.4303100000000  0.5135080000000 1.0
C      1  0.4777090000000  0.5737720000000  0.4741190000000 1.0
C      1  0.5451570000000  0.5092330000000  0.5293250000000 1.0
C      1  0.5072760000000  0.5428680000000  0.4360310000000 1.0
C      1  0.4243220000000  0.4872270000000  0.4557540000000 1.0
C      1  0.5541390000000  0.4415200000000  0.4976320000000 1.0
C      1  0.5148510000000  0.4738770000000  0.5634760000000 1.0
C      1  0.4320170000000  0.4594840000000  0.4509000000000 1.0
C      1  0.5033240000000  0.5594970000000  0.4762940000000 1.0
C      1  0.5281770000000  0.4466060000000  0.4330640000000 1.0
C      1  0.5303460000000  0.4260640000000  0.5034290000000 1.0
C      1  0.4926320000000  0.5290690000000  0.5105840000000 1.0
C      1  0.4743340000000  0.5698290000000  0.5240250000000 1.0
C      1  0.5024360000000  0.5069390000000  0.4699800000000 1.0
C      1  0.5049840000000  0.5355080000000  0.5610820000000 1.0
C      1  0.5786950000000  0.5126940000000  0.4831170000000 1.0
C      1  0.4987600000000  0.5313880000000  0.4852310000000 1.0
C      1  0.5091340000000  0.5766570000000  0.5566830000000 1.0
C      1  0.5194230000000  0.5552520000000  0.5398050000000 1.0
C      1  0.4694900000000  0.5651930000000  0.5533210000000 1.0
C      1  0.4449360000000  0.4704510000000  0.5245720000000 1.0
C      1  0.4464340000000  0.5192980000000  0.4984970000000 1.0
C      1  0.5341200000000  0.5441580000000  0.4413350000000 1.0
C      1  0.4405690000000  0.5097930000000  0.4461170000000 1.0
C      1  0.4650790000000  0.4698580000000  0.5669650000000 1.0
C      1  0.4247220000000  0.5371810000000  0.5062080000000 1.0
C      1  0.4442050000000  0.5265330000000  0.4701590000000 1.0
C      1  0.5377210000000  0.4815860000000  0.4876300000000 1.0
C      1  0.5309840000000  0.5608870000000  0.4668510000000 1.0
C      1  0.4402000000000  0.5558940000000  0.4646470000000 1.0
C      1  0.5517230000000  0.4608800000000  0.4749710000000 1.0
C      1  0.4048000000000  0.5163240000000  0.4957140000000 1.0
C      1  0.4602950000000  0.5741950000000  0.4991160000000 1.0
C      1  0.5472660000000  0.5496770000000  0.5206890000000 1.0
C      1  0.4917580000000  0.4557540000000  0.5687510000000 1.0
C      1  0.5709790000000  0.5164530000000  0.4593920000000 1.0
C      1  0.4369190000000  0.4524100000000  0.4783660000000 1.0
C      1  0.4861990000000  0.4823080000000  0.5212070000000 1.0
C      1  0.5406010000000  0.4938330000000  0.4431350000000 1.0
C      1  0.5752470000000  0.4524500000000  0.5154590000000 1.0
C      1  0.4685560000000  0.4480300000000  0.4708220000000 1.0
C      1  0.5869290000000  0.4793590000000  0.5186460000000 1.0
C      1  0.4778140000000  0.4491050000000  0.4233440000000 1.0
C      1  0.5392720000000  0.4667020000000  0.5758950000000 1.0
C      1  0.5210510000000  0.4337690000000  0.4549600000000 1.0
C      1  0.4133560000000  0.4902320000000  0.4839390000000 1.0
C      1  0.5224890000000  0.5247280000000  0.5811590000000 1.0
C      1  0.5448410000000  0.5565980000000  0.4929790000000 1.0
C      1  0.5655990000000  0.4656070000000  0.5674280000000 1.0
C      1  0.4647720000000  0.5629670000000  0.4506330000000 1.0
C      1  0.4565900000000  0.4457090000000  0.4406520000000 1.0
C      1  0.5804990000000  0.4637990000000  0.5422580000000 1.0
C      1  0.5026060000000  0.4367230000000  0.5500230000000 1.0
C      1  0.4613040000000  0.5150820000000  0.5465040000000 1.0
C      1  0.4715800000000  0.5114430000000  0.5180310000000 1.0
C      1  0.5829650000000  0.5080820000000  0.5100890000000 1.0
C      1  0.5529380000000  0.5202220000000  0.4387600000000 1.0
C      1  0.4668060000000  0.5147580000000  0.4347170000000 1.0
C      1  0.5136860000000  0.4210120000000  0.4791850000000 1.0
C      1  0.5474860000000  0.5119440000000  0.5912670000000 1.0
C      1  0.5475310000000  0.4649800000000  0.4459250000000 1.0
C      1  0.5098030000000  0.4243770000000  0.5255070000000 1.0
C      1  0.4711810000000  0.4583330000000  0.5205880000000 1.0
C      1  0.5029640000000  0.4514920000000  0.4125940000000 1.0
C      1  0.5656610000000  0.5271720000000  0.5272240000000 1.0
C      1  0.4850350000000  0.4969430000000  0.4492830000000 1.0
C      1  0.4982720000000  0.5539350000000  0.5190010000000 1.0
C      1  0.5356260000000  0.4859680000000  0.5176670000000 1.0
C      1  0.5119100000000  0.4832270000000  0.5353650000000 1.0
C      1  0.4499580000000  0.4877300000000  0.5499990000000 1.0
C      1  0.4866810000000  0.5845580000000  0.5661350000000 1.0
C      1  0.4788300000000  0.5419450000000  0.4339380000000 1.0
C      1  0.4753850000000  0.5361390000000  0.5604000000000 1.0
C      1  0.4854870000000  0.4265530000000  0.4857870000000 1.0
C      1  0.4346780000000  0.5624140000000  0.4927060000000 1.0
END
