TITL C-884134-5972-140 17.0275239844494 125000 -5542.61316009767 0 0 39 (C1) n - 1
REM
REM in /home/nfs/bkarasulu/CARBON/AIRSS/Generating-Clusters/ReaxFF-fromJPCA2015/Units_Real/with-SteepDescent/Only-C1/SD-CG/Try1-3A/FIRE-CG
REM
REM
REM
REM
REM
REM ./C.cell (11c1c37f851c82e70ff6c80c92926a4b)
REM
REM compiler GCC version 9.2.1 20190827 (Red Hat 9.2.1-1)
REM options -cpp -mtune=generic -march=x86-64 -g -O0 -fpre-include=/usr/include/finclude/math-vector-fortran.h
REM seed -480342665 -1807857579 -925698942 870946064 -991054223 -368723441 1004051605 -1988681878 190941618 -2101694179 939546683 710535386 1741490662 440484967 980719243 1293647782 1871473524 -2112136869 991826760 -1011332867 -1328237260 1674850045 719419015 225856234 -454330437 1087577414 -92217697 -742502052 -2008723304 1028544785 916929291 -2078316270 358590505
REM
CELL 1.54180   50.00000   50.00000   50.00000   90.00000   90.00000   90.00000
LATT -1
SFAC C  
C      1  0.5355550000000  0.4904180000000  0.5441520000000 1.0
C      1  0.5552930000000  0.5339290000000  0.5193190000000 1.0
C      1  0.5114550000000  0.5261590000000  0.4432040000000 1.0
C      1  0.4994110000000  0.5596240000000  0.5270170000000 1.0
C      1  0.4999000000000  0.5735980000000  0.5020520000000 1.0
C      1  0.4945200000000  0.4466080000000  0.4712870000000 1.0
C      1  0.4611210000000  0.4692840000000  0.5376060000000 1.0
C      1  0.4735880000000  0.4458470000000  0.4922340000000 1.0
C      1  0.4776480000000  0.4671930000000  0.5597290000000 1.0
C      1  0.5077810000000  0.4515550000000  0.5274940000000 1.0
C      1  0.5162940000000  0.4994850000000  0.4875900000000 1.0
C      1  0.5215480000000  0.4587560000000  0.4703330000000 1.0
C      1  0.4644130000000  0.5470230000000  0.4723160000000 1.0
C      1  0.4446830000000  0.5105790000000  0.5087070000000 1.0
C      1  0.5193730000000  0.4699760000000  0.4430080000000 1.0
C      1  0.5308820000000  0.5120120000000  0.4623450000000 1.0
C      1  0.5351750000000  0.4756200000000  0.4935490000000 1.0
C      1  0.5552300000000  0.5118650000000  0.5367730000000 1.0
C      1  0.4892690000000  0.5640260000000  0.4745610000000 1.0
C      1  0.5686960000000  0.5115710000000  0.5095080000000 1.0
C      1  0.5196490000000  0.4937480000000  0.5680770000000 1.0
C      1  0.4463430000000  0.5356610000000  0.4933210000000 1.0
C      1  0.4464630000000  0.5095660000000  0.4791810000000 1.0
C      1  0.5606620000000  0.4931710000000  0.4866360000000 1.0
C      1  0.4649150000000  0.5207270000000  0.4586390000000 1.0
C      1  0.5569310000000  0.5072830000000  0.4627910000000 1.0
C      1  0.5303490000000  0.4695130000000  0.5240340000000 1.0
C      1  0.4783880000000  0.4502610000000  0.5214360000000 1.0
C      1  0.4910840000000  0.4808210000000  0.4386870000000 1.0
C      1  0.5035170000000  0.5482850000000  0.4575320000000 1.0
C      1  0.4964990000000  0.4767420000000  0.5777580000000 1.0
C      1  0.4579280000000  0.4988360000000  0.5322520000000 1.0
C      1  0.4937870000000  0.5287490000000  0.5262130000000 1.0
C      1  0.5051410000000  0.5139860000000  0.5067300000000 1.0
C      1  0.4867000000000  0.5095500000000  0.4420540000000 1.0
C      1  0.4536600000000  0.4588770000000  0.4730350000000 1.0
C      1  0.4756340000000  0.4589610000000  0.4518340000000 1.0
C      1  0.4775240000000  0.5145330000000  0.5467200000000 1.0
C      1  0.4929900000000  0.5056030000000  0.5702870000000 1.0
END
