TITL C-883734-4173-253 0.727291115281588 125000 -6006.17339380669 0 0 42 (C1) n - 1
REM
REM in /home/nfs/bkarasulu/CARBON/AIRSS/Generating-Clusters/ReaxFF-fromJPCA2015/Units_Real/with-SteepDescent/Only-C1/SD-CG/Try1-3A/FIRE-CG
REM
REM
REM
REM
REM
REM ./C.cell (11c1c37f851c82e70ff6c80c92926a4b)
REM
REM compiler GCC version 9.2.1 20190827 (Red Hat 9.2.1-1)
REM options -cpp -mtune=generic -march=x86-64 -g -O0 -fpre-include=/usr/include/finclude/math-vector-fortran.h
REM seed -1485196507 -65689575 1113896389 749681912 -1766857784 1318354911 353704930 -1223669518 1675664448 -975960725 563340661 -553751098 1824700524 -354588639 245477193 789698159 -8776447 219183075 -1411572182 1102154959 -201314678 1711616521 1124133196 2065565910 -2077038503 -696291911 365098727 -2141934193 -1366238630 -330051413 -2116209638 -634038371 1741169567
REM
CELL 1.54180   50.00000   50.00000   50.00000   90.00000   90.00000   90.00000
LATT -1
SFAC C  
C      1  0.5587060000000  0.4717110000000  0.5219210000000 1.0
C      1  0.5574260000000  0.5146120000000  0.4596300000000 1.0
C      1  0.4988800000000  0.5358820000000  0.4788150000000 1.0
C      1  0.4641090000000  0.5041230000000  0.5493900000000 1.0
C      1  0.4976500000000  0.5345200000000  0.4481500000000 1.0
C      1  0.4603380000000  0.4461160000000  0.5212570000000 1.0
C      1  0.4664610000000  0.4620960000000  0.5587120000000 1.0
C      1  0.5104280000000  0.4897590000000  0.5592490000000 1.0
C      1  0.4566280000000  0.4749080000000  0.4786460000000 1.0
C      1  0.4807230000000  0.4867920000000  0.5640490000000 1.0
C      1  0.5493300000000  0.4882850000000  0.4708390000000 1.0
C      1  0.4278110000000  0.4876070000000  0.4926010000000 1.0
C      1  0.4963140000000  0.4679850000000  0.4986220000000 1.0
C      1  0.4502940000000  0.5563850000000  0.4973020000000 1.0
C      1  0.5151770000000  0.5146660000000  0.5456990000000 1.0
C      1  0.4636130000000  0.4980630000000  0.4312180000000 1.0
C      1  0.5317030000000  0.4700680000000  0.5548900000000 1.0
C      1  0.5529590000000  0.5188660000000  0.5070940000000 1.0
C      1  0.5146450000000  0.4554830000000  0.4812110000000 1.0
C      1  0.5352130000000  0.4551880000000  0.5288630000000 1.0
C      1  0.5150900000000  0.4498800000000  0.5089410000000 1.0
C      1  0.4803400000000  0.5573890000000  0.4950740000000 1.0
C      1  0.4564710000000  0.4430310000000  0.5456000000000 1.0
C      1  0.5323410000000  0.5259490000000  0.5263280000000 1.0
C      1  0.4546450000000  0.5490670000000  0.5271060000000 1.0
C      1  0.5248170000000  0.4748030000000  0.4621640000000 1.0
C      1  0.4483760000000  0.5204110000000  0.5347330000000 1.0
C      1  0.4429960000000  0.5073840000000  0.5061030000000 1.0
C      1  0.4679340000000  0.5003060000000  0.4913120000000 1.0
C      1  0.5572820000000  0.4910960000000  0.4990720000000 1.0
C      1  0.5010330000000  0.4839400000000  0.4471990000000 1.0
C      1  0.4698280000000  0.4552010000000  0.4967910000000 1.0
C      1  0.5270590000000  0.5476440000000  0.4744640000000 1.0
C      1  0.4956450000000  0.5079880000000  0.4948500000000 1.0
C      1  0.4715780000000  0.4768430000000  0.4501290000000 1.0
C      1  0.5602720000000  0.4807490000000  0.5511600000000 1.0
C      1  0.5060120000000  0.5196720000000  0.5193650000000 1.0
C      1  0.5475170000000  0.5275400000000  0.4345130000000 1.0
C      1  0.5513040000000  0.5333850000000  0.4820620000000 1.0
C      1  0.5250870000000  0.5449210000000  0.4452720000000 1.0
C      1  0.4930450000000  0.5090620000000  0.4343070000000 1.0
C      1  0.4829190000000  0.5606240000000  0.5252990000000 1.0
END
