TITL C-883737-113-122 0.31442813594985 125000 -9248.33939369186 0 0 63 (C1) n - 1
REM
REM in /home/nfs/bkarasulu/CARBON/AIRSS/Generating-Clusters/ReaxFF-fromJPCA2015/Units_Real/with-SteepDescent/Only-C1/SD-CG/Try1-3A/FIRE-CG
REM
REM
REM
REM
REM
REM ./C.cell (11c1c37f851c82e70ff6c80c92926a4b)
REM
REM compiler GCC version 9.2.1 20190827 (Red Hat 9.2.1-1)
REM options -cpp -mtune=generic -march=x86-64 -g -O0 -fpre-include=/usr/include/finclude/math-vector-fortran.h
REM seed -450970473 -1983287173 257102860 -337301411 1495717851 -642055862 -1275557876 564472096 -266581409 442626401 -1422899714 -1561780532 -1111228239 -1607095528 1876672436 1016786123 1744242489 1706193308 -123176497 496562586 748662829 -983383287 1823212393 2035832918 1311138809 -1646260768 -877166274 -1806089532 82485046 1947182525 1814135377 1934703914 -1440288443
REM
CELL 1.54180   50.00000   50.00000   50.00000   90.00000   90.00000   90.00000
LATT -1
SFAC C  
C      1  0.4399220000000  0.4764990000000  0.4517420000000 1.0
C      1  0.4393720000000  0.4656020000000  0.5198960000000 1.0
C      1  0.4761140000000  0.4563510000000  0.4822420000000 1.0
C      1  0.5657410000000  0.4736090000000  0.5216860000000 1.0
C      1  0.4289140000000  0.5088170000000  0.5037410000000 1.0
C      1  0.5073570000000  0.5721070000000  0.5244890000000 1.0
C      1  0.4826750000000  0.5394250000000  0.4780410000000 1.0
C      1  0.4882280000000  0.5110710000000  0.4828560000000 1.0
C      1  0.5006010000000  0.4400350000000  0.4665760000000 1.0
C      1  0.5535100000000  0.5433560000000  0.4583480000000 1.0
C      1  0.5696470000000  0.5022500000000  0.5185210000000 1.0
C      1  0.4841700000000  0.5180540000000  0.4241600000000 1.0
C      1  0.5192740000000  0.5065910000000  0.5191440000000 1.0
C      1  0.5099730000000  0.4296210000000  0.4923040000000 1.0
C      1  0.4640080000000  0.4745690000000  0.4388610000000 1.0
C      1  0.4464580000000  0.4573220000000  0.4727750000000 1.0
C      1  0.4281800000000  0.4647480000000  0.4945420000000 1.0
C      1  0.4619670000000  0.5736080000000  0.4902310000000 1.0
C      1  0.5667090000000  0.5408810000000  0.4835140000000 1.0
C      1  0.4507660000000  0.5233320000000  0.5148920000000 1.0
C      1  0.5396950000000  0.5403010000000  0.5451970000000 1.0
C      1  0.4654780000000  0.5195380000000  0.5437170000000 1.0
C      1  0.5059250000000  0.4906040000000  0.5879030000000 1.0
C      1  0.5159000000000  0.5374460000000  0.5625020000000 1.0
C      1  0.5329220000000  0.5095020000000  0.4682190000000 1.0
C      1  0.5407680000000  0.5476890000000  0.4977080000000 1.0
C      1  0.5056620000000  0.5355480000000  0.4333490000000 1.0
C      1  0.4861830000000  0.5497340000000  0.4504550000000 1.0
C      1  0.4153990000000  0.4928750000000  0.4866170000000 1.0
C      1  0.4951000000000  0.5243400000000  0.5397650000000 1.0
C      1  0.5521810000000  0.4619160000000  0.5451470000000 1.0
C      1  0.5497410000000  0.4882480000000  0.5586810000000 1.0
C      1  0.4734970000000  0.5038210000000  0.5061560000000 1.0
C      1  0.4860060000000  0.5820910000000  0.5046280000000 1.0
C      1  0.5012200000000  0.4570050000000  0.5293140000000 1.0
C      1  0.5300610000000  0.4439660000000  0.5357670000000 1.0
C      1  0.5448330000000  0.4634740000000  0.5014770000000 1.0
C      1  0.5270610000000  0.5219590000000  0.4943680000000 1.0
C      1  0.5183760000000  0.4780670000000  0.5146680000000 1.0
C      1  0.4282770000000  0.5042510000000  0.4623460000000 1.0
C      1  0.5736090000000  0.5128560000000  0.4914780000000 1.0
C      1  0.4540750000000  0.5435660000000  0.4856100000000 1.0
C      1  0.5358390000000  0.4602550000000  0.4528350000000 1.0
C      1  0.5481700000000  0.5124550000000  0.5372790000000 1.0
C      1  0.5296800000000  0.4811720000000  0.5757940000000 1.0
C      1  0.5144260000000  0.4500060000000  0.4445660000000 1.0
C      1  0.5126990000000  0.5171570000000  0.5812820000000 1.0
C      1  0.5036980000000  0.4686770000000  0.4298900000000 1.0
C      1  0.4910410000000  0.5516250000000  0.5319800000000 1.0
C      1  0.5329540000000  0.5291160000000  0.4452200000000 1.0
C      1  0.4751340000000  0.4861330000000  0.4846860000000 1.0
C      1  0.5340880000000  0.4356460000000  0.5085330000000 1.0
C      1  0.5537170000000  0.4685760000000  0.4716900000000 1.0
C      1  0.4880960000000  0.4417660000000  0.5061680000000 1.0
C      1  0.4587640000000  0.4962200000000  0.5593420000000 1.0
C      1  0.4636540000000  0.5337200000000  0.4388690000000 1.0
C      1  0.4799560000000  0.4807620000000  0.5728620000000 1.0
C      1  0.4787450000000  0.4607090000000  0.5523430000000 1.0
C      1  0.4512010000000  0.4680040000000  0.5444950000000 1.0
C      1  0.5350280000000  0.5594260000000  0.5241730000000 1.0
C      1  0.4835480000000  0.4867290000000  0.4230190000000 1.0
C      1  0.5599990000000  0.4969500000000  0.4710330000000 1.0
C      1  0.4440100000000  0.5282510000000  0.4603080000000 1.0
END
