TITL C-884133-6611-11 758980.053767789 125000 -22147.3108530163 0 0 146 (C1) n - 1
REM
REM in /home/nfs/bkarasulu/CARBON/AIRSS/Generating-Clusters/ReaxFF-fromJPCA2015/Units_Real/with-SteepDescent/Only-C1/SD-CG/Try1-3A/FIRE-CG
REM
REM
REM
REM
REM
REM ./C.cell (11c1c37f851c82e70ff6c80c92926a4b)
REM
REM compiler GCC version 9.2.1 20190827 (Red Hat 9.2.1-1)
REM options -cpp -mtune=generic -march=x86-64 -g -O0 -fpre-include=/usr/include/finclude/math-vector-fortran.h
REM seed 1489463668 1273977129 1615459440 -508682882 665164184 -271489338 -323991850 677457145 857454294 -787770578 662739922 -1670869221 -30547046 1241148285 -405092914 2001883643 -826395342 1119137146 1446716190 -663653109 -37207880 1037533442 -780567882 267833832 -1385433194 -1857967145 599626520 -197502996 -2110098351 -972026787 -1173922614 185250941 1710699088
REM
CELL 1.54180   50.00000   50.00000   50.00000   90.00000   90.00000   90.00000
LATT -1
SFAC C  
C      1  0.4764690000000  0.5961550000000  0.5057620000000 1.0
C      1  0.5288280000000  0.5078410000000  0.4476250000000 1.0
C      1  0.5179990000000  0.5829010000000  0.5659740000000 1.0
C      1  0.4479630000000  0.5345870000000  0.4517040000000 1.0
C      1  0.6048610000000  0.4843600000000  0.4705530000000 1.0
C      1  0.5618130000000  0.5787220000000  0.5040270000000 1.0
C      1  0.5580630000000  0.5771990000000  0.4740330000000 1.0
C      1  0.4234090000000  0.5368640000000  0.4370440000000 1.0
C      1  0.5345280000000  0.4325510000000  0.5656520000000 1.0
C      1  0.5635320000000  0.4299630000000  0.4581450000000 1.0
C      1  0.5016740000000  0.4811270000000  0.5617660000000 1.0
C      1  0.4126490000000  0.4524720000000  0.4686690000000 1.0
C      1  0.5376630000000  0.5308210000000  0.4125760000000 1.0
C      1  0.5358700000000  0.4159660000000  0.5113150000000 1.0
C      1  0.6000020000000  0.5414110000000  0.5142200000000 1.0
C      1  0.5450080000000  0.5914490000000  0.5247450000000 1.0
C      1  0.4303770000000  0.5358230000000  0.5430600000000 1.0
C      1  0.4225760000000  0.5086650000000  0.5511650000000 1.0
C      1  0.5121080000000  0.4041210000000  0.5240030000000 1.0
C      1  0.5192760000000  0.5705030000000  0.4358620000000 1.0
C      1  0.5094440000000  0.4627480000000  0.4108200000000 1.0
C      1  0.5441810000000  0.5821480000000  0.5529300000000 1.0
C      1  0.5872510000000  0.4465000000000  0.5051820000000 1.0
C      1  0.5443060000000  0.4070770000000  0.4611890000000 1.0
C      1  0.3913650000000  0.4757740000000  0.4759410000000 1.0
C      1  0.4898450000000  0.4027970000000  0.4504960000000 1.0
C      1  0.4568050000000  0.5147470000000  0.4691350000000 1.0
C      1  0.5243060000000  0.4494780000000  0.5829150000000 1.0
C      1  0.6127350000000  0.4964580000000  0.5214070000000 1.0
C      1  0.5258060000000  0.4436930000000  0.5068020000000 1.0
C      1  0.5191430000000  0.5620920000000  0.4810010000000 1.0
C      1  0.4937990000000  0.5231580000000  0.5058940000000 1.0
C      1  0.5579770000000  0.4633660000000  0.4153970000000 1.0
C      1  0.4055100000000  0.4657460000000  0.5347510000000 1.0
C      1  0.3849500000000  0.4610980000000  0.4990920000000 1.0
C      1  0.5139050000000  0.5621730000000  0.5876960000000 1.0
C      1  0.5433320000000  0.5149680000000  0.4952340000000 1.0
C      1  0.4894580000000  0.5487480000000  0.5985480000000 1.0
C      1  0.5029770000000  0.6054160000000  0.4977760000000 1.0
C      1  0.4698980000000  0.5620120000000  0.4201070000000 1.0
C      1  0.5782200000000  0.5209390000000  0.4477550000000 1.0
C      1  0.5519140000000  0.5330050000000  0.5163340000000 1.0
C      1  0.5378500000000  0.4811480000000  0.4596700000000 1.0
C      1  0.4582920000000  0.4664690000000  0.4093830000000 1.0
C      1  0.5784450000000  0.5604040000000  0.4688940000000 1.0
C      1  0.3983140000000  0.4429760000000  0.5158320000000 1.0
C      1  0.4955710000000  0.5486790000000  0.4917500000000 1.0
C      1  0.5469300000000  0.4929110000000  0.5767570000000 1.0
C      1  0.5135600000000  0.4142880000000  0.5520650000000 1.0
C      1  0.5075310000000  0.4508410000000  0.4360310000000 1.0
C      1  0.4247200000000  0.4626010000000  0.5555160000000 1.0
C      1  0.5649950000000  0.4389040000000  0.5554820000000 1.0
C      1  0.4774570000000  0.4637860000000  0.4934510000000 1.0
C      1  0.4928490000000  0.4791000000000  0.4749610000000 1.0
C      1  0.3985370000000  0.5031220000000  0.4854540000000 1.0
C      1  0.5298300000000  0.4874360000000  0.5557410000000 1.0
C      1  0.4153490000000  0.5517290000000  0.5232730000000 1.0
C      1  0.5185790000000  0.6032980000000  0.5224480000000 1.0
C      1  0.4804670000000  0.4950410000000  0.6056390000000 1.0
C      1  0.5581640000000  0.4576330000000  0.4434200000000 1.0
C      1  0.6145130000000  0.5024400000000  0.4922070000000 1.0
C      1  0.4867050000000  0.4153610000000  0.5556700000000 1.0
C      1  0.5546170000000  0.5552020000000  0.5567350000000 1.0
C      1  0.4333240000000  0.4738570000000  0.4684390000000 1.0
C      1  0.4620120000000  0.4377590000000  0.4523020000000 1.0
C      1  0.4821780000000  0.5423800000000  0.5483720000000 1.0
C      1  0.4252600000000  0.4894130000000  0.4432370000000 1.0
C      1  0.5487250000000  0.5290660000000  0.4432600000000 1.0
C      1  0.5117430000000  0.5906030000000  0.4736500000000 1.0
C      1  0.4134190000000  0.4723630000000  0.4254290000000 1.0
C      1  0.4744410000000  0.5950000000000  0.5352040000000 1.0
C      1  0.5847560000000  0.4391270000000  0.5711160000000 1.0
C      1  0.5745490000000  0.4264860000000  0.4846250000000 1.0
C      1  0.5959480000000  0.4643690000000  0.4870630000000 1.0
C      1  0.5358220000000  0.5048280000000  0.4036860000000 1.0
C      1  0.5541730000000  0.4062250000000  0.4908510000000 1.0
C      1  0.5864280000000  0.5060110000000  0.5528530000000 1.0
C      1  0.5159450000000  0.5514720000000  0.4135330000000 1.0
C      1  0.5957000000000  0.5397490000000  0.4629700000000 1.0
C      1  0.4892560000000  0.4150180000000  0.5077970000000 1.0
C      1  0.4539170000000  0.5773250000000  0.4756790000000 1.0
C      1  0.4384970000000  0.4169470000000  0.5371960000000 1.0
C      1  0.4992210000000  0.5874760000000  0.4475850000000 1.0
C      1  0.5676430000000  0.5121210000000  0.5735190000000 1.0
C      1  0.4844940000000  0.4692800000000  0.3993390000000 1.0
C      1  0.4385250000000  0.4195140000000  0.5072610000000 1.0
C      1  0.5003580000000  0.5104510000000  0.4419240000000 1.0
C      1  0.4703670000000  0.4930400000000  0.4048680000000 1.0
C      1  0.5018350000000  0.5964030000000  0.5458830000000 1.0
C      1  0.4594340000000  0.4162370000000  0.5589850000000 1.0
C      1  0.4529050000000  0.5005110000000  0.6014160000000 1.0
C      1  0.5240730000000  0.5184460000000  0.6085930000000 1.0
C      1  0.5592060000000  0.5394660000000  0.5806850000000 1.0
C      1  0.4818210000000  0.5022800000000  0.4633160000000 1.0
C      1  0.5188920000000  0.5089490000000  0.5096980000000 1.0
C      1  0.4700710000000  0.4807670000000  0.5215170000000 1.0
C      1  0.4323350000000  0.5025960000000  0.5903270000000 1.0
C      1  0.5125530000000  0.4655330000000  0.4594080000000 1.0
C      1  0.4885430000000  0.4302250000000  0.4387330000000 1.0
C      1  0.4514390000000  0.5777680000000  0.5397870000000 1.0
C      1  0.4885850000000  0.5432050000000  0.4083010000000 1.0
C      1  0.3972800000000  0.5307720000000  0.4768410000000 1.0
C      1  0.5075960000000  0.5397470000000  0.5447650000000 1.0
C      1  0.5350130000000  0.4764140000000  0.4026990000000 1.0
C      1  0.4207210000000  0.5023310000000  0.5042550000000 1.0
C      1  0.4451050000000  0.4469810000000  0.4267010000000 1.0
C      1  0.4860090000000  0.5147070000000  0.4164420000000 1.0
C      1  0.6089250000000  0.5307170000000  0.4886690000000 1.0
C      1  0.4648800000000  0.4093840000000  0.4658180000000 1.0
C      1  0.4462430000000  0.5121950000000  0.4957770000000 1.0
C      1  0.4284860000000  0.5743250000000  0.4897200000000 1.0
C      1  0.5795620000000  0.4722660000000  0.4305850000000 1.0
C      1  0.6053760000000  0.5211230000000  0.5353390000000 1.0
C      1  0.4978690000000  0.4412740000000  0.5020740000000 1.0
C      1  0.4885860000000  0.4744770000000  0.5861930000000 1.0
C      1  0.5809050000000  0.4547900000000  0.5335030000000 1.0
C      1  0.4676700000000  0.5515340000000  0.4444490000000 1.0
C      1  0.4732060000000  0.5682400000000  0.4948200000000 1.0
C      1  0.5414410000000  0.4692080000000  0.5087960000000 1.0
C      1  0.4180120000000  0.4471090000000  0.4365810000000 1.0
C      1  0.4084400000000  0.5117870000000  0.4332290000000 1.0
C      1  0.4349320000000  0.4356550000000  0.5581830000000 1.0
C      1  0.5932300000000  0.4807740000000  0.5382590000000 1.0
C      1  0.3982530000000  0.5326560000000  0.4488330000000 1.0
C      1  0.4692280000000  0.5799700000000  0.4449790000000 1.0
C      1  0.4548920000000  0.5502230000000  0.5503120000000 1.0
C      1  0.4294580000000  0.5771550000000  0.5202260000000 1.0
C      1  0.5325910000000  0.4920830000000  0.6007830000000 1.0
C      1  0.5349210000000  0.5427990000000  0.5962240000000 1.0
C      1  0.5356730000000  0.5386650000000  0.5403750000000 1.0
C      1  0.4690740000000  0.5091540000000  0.5132990000000 1.0
C      1  0.5471490000000  0.4874890000000  0.4876100000000 1.0
C      1  0.5731600000000  0.5534600000000  0.5144090000000 1.0
C      1  0.4168320000000  0.4337630000000  0.4952210000000 1.0
C      1  0.4952110000000  0.5214030000000  0.6095080000000 1.0
C      1  0.5134790000000  0.4691010000000  0.6013250000000 1.0
C      1  0.4139100000000  0.4921730000000  0.5299770000000 1.0
C      1  0.5321490000000  0.4896950000000  0.5273270000000 1.0
C      1  0.5892770000000  0.4946650000000  0.4460740000000 1.0
C      1  0.4107770000000  0.5504430000000  0.4937020000000 1.0
C      1  0.4806810000000  0.4775900000000  0.5463150000000 1.0
C      1  0.4355660000000  0.4881790000000  0.5664890000000 1.0
C      1  0.4630840000000  0.4082450000000  0.4943180000000 1.0
C      1  0.4575750000000  0.4588490000000  0.4725010000000 1.0
C      1  0.5169540000000  0.4049350000000  0.4558070000000 1.0
C      1  0.5371530000000  0.5582270000000  0.4575990000000 1.0
END
