TITL C-884135-4325-372 40.2830256567736 125000 -25348.8840219217 0 0 171 (C1) n - 1
REM
REM in /home/nfs/bkarasulu/CARBON/AIRSS/Generating-Clusters/ReaxFF-fromJPCA2015/Units_Real/with-SteepDescent/Only-C1/SD-CG/Try1-3A/FIRE-CG
REM
REM
REM
REM
REM
REM ./C.cell (11c1c37f851c82e70ff6c80c92926a4b)
REM
REM compiler GCC version 9.2.1 20190827 (Red Hat 9.2.1-1)
REM options -cpp -mtune=generic -march=x86-64 -g -O0 -fpre-include=/usr/include/finclude/math-vector-fortran.h
REM seed -810325715 1123985640 -51883424 1564155690 -301907276 1880013995 660618283 -144113103 411137451 915534300 -889049010 -1791518806 612216911 205523565 1417184092 707323274 -1241289769 393176834 310982200 -1700481274 -107989080 781896563 -1859506549 -1669589994 -1223534806 463329764 1639241168 1557878966 -1293661908 -1984597026 -342848609 1894577397 -116707518
REM
CELL 1.54180   50.00000   50.00000   50.00000   90.00000   90.00000   90.00000
LATT -1
SFAC C  
C      1  0.5405990000000  0.5721460000000  0.4338930000000 1.0
C      1  0.4540640000000  0.5301030000000  0.5499230000000 1.0
C      1  0.4097400000000  0.5262870000000  0.4374350000000 1.0
C      1  0.5527180000000  0.5136420000000  0.4729570000000 1.0
C      1  0.5245690000000  0.4196780000000  0.5465120000000 1.0
C      1  0.4986290000000  0.5926860000000  0.5578910000000 1.0
C      1  0.5951670000000  0.5421390000000  0.4891060000000 1.0
C      1  0.5882740000000  0.5157160000000  0.4328540000000 1.0
C      1  0.5200930000000  0.5284140000000  0.3987100000000 1.0
C      1  0.5610090000000  0.4550380000000  0.4988950000000 1.0
C      1  0.4548560000000  0.4148440000000  0.5233360000000 1.0
C      1  0.4505550000000  0.4989700000000  0.4003590000000 1.0
C      1  0.4351180000000  0.4358930000000  0.5275960000000 1.0
C      1  0.4377010000000  0.4278270000000  0.4408070000000 1.0
C      1  0.5307120000000  0.5330580000000  0.5103960000000 1.0
C      1  0.5218450000000  0.5605810000000  0.5062660000000 1.0
C      1  0.4805860000000  0.4103440000000  0.5356830000000 1.0
C      1  0.4674540000000  0.5098420000000  0.5165220000000 1.0
C      1  0.6038320000000  0.4685560000000  0.5233770000000 1.0
C      1  0.4483770000000  0.4367470000000  0.4024970000000 1.0
C      1  0.4732210000000  0.4931310000000  0.6002400000000 1.0
C      1  0.5938030000000  0.5137960000000  0.4914100000000 1.0
C      1  0.5222040000000  0.4694630000000  0.6117310000000 1.0
C      1  0.5258730000000  0.4759670000000  0.4714190000000 1.0
C      1  0.4002020000000  0.5054460000000  0.4779800000000 1.0
C      1  0.4993650000000  0.5049750000000  0.5695090000000 1.0
C      1  0.4075590000000  0.4989300000000  0.5569640000000 1.0
C      1  0.5788560000000  0.4646810000000  0.5641520000000 1.0
C      1  0.4694170000000  0.4195930000000  0.4490310000000 1.0
C      1  0.5613400000000  0.4819880000000  0.5127610000000 1.0
C      1  0.5891100000000  0.5848280000000  0.5156570000000 1.0
C      1  0.4611450000000  0.4261810000000  0.5728210000000 1.0
C      1  0.4565940000000  0.5358560000000  0.5216920000000 1.0
C      1  0.4476330000000  0.5271950000000  0.4743060000000 1.0
C      1  0.6057250000000  0.4921000000000  0.4786040000000 1.0
C      1  0.5493610000000  0.4536110000000  0.5662820000000 1.0
C      1  0.5596120000000  0.5536130000000  0.4228350000000 1.0
C      1  0.5784200000000  0.4183080000000  0.5064000000000 1.0
C      1  0.5433640000000  0.5820860000000  0.4614600000000 1.0
C      1  0.5859440000000  0.4435190000000  0.4914260000000 1.0
C      1  0.6045750000000  0.4660390000000  0.4945030000000 1.0
C      1  0.5189720000000  0.4354020000000  0.5231580000000 1.0
C      1  0.4733030000000  0.5225270000000  0.6088030000000 1.0
C      1  0.5412540000000  0.5401870000000  0.4707590000000 1.0
C      1  0.4887740000000  0.4220010000000  0.5636490000000 1.0
C      1  0.4778800000000  0.5976370000000  0.5113360000000 1.0
C      1  0.4349640000000  0.4583220000000  0.5049690000000 1.0
C      1  0.5283780000000  0.4492230000000  0.5912360000000 1.0
C      1  0.5328180000000  0.5848210000000  0.5216970000000 1.0
C      1  0.4686430000000  0.5497890000000  0.5979690000000 1.0
C      1  0.4932510000000  0.4694720000000  0.6010160000000 1.0
C      1  0.5213250000000  0.5364040000000  0.6019500000000 1.0
C      1  0.5021660000000  0.5919000000000  0.4487100000000 1.0
C      1  0.3982590000000  0.4842320000000  0.4583310000000 1.0
C      1  0.4818870000000  0.5249470000000  0.5560940000000 1.0
C      1  0.5663400000000  0.5106570000000  0.4139750000000 1.0
C      1  0.4185530000000  0.5381010000000  0.5692670000000 1.0
C      1  0.4694630000000  0.5881050000000  0.5597990000000 1.0
C      1  0.5506390000000  0.4877510000000  0.4565280000000 1.0
C      1  0.5308760000000  0.4031690000000  0.4776220000000 1.0
C      1  0.4355470000000  0.4843590000000  0.4262660000000 1.0
C      1  0.5324210000000  0.4446140000000  0.4131810000000 1.0
C      1  0.5122840000000  0.5645280000000  0.4264350000000 1.0
C      1  0.5260170000000  0.5842530000000  0.5529710000000 1.0
C      1  0.4201070000000  0.5536680000000  0.4358160000000 1.0
C      1  0.5141940000000  0.5121710000000  0.5004090000000 1.0
C      1  0.4860140000000  0.4679390000000  0.5137960000000 1.0
C      1  0.5789410000000  0.4717090000000  0.4541780000000 1.0
C      1  0.5428230000000  0.4877290000000  0.6067220000000 1.0
C      1  0.5833570000000  0.5439150000000  0.4380310000000 1.0
C      1  0.4845960000000  0.5734510000000  0.4606510000000 1.0
C      1  0.3997410000000  0.5262150000000  0.5492710000000 1.0
C      1  0.5347690000000  0.4240180000000  0.4570970000000 1.0
C      1  0.4031330000000  0.4735040000000  0.5440300000000 1.0
C      1  0.4630520000000  0.4632600000000  0.4943490000000 1.0
C      1  0.4747330000000  0.6008060000000  0.4535220000000 1.0
C      1  0.4344890000000  0.5118050000000  0.5681220000000 1.0
C      1  0.4183120000000  0.5652420000000  0.4618170000000 1.0
C      1  0.4879520000000  0.4802510000000  0.4129900000000 1.0
C      1  0.5473460000000  0.5297810000000  0.5332160000000 1.0
C      1  0.5414440000000  0.4354280000000  0.5043780000000 1.0
C      1  0.4697330000000  0.4791590000000  0.3896060000000 1.0
C      1  0.4537500000000  0.4916130000000  0.5807140000000 1.0
C      1  0.4359680000000  0.4497530000000  0.4224260000000 1.0
C      1  0.4006000000000  0.4571070000000  0.4695450000000 1.0
C      1  0.4940270000000  0.5428740000000  0.6113410000000 1.0
C      1  0.5482480000000  0.5327510000000  0.4053880000000 1.0
C      1  0.4943420000000  0.4419850000000  0.5089690000000 1.0
C      1  0.4830570000000  0.4692030000000  0.5426020000000 1.0
C      1  0.4184630000000  0.5250020000000  0.4659560000000 1.0
C      1  0.4320640000000  0.5636210000000  0.5635700000000 1.0
C      1  0.4542380000000  0.4050880000000  0.4941050000000 1.0
C      1  0.5891880000000  0.5197170000000  0.5749430000000 1.0
C      1  0.5320590000000  0.4723260000000  0.5497040000000 1.0
C      1  0.4336940000000  0.4880430000000  0.5104630000000 1.0
C      1  0.5007190000000  0.4465830000000  0.5838960000000 1.0
C      1  0.4607090000000  0.5230870000000  0.4023590000000 1.0
C      1  0.5048160000000  0.4793730000000  0.5575060000000 1.0
C      1  0.5513070000000  0.4269620000000  0.5517850000000 1.0
C      1  0.5871560000000  0.5557080000000  0.4643550000000 1.0
C      1  0.5511460000000  0.4319300000000  0.4332030000000 1.0
C      1  0.5198260000000  0.5970200000000  0.4727780000000 1.0
C      1  0.4193800000000  0.4478580000000  0.5487380000000 1.0
C      1  0.5846920000000  0.4926920000000  0.5589810000000 1.0
C      1  0.4599840000000  0.4527340000000  0.3893190000000 1.0
C      1  0.4540080000000  0.5884540000000  0.4379620000000 1.0
C      1  0.5607320000000  0.5621310000000  0.4752640000000 1.0
C      1  0.4414480000000  0.4480560000000  0.5670790000000 1.0
C      1  0.3936340000000  0.4779670000000  0.5169590000000 1.0
C      1  0.5455900000000  0.5510550000000  0.5929460000000 1.0
C      1  0.4570940000000  0.5682070000000  0.5775240000000 1.0
C      1  0.4143380000000  0.5606290000000  0.5166430000000 1.0
C      1  0.4325690000000  0.5750130000000  0.5364260000000 1.0
C      1  0.5750210000000  0.4265150000000  0.5350280000000 1.0
C      1  0.4987740000000  0.3941370000000  0.5179720000000 1.0
C      1  0.5027210000000  0.3980230000000  0.4878830000000 1.0
C      1  0.5098320000000  0.5444350000000  0.4704370000000 1.0
C      1  0.4707010000000  0.5468080000000  0.4043260000000 1.0
C      1  0.4578480000000  0.4736740000000  0.5562570000000 1.0
C      1  0.4058670000000  0.5047000000000  0.5072440000000 1.0
C      1  0.4038650000000  0.5341400000000  0.5220220000000 1.0
C      1  0.5602290000000  0.5053230000000  0.6007530000000 1.0
C      1  0.4689720000000  0.5120700000000  0.4868950000000 1.0
C      1  0.5025770000000  0.5376120000000  0.5429520000000 1.0
C      1  0.5738170000000  0.5429870000000  0.5341120000000 1.0
C      1  0.5874810000000  0.4917770000000  0.5299530000000 1.0
C      1  0.4943600000000  0.5824490000000  0.5303360000000 1.0
C      1  0.5070380000000  0.5387410000000  0.4419960000000 1.0
C      1  0.4959640000000  0.4431570000000  0.4800840000000 1.0
C      1  0.5006360000000  0.5498940000000  0.4024690000000 1.0
C      1  0.4487430000000  0.5631510000000  0.4227350000000 1.0
C      1  0.5082720000000  0.4295900000000  0.4174520000000 1.0
C      1  0.5926620000000  0.5344560000000  0.5514370000000 1.0
C      1  0.5358140000000  0.4801840000000  0.5242980000000 1.0
C      1  0.5227170000000  0.4471460000000  0.4694480000000 1.0
C      1  0.5679990000000  0.5070870000000  0.4971890000000 1.0
C      1  0.5678800000000  0.5300890000000  0.5939250000000 1.0
C      1  0.4774860000000  0.4035890000000  0.4758840000000 1.0
C      1  0.4565180000000  0.5909980000000  0.5337560000000 1.0
C      1  0.4337460000000  0.4179660000000  0.4807140000000 1.0
C      1  0.4472020000000  0.5464170000000  0.4956460000000 1.0
C      1  0.4029920000000  0.4588910000000  0.4976270000000 1.0
C      1  0.5950730000000  0.5547150000000  0.5163000000000 1.0
C      1  0.4088010000000  0.4971660000000  0.4335940000000 1.0
C      1  0.4891050000000  0.4212990000000  0.4271070000000 1.0
C      1  0.5189840000000  0.3974420000000  0.5362550000000 1.0
C      1  0.4864110000000  0.4718790000000  0.4407900000000 1.0
C      1  0.5336300000000  0.4734040000000  0.4086320000000 1.0
C      1  0.5396400000000  0.5639020000000  0.5676500000000 1.0
C      1  0.4579680000000  0.4858990000000  0.4767420000000 1.0
C      1  0.4507710000000  0.4920150000000  0.5317100000000 1.0
C      1  0.5036190000000  0.4925020000000  0.4568420000000 1.0
C      1  0.4183870000000  0.4321040000000  0.4626450000000 1.0
C      1  0.4627100000000  0.5623830000000  0.4476900000000 1.0
C      1  0.5101770000000  0.5113820000000  0.4353160000000 1.0
C      1  0.5301530000000  0.5356360000000  0.5545290000000 1.0
C      1  0.4787700000000  0.4484120000000  0.4562200000000 1.0
C      1  0.5030740000000  0.5985440000000  0.4962100000000 1.0
C      1  0.4260790000000  0.5662590000000  0.4893780000000 1.0
C      1  0.4451810000000  0.4918410000000  0.4528530000000 1.0
C      1  0.5764430000000  0.4465580000000  0.4383670000000 1.0
C      1  0.5914450000000  0.4492590000000  0.5433610000000 1.0
C      1  0.4985170000000  0.5553780000000  0.5219430000000 1.0
C      1  0.5226640000000  0.5179770000000  0.5799360000000 1.0
C      1  0.4982250000000  0.5178520000000  0.4778750000000 1.0
C      1  0.5516300000000  0.4086140000000  0.4977550000000 1.0
C      1  0.5511950000000  0.4885990000000  0.4247840000000 1.0
C      1  0.5159080000000  0.4832560000000  0.5039140000000 1.0
C      1  0.5600050000000  0.5873970000000  0.5185310000000 1.0
C      1  0.5978980000000  0.4935840000000  0.4502520000000 1.0
C      1  0.5129850000000  0.4979270000000  0.4086180000000 1.0
END
