TITL C-884135-4325-209 8.1009497403481 125000 -20006.1860025678 0 0 133 (C1) n - 1
REM
REM in /home/nfs/bkarasulu/CARBON/AIRSS/Generating-Clusters/ReaxFF-fromJPCA2015/Units_Real/with-SteepDescent/Only-C1/SD-CG/Try1-3A/FIRE-CG
REM
REM
REM
REM
REM
REM ./C.cell (11c1c37f851c82e70ff6c80c92926a4b)
REM
REM compiler GCC version 9.2.1 20190827 (Red Hat 9.2.1-1)
REM options -cpp -mtune=generic -march=x86-64 -g -O0 -fpre-include=/usr/include/finclude/math-vector-fortran.h
REM seed -1207284241 -370795602 1550566950 -1900116467 -1130976850 -1041021455 1077420722 563217610 -1201097209 1314342433 -1135471557 -1251381574 -20318033 119955771 1643292497 -1019017881 -156038130 -354983267 28487957 1183589887 1527689392 -862772119 -1166811580 757478101 -1895488199 -748892255 1009530930 -1436625112 -1454665978 -1517008846 1797954453 -1454748478 -1897032201
REM
CELL 1.54180   50.00000   50.00000   50.00000   90.00000   90.00000   90.00000
LATT -1
SFAC C  
C      1  0.5173600000000  0.4625420000000  0.5022630000000 1.0
C      1  0.4460570000000  0.5287580000000  0.5760710000000 1.0
C      1  0.5772340000000  0.4634400000000  0.4639730000000 1.0
C      1  0.5188000000000  0.4486250000000  0.5631120000000 1.0
C      1  0.5149000000000  0.4010860000000  0.5134750000000 1.0
C      1  0.5525770000000  0.4279230000000  0.4902360000000 1.0
C      1  0.5222590000000  0.4698850000000  0.6004070000000 1.0
C      1  0.5291260000000  0.5152610000000  0.6046960000000 1.0
C      1  0.4741150000000  0.4923430000000  0.5875990000000 1.0
C      1  0.4067270000000  0.5260910000000  0.5169940000000 1.0
C      1  0.5464530000000  0.5659340000000  0.4354920000000 1.0
C      1  0.5575820000000  0.5098560000000  0.4984380000000 1.0
C      1  0.5514270000000  0.5210110000000  0.5507210000000 1.0
C      1  0.4930360000000  0.5298060000000  0.4546830000000 1.0
C      1  0.4555430000000  0.4184390000000  0.5128690000000 1.0
C      1  0.5782100000000  0.4794540000000  0.5579920000000 1.0
C      1  0.4042250000000  0.4793200000000  0.5386020000000 1.0
C      1  0.5100720000000  0.5296380000000  0.4982630000000 1.0
C      1  0.5417700000000  0.5363710000000  0.4651510000000 1.0
C      1  0.5445270000000  0.5367700000000  0.4347650000000 1.0
C      1  0.4702320000000  0.5316750000000  0.5278770000000 1.0
C      1  0.4452500000000  0.4563490000000  0.5585810000000 1.0
C      1  0.4628810000000  0.5042890000000  0.5216350000000 1.0
C      1  0.5030450000000  0.4872100000000  0.4390940000000 1.0
C      1  0.5433840000000  0.5234090000000  0.5226860000000 1.0
C      1  0.5426360000000  0.4656280000000  0.5198790000000 1.0
C      1  0.4953570000000  0.4455100000000  0.5053700000000 1.0
C      1  0.5513200000000  0.4918710000000  0.5648300000000 1.0
C      1  0.4947000000000  0.5632010000000  0.4318190000000 1.0
C      1  0.4272610000000  0.5650230000000  0.4844070000000 1.0
C      1  0.4434300000000  0.5541270000000  0.5611880000000 1.0
C      1  0.5366300000000  0.4513770000000  0.4226090000000 1.0
C      1  0.4699050000000  0.4876450000000  0.4127990000000 1.0
C      1  0.6054680000000  0.5158050000000  0.5287720000000 1.0
C      1  0.4463960000000  0.5433620000000  0.4916690000000 1.0
C      1  0.4385490000000  0.4234150000000  0.4757760000000 1.0
C      1  0.4892830000000  0.5720830000000  0.5525940000000 1.0
C      1  0.4675120000000  0.4383680000000  0.5567390000000 1.0
C      1  0.5169920000000  0.5338740000000  0.6110120000000 1.0
C      1  0.4494110000000  0.4431680000000  0.4978470000000 1.0
C      1  0.4618030000000  0.5529690000000  0.5121810000000 1.0
C      1  0.4828680000000  0.4067010000000  0.4679760000000 1.0
C      1  0.4447240000000  0.5525610000000  0.4383180000000 1.0
C      1  0.4730100000000  0.5208880000000  0.5878900000000 1.0
C      1  0.5087990000000  0.5586230000000  0.4935100000000 1.0
C      1  0.4231260000000  0.5523730000000  0.4573540000000 1.0
C      1  0.5554740000000  0.5490750000000  0.5556500000000 1.0
C      1  0.5247280000000  0.5225910000000  0.4181000000000 1.0
C      1  0.5804940000000  0.5040430000000  0.4815780000000 1.0
C      1  0.4460330000000  0.4960020000000  0.5003280000000 1.0
C      1  0.5036970000000  0.4255270000000  0.4282550000000 1.0
C      1  0.4479000000000  0.5170830000000  0.4815120000000 1.0
C      1  0.5454600000000  0.4316900000000  0.4420540000000 1.0
C      1  0.5934130000000  0.4623990000000  0.5137710000000 1.0
C      1  0.4314700000000  0.4807130000000  0.4470330000000 1.0
C      1  0.4128490000000  0.5068510000000  0.5415220000000 1.0
C      1  0.5191910000000  0.5741460000000  0.4441560000000 1.0
C      1  0.5406460000000  0.4921030000000  0.5936280000000 1.0
C      1  0.5745670000000  0.4310810000000  0.5331920000000 1.0
C      1  0.4794690000000  0.4202480000000  0.4425560000000 1.0
C      1  0.4776180000000  0.4877280000000  0.5401990000000 1.0
C      1  0.4951600000000  0.4223210000000  0.5216100000000 1.0
C      1  0.5338670000000  0.4445200000000  0.5892290000000 1.0
C      1  0.4488680000000  0.5800930000000  0.5288220000000 1.0
C      1  0.5182180000000  0.5213970000000  0.4717830000000 1.0
C      1  0.5897290000000  0.4757000000000  0.4880470000000 1.0
C      1  0.5710280000000  0.5621290000000  0.5314030000000 1.0
C      1  0.5332720000000  0.5675770000000  0.5624250000000 1.0
C      1  0.4233560000000  0.4631100000000  0.4668380000000 1.0
C      1  0.5706960000000  0.5614610000000  0.4514410000000 1.0
C      1  0.4559090000000  0.4843870000000  0.5634060000000 1.0
C      1  0.4780420000000  0.4887670000000  0.4529940000000 1.0
C      1  0.4596020000000  0.4059060000000  0.4855900000000 1.0
C      1  0.4904500000000  0.4484730000000  0.5720100000000 1.0
C      1  0.4858840000000  0.6009140000000  0.5084940000000 1.0
C      1  0.5795700000000  0.5094420000000  0.4527040000000 1.0
C      1  0.5770610000000  0.5561050000000  0.5028780000000 1.0
C      1  0.5737740000000  0.5350130000000  0.4389220000000 1.0
C      1  0.4453060000000  0.5898950000000  0.4829440000000 1.0
C      1  0.4672830000000  0.5898290000000  0.4646710000000 1.0
C      1  0.5077910000000  0.4499970000000  0.4101990000000 1.0
C      1  0.4459210000000  0.5257400000000  0.4259670000000 1.0
C      1  0.5105970000000  0.4736260000000  0.4803830000000 1.0
C      1  0.4920690000000  0.5966210000000  0.4801340000000 1.0
C      1  0.4154510000000  0.5535950000000  0.5146630000000 1.0
C      1  0.5151430000000  0.5161090000000  0.5236180000000 1.0
C      1  0.4130350000000  0.4628330000000  0.5185180000000 1.0
C      1  0.5369440000000  0.4016520000000  0.5321630000000 1.0
C      1  0.4024580000000  0.5181230000000  0.4892280000000 1.0
C      1  0.4661640000000  0.4643630000000  0.4616220000000 1.0
C      1  0.5586140000000  0.4424290000000  0.5131130000000 1.0
C      1  0.4965250000000  0.5311790000000  0.4248820000000 1.0
C      1  0.4717740000000  0.4201180000000  0.5352330000000 1.0
C      1  0.4710620000000  0.5137590000000  0.4644810000000 1.0
C      1  0.4618260000000  0.4448690000000  0.4381820000000 1.0
C      1  0.4705200000000  0.5490250000000  0.5506280000000 1.0
C      1  0.5124110000000  0.4041310000000  0.4719770000000 1.0
C      1  0.4276190000000  0.5077050000000  0.4406210000000 1.0
C      1  0.4965730000000  0.5396080000000  0.5917500000000 1.0
C      1  0.5562040000000  0.4109460000000  0.5411620000000 1.0
C      1  0.4698310000000  0.5151560000000  0.4141310000000 1.0
C      1  0.5056870000000  0.4926550000000  0.5394330000000 1.0
C      1  0.4746140000000  0.4607860000000  0.4143750000000 1.0
C      1  0.5508500000000  0.5794860000000  0.5263120000000 1.0
C      1  0.4261830000000  0.5658490000000  0.5389920000000 1.0
C      1  0.5142660000000  0.5794700000000  0.4726710000000 1.0
C      1  0.5715760000000  0.4828850000000  0.4430280000000 1.0
C      1  0.5284410000000  0.5880730000000  0.5403700000000 1.0
C      1  0.4310940000000  0.4703520000000  0.4977170000000 1.0
C      1  0.5620130000000  0.4881570000000  0.5165060000000 1.0
C      1  0.5604580000000  0.5536930000000  0.4778400000000 1.0
C      1  0.4200110000000  0.4556440000000  0.5447830000000 1.0
C      1  0.5614490000000  0.4391920000000  0.4654860000000 1.0
C      1  0.4997270000000  0.5906100000000  0.5321480000000 1.0
C      1  0.5509990000000  0.4766410000000  0.4227130000000 1.0
C      1  0.5324380000000  0.4071550000000  0.4919260000000 1.0
C      1  0.5887060000000  0.4565780000000  0.5420670000000 1.0
C      1  0.5191770000000  0.4916180000000  0.4622140000000 1.0
C      1  0.5279210000000  0.4739750000000  0.5485990000000 1.0
C      1  0.5097870000000  0.4800670000000  0.4122590000000 1.0
C      1  0.4744480000000  0.4548650000000  0.4880060000000 1.0
C      1  0.5230770000000  0.4137420000000  0.4462960000000 1.0
C      1  0.4331530000000  0.4400460000000  0.4527400000000 1.0
C      1  0.4684420000000  0.5704280000000  0.4421410000000 1.0
C      1  0.4558480000000  0.5991910000000  0.5085500000000 1.0
C      1  0.4334390000000  0.5071790000000  0.5611730000000 1.0
C      1  0.4929820000000  0.4705370000000  0.5910320000000 1.0
C      1  0.5068740000000  0.5604110000000  0.5723560000000 1.0
C      1  0.5826920000000  0.4967620000000  0.5352580000000 1.0
C      1  0.5334940000000  0.4967880000000  0.4096470000000 1.0
C      1  0.4132590000000  0.5251360000000  0.4620000000000 1.0
C      1  0.4822090000000  0.5595370000000  0.4981080000000 1.0
C      1  0.6000930000000  0.5385340000000  0.5106440000000 1.0
END
