TITL C-883732-77-133 1.7705751397445 125000 -26589.4295122882 0 0 175 (C1) n - 1
REM
REM in /home/nfs/bkarasulu/CARBON/AIRSS/Generating-Clusters/ReaxFF-fromJPCA2015/Units_Real/with-SteepDescent/Only-C1/SD-CG/Try1-3A/FIRE-CG
REM
REM
REM
REM
REM
REM ./C.cell (11c1c37f851c82e70ff6c80c92926a4b)
REM
REM compiler GCC version 9.2.1 20190827 (Red Hat 9.2.1-1)
REM options -cpp -mtune=generic -march=x86-64 -g -O0 -fpre-include=/usr/include/finclude/math-vector-fortran.h
REM seed -1243776559 -1859627152 620447104 -1601458214 -1051227303 -1637376796 -1582410451 538774486 -1015357799 -1832957887 -799485695 -1126310378 -741866190 217169063 -193871732 1388354533 -28605183 -934930264 -760203011 1607399047 -1378337715 -1405658237 -1339554978 1710395005 1397296773 1199569862 682450063 -750529162 -2024110615 -765150746 2077132875 1910788887 -881147810
REM
CELL 1.54180   50.00000   50.00000   50.00000   90.00000   90.00000   90.00000
LATT -1
SFAC C  
C      1  0.5649820000000  0.4418730000000  0.4407450000000 1.0
C      1  0.5540850000000  0.5554720000000  0.5099780000000 1.0
C      1  0.5870290000000  0.5044580000000  0.5735840000000 1.0
C      1  0.6050790000000  0.4919510000000  0.5536250000000 1.0
C      1  0.5156620000000  0.4620690000000  0.5130590000000 1.0
C      1  0.5233000000000  0.6157280000000  0.5188120000000 1.0
C      1  0.4630260000000  0.4629550000000  0.5109280000000 1.0
C      1  0.4858860000000  0.3744820000000  0.5055630000000 1.0
C      1  0.4278420000000  0.5828400000000  0.5010750000000 1.0
C      1  0.4375340000000  0.4988950000000  0.4578390000000 1.0
C      1  0.4254560000000  0.4212690000000  0.5319220000000 1.0
C      1  0.4901650000000  0.5603520000000  0.4746980000000 1.0
C      1  0.4934130000000  0.5735720000000  0.5359530000000 1.0
C      1  0.4783880000000  0.5170050000000  0.4831660000000 1.0
C      1  0.5035800000000  0.5039270000000  0.5182430000000 1.0
C      1  0.4379500000000  0.4444700000000  0.4161260000000 1.0
C      1  0.4597380000000  0.3947350000000  0.5018310000000 1.0
C      1  0.5385130000000  0.4353380000000  0.4418330000000 1.0
C      1  0.5148270000000  0.5311480000000  0.5146260000000 1.0
C      1  0.4974030000000  0.4381030000000  0.5931820000000 1.0
C      1  0.4944910000000  0.6079000000000  0.4897730000000 1.0
C      1  0.5666900000000  0.4648840000000  0.4232050000000 1.0
C      1  0.5067220000000  0.5654160000000  0.4274250000000 1.0
C      1  0.4023130000000  0.4764800000000  0.5506730000000 1.0
C      1  0.5453620000000  0.4706740000000  0.4786920000000 1.0
C      1  0.5304750000000  0.4242030000000  0.4840790000000 1.0
C      1  0.5892840000000  0.5526800000000  0.4844090000000 1.0
C      1  0.4656200000000  0.4143830000000  0.4535920000000 1.0
C      1  0.5392090000000  0.3859620000000  0.5068900000000 1.0
C      1  0.5627040000000  0.4018190000000  0.5082820000000 1.0
C      1  0.5740850000000  0.6065910000000  0.5256270000000 1.0
C      1  0.4893310000000  0.5219160000000  0.4574750000000 1.0
C      1  0.4835910000000  0.5275000000000  0.4042960000000 1.0
C      1  0.4795050000000  0.5667300000000  0.5893410000000 1.0
C      1  0.5185680000000  0.4226310000000  0.5383130000000 1.0
C      1  0.5272840000000  0.4484560000000  0.4655500000000 1.0
C      1  0.4699930000000  0.5775400000000  0.4132470000000 1.0
C      1  0.4921490000000  0.5441860000000  0.5370060000000 1.0
C      1  0.5282590000000  0.5156950000000  0.5641170000000 1.0
C      1  0.4933890000000  0.4005460000000  0.4467690000000 1.0
C      1  0.4186490000000  0.5253740000000  0.5504110000000 1.0
C      1  0.4494070000000  0.5448010000000  0.4498730000000 1.0
C      1  0.4351880000000  0.4984300000000  0.5950450000000 1.0
C      1  0.5905230000000  0.5832250000000  0.5250670000000 1.0
C      1  0.3949260000000  0.5005930000000  0.4765300000000 1.0
C      1  0.5761340000000  0.4323320000000  0.4663420000000 1.0
C      1  0.4126410000000  0.4320710000000  0.5066340000000 1.0
C      1  0.6040190000000  0.4736260000000  0.4801300000000 1.0
C      1  0.5741210000000  0.5548820000000  0.5662090000000 1.0
C      1  0.5718280000000  0.5548360000000  0.4599430000000 1.0
C      1  0.4549240000000  0.5712620000000  0.5741780000000 1.0
C      1  0.5434130000000  0.4766750000000  0.4086450000000 1.0
C      1  0.4832130000000  0.4269720000000  0.4759250000000 1.0
C      1  0.4523130000000  0.5870760000000  0.4847720000000 1.0
C      1  0.5354110000000  0.5057170000000  0.5928420000000 1.0
C      1  0.4948770000000  0.5791480000000  0.4526010000000 1.0
C      1  0.5103500000000  0.3823920000000  0.4955200000000 1.0
C      1  0.5897190000000  0.4916900000000  0.4590850000000 1.0
C      1  0.3998590000000  0.5164130000000  0.5013510000000 1.0
C      1  0.5802940000000  0.5626450000000  0.5074520000000 1.0
C      1  0.4508870000000  0.5820330000000  0.5461670000000 1.0
C      1  0.5092220000000  0.4909270000000  0.5985800000000 1.0
C      1  0.5637940000000  0.4648660000000  0.5005950000000 1.0
C      1  0.4451880000000  0.5465170000000  0.5816230000000 1.0
C      1  0.5111990000000  0.5514490000000  0.4918670000000 1.0
C      1  0.5595270000000  0.4137610000000  0.4817630000000 1.0
C      1  0.5792310000000  0.5756220000000  0.5502490000000 1.0
C      1  0.5699360000000  0.4185150000000  0.5349150000000 1.0
C      1  0.3935650000000  0.4721800000000  0.4795240000000 1.0
C      1  0.5658080000000  0.4914290000000  0.5885310000000 1.0
C      1  0.4215390000000  0.5375840000000  0.4467480000000 1.0
C      1  0.5032510000000  0.5298820000000  0.5604330000000 1.0
C      1  0.6013370000000  0.5195360000000  0.4587300000000 1.0
C      1  0.4433220000000  0.4708690000000  0.5948400000000 1.0
C      1  0.5302130000000  0.5528820000000  0.5986690000000 1.0
C      1  0.4304220000000  0.5239560000000  0.5799290000000 1.0
C      1  0.4094770000000  0.5063410000000  0.4506450000000 1.0
C      1  0.4447630000000  0.5125540000000  0.5323250000000 1.0
C      1  0.4690460000000  0.5265180000000  0.4360400000000 1.0
C      1  0.4269600000000  0.4731580000000  0.4128660000000 1.0
C      1  0.5444400000000  0.5386400000000  0.4531660000000 1.0
C      1  0.4709950000000  0.5960880000000  0.4576510000000 1.0
C      1  0.6109140000000  0.5119680000000  0.5097350000000 1.0
C      1  0.4735510000000  0.5912580000000  0.5326470000000 1.0
C      1  0.5230750000000  0.4573910000000  0.4022680000000 1.0
C      1  0.5370470000000  0.5103650000000  0.4565150000000 1.0
C      1  0.4470120000000  0.4044540000000  0.4750470000000 1.0
C      1  0.5696830000000  0.4822000000000  0.5223500000000 1.0
C      1  0.5771510000000  0.5319590000000  0.4146060000000 1.0
C      1  0.4256840000000  0.4231460000000  0.4816420000000 1.0
C      1  0.3965590000000  0.5054440000000  0.5486960000000 1.0
C      1  0.3846870000000  0.5006770000000  0.5226330000000 1.0
C      1  0.4734350000000  0.4200930000000  0.5013930000000 1.0
C      1  0.5597320000000  0.5102810000000  0.5323060000000 1.0
C      1  0.4939680000000  0.4661680000000  0.5581960000000 1.0
C      1  0.4605750000000  0.4912020000000  0.6039300000000 1.0
C      1  0.4895650000000  0.4902020000000  0.3887360000000 1.0
C      1  0.5872510000000  0.5064080000000  0.4165900000000 1.0
C      1  0.4957710000000  0.4546340000000  0.4696460000000 1.0
C      1  0.4624740000000  0.5922180000000  0.4317220000000 1.0
C      1  0.4718920000000  0.6004020000000  0.5036430000000 1.0
C      1  0.4700950000000  0.4276370000000  0.5893690000000 1.0
C      1  0.4119090000000  0.5509830000000  0.5341180000000 1.0
C      1  0.4835910000000  0.5029340000000  0.5920790000000 1.0
C      1  0.5263320000000  0.4308600000000  0.4162070000000 1.0
C      1  0.5280010000000  0.5276270000000  0.6034780000000 1.0
C      1  0.5440050000000  0.5309300000000  0.5184730000000 1.0
C      1  0.4617820000000  0.4374520000000  0.4305710000000 1.0
C      1  0.4086930000000  0.4797280000000  0.4340120000000 1.0
C      1  0.5469860000000  0.5306720000000  0.4113210000000 1.0
C      1  0.4605470000000  0.5560240000000  0.4763910000000 1.0
C      1  0.5317910000000  0.5493730000000  0.4292680000000 1.0
C      1  0.5957560000000  0.4715950000000  0.5325050000000 1.0
C      1  0.3990100000000  0.5462260000000  0.5095510000000 1.0
C      1  0.5853630000000  0.4415060000000  0.5427250000000 1.0
C      1  0.5503920000000  0.6152850000000  0.5203030000000 1.0
C      1  0.4883860000000  0.5581080000000  0.4059700000000 1.0
C      1  0.5072880000000  0.4043290000000  0.4733060000000 1.0
C      1  0.4920780000000  0.4689730000000  0.4951880000000 1.0
C      1  0.5393020000000  0.4954760000000  0.5460550000000 1.0
C      1  0.5217910000000  0.6134080000000  0.4897330000000 1.0
C      1  0.5135270000000  0.5933470000000  0.5405730000000 1.0
C      1  0.5345580000000  0.5050360000000  0.4046990000000 1.0
C      1  0.5869330000000  0.4509590000000  0.4862360000000 1.0
C      1  0.4054560000000  0.5674800000000  0.4896340000000 1.0
C      1  0.4592020000000  0.4961540000000  0.4389910000000 1.0
C      1  0.4415810000000  0.4936350000000  0.4851960000000 1.0
C      1  0.5078240000000  0.4133970000000  0.4273290000000 1.0
C      1  0.6051050000000  0.5293510000000  0.4856440000000 1.0
C      1  0.5405770000000  0.5905250000000  0.4754390000000 1.0
C      1  0.4593600000000  0.5326730000000  0.5001300000000 1.0
C      1  0.5575060000000  0.4927220000000  0.4655660000000 1.0
C      1  0.4351520000000  0.5141980000000  0.5047830000000 1.0
C      1  0.5811380000000  0.5264540000000  0.5537130000000 1.0
C      1  0.4826820000000  0.4580370000000  0.4255320000000 1.0
C      1  0.5248770000000  0.4347990000000  0.5128040000000 1.0
C      1  0.4660800000000  0.5057850000000  0.3926890000000 1.0
C      1  0.4476650000000  0.4939020000000  0.4116980000000 1.0
C      1  0.3968440000000  0.4561330000000  0.5041960000000 1.0
C      1  0.5218420000000  0.4853930000000  0.5267360000000 1.0
C      1  0.5347050000000  0.5661030000000  0.4917890000000 1.0
C      1  0.4961170000000  0.4969870000000  0.4922300000000 1.0
C      1  0.3884240000000  0.4725250000000  0.5255630000000 1.0
C      1  0.4535050000000  0.4832740000000  0.5353340000000 1.0
C      1  0.5616430000000  0.5867180000000  0.4582490000000 1.0
C      1  0.5448180000000  0.4183600000000  0.5529240000000 1.0
C      1  0.4905690000000  0.4382740000000  0.5452460000000 1.0
C      1  0.5478750000000  0.5658300000000  0.5778880000000 1.0
C      1  0.4071030000000  0.4610390000000  0.4559160000000 1.0
C      1  0.5323290000000  0.5814680000000  0.5593240000000 1.0
C      1  0.4911170000000  0.4207610000000  0.5705840000000 1.0
C      1  0.5673180000000  0.4663800000000  0.5798010000000 1.0
C      1  0.4951440000000  0.4645160000000  0.3997600000000 1.0
C      1  0.5035890000000  0.5593580000000  0.5974630000000 1.0
C      1  0.5897620000000  0.5394180000000  0.4408300000000 1.0
C      1  0.5721920000000  0.4445440000000  0.5666340000000 1.0
C      1  0.5071080000000  0.5101960000000  0.3966540000000 1.0
C      1  0.5897230000000  0.4818680000000  0.4285530000000 1.0
C      1  0.4398580000000  0.3976650000000  0.5267930000000 1.0
C      1  0.4825480000000  0.4900380000000  0.5453890000000 1.0
C      1  0.4444410000000  0.4658390000000  0.4890710000000 1.0
C      1  0.4463780000000  0.4441800000000  0.5815980000000 1.0
C      1  0.4670770000000  0.5313070000000  0.5290450000000 1.0
C      1  0.5055630000000  0.4652960000000  0.5841410000000 1.0
C      1  0.4708400000000  0.4380770000000  0.5221870000000 1.0
C      1  0.6068180000000  0.5168130000000  0.5386650000000 1.0
C      1  0.4308500000000  0.4689160000000  0.5505210000000 1.0
C      1  0.4889680000000  0.4763640000000  0.4479560000000 1.0
C      1  0.4307740000000  0.4495180000000  0.4697830000000 1.0
C      1  0.4332050000000  0.4407890000000  0.5559650000000 1.0
C      1  0.4800310000000  0.5133470000000  0.5646530000000 1.0
C      1  0.4290000000000  0.5747320000000  0.5292930000000 1.0
C      1  0.6106370000000  0.4834090000000  0.5060200000000 1.0
C      1  0.5079120000000  0.4998840000000  0.4541280000000 1.0
C      1  0.4122120000000  0.5543300000000  0.4655800000000 1.0
END
