TITL C-884139-6216-109 1.79967898341995 125000 -19159.3475383032 0 0 127 (C1) n - 1
REM
REM in /home/nfs/bkarasulu/CARBON/AIRSS/Generating-Clusters/ReaxFF-fromJPCA2015/Units_Real/with-SteepDescent/Only-C1/SD-CG/Try1-3A/FIRE-CG
REM
REM
REM
REM
REM
REM ./C.cell (11c1c37f851c82e70ff6c80c92926a4b)
REM
REM compiler GCC version 9.2.1 20190827 (Red Hat 9.2.1-1)
REM options -cpp -mtune=generic -march=x86-64 -g -O0 -fpre-include=/usr/include/finclude/math-vector-fortran.h
REM seed -887894395 182670108 -1997477014 -1130484980 502758659 1491907029 -659673721 1604580877 67367210 -1138244429 797925874 -711383771 1923710759 -444211291 1584498933 -321418171 -1293358468 1595189718 -848253326 783030546 1257244517 81987958 2141494970 916249623 -1573970486 1542592333 102596444 -1104340539 -2008586987 -154166108 494017876 -1944355457 -166454240
REM
CELL 1.54180   50.00000   50.00000   50.00000   90.00000   90.00000   90.00000
LATT -1
SFAC C  
C      1  0.5314840000000  0.5108610000000  0.5917020000000 1.0
C      1  0.4717720000000  0.5133460000000  0.4219250000000 1.0
C      1  0.5223070000000  0.4307530000000  0.5599470000000 1.0
C      1  0.5235450000000  0.4188280000000  0.5328800000000 1.0
C      1  0.4632920000000  0.5324160000000  0.4937770000000 1.0
C      1  0.5761210000000  0.4617850000000  0.4447210000000 1.0
C      1  0.5012790000000  0.4051040000000  0.5203110000000 1.0
C      1  0.4889350000000  0.4996330000000  0.5396720000000 1.0
C      1  0.4311840000000  0.5412240000000  0.4412540000000 1.0
C      1  0.4698540000000  0.5336980000000  0.4632540000000 1.0
C      1  0.4682610000000  0.5082540000000  0.5858280000000 1.0
C      1  0.4266420000000  0.5161470000000  0.4275680000000 1.0
C      1  0.4651700000000  0.5807670000000  0.4479320000000 1.0
C      1  0.5516630000000  0.4638910000000  0.4290720000000 1.0
C      1  0.4626400000000  0.4909390000000  0.4055900000000 1.0
C      1  0.5744610000000  0.4282790000000  0.5103590000000 1.0
C      1  0.4321910000000  0.5155370000000  0.5285070000000 1.0
C      1  0.5184340000000  0.5356850000000  0.5412010000000 1.0
C      1  0.4928420000000  0.5900110000000  0.4413760000000 1.0
C      1  0.5230850000000  0.5987850000000  0.5118240000000 1.0
C      1  0.3913830000000  0.5148550000000  0.5024220000000 1.0
C      1  0.5051850000000  0.4115440000000  0.4703950000000 1.0
C      1  0.5410730000000  0.4848510000000  0.4111460000000 1.0
C      1  0.5272550000000  0.4829980000000  0.6005770000000 1.0
C      1  0.5032350000000  0.4662810000000  0.5932740000000 1.0
C      1  0.4562770000000  0.5831290000000  0.4754660000000 1.0
C      1  0.5218980000000  0.5506020000000  0.5848310000000 1.0
C      1  0.5402410000000  0.4745680000000  0.5542590000000 1.0
C      1  0.4557490000000  0.5540740000000  0.5531870000000 1.0
C      1  0.5034830000000  0.5986210000000  0.4896210000000 1.0
C      1  0.5457830000000  0.5371890000000  0.5883250000000 1.0
C      1  0.5443590000000  0.4281930000000  0.5122030000000 1.0
C      1  0.4312780000000  0.4654520000000  0.4350110000000 1.0
C      1  0.4475620000000  0.4722590000000  0.5259330000000 1.0
C      1  0.4990380000000  0.5291570000000  0.4626310000000 1.0
C      1  0.5505470000000  0.5881280000000  0.5074740000000 1.0
C      1  0.4972610000000  0.5072910000000  0.5126370000000 1.0
C      1  0.5321950000000  0.4634510000000  0.4519770000000 1.0
C      1  0.4812980000000  0.4532460000000  0.4308590000000 1.0
C      1  0.4215200000000  0.4754470000000  0.5056040000000 1.0
C      1  0.4068440000000  0.4991640000000  0.5200200000000 1.0
C      1  0.4788510000000  0.5838950000000  0.4936170000000 1.0
C      1  0.5069620000000  0.5705940000000  0.4271520000000 1.0
C      1  0.5546250000000  0.5109080000000  0.4227470000000 1.0
C      1  0.5561290000000  0.5728030000000  0.4829510000000 1.0
C      1  0.4325700000000  0.4559520000000  0.5486330000000 1.0
C      1  0.4730520000000  0.5708780000000  0.5375080000000 1.0
C      1  0.5284370000000  0.4940380000000  0.4608180000000 1.0
C      1  0.4998620000000  0.4417510000000  0.5760460000000 1.0
C      1  0.5738200000000  0.5491480000000  0.4816960000000 1.0
C      1  0.4175120000000  0.5196060000000  0.4827400000000 1.0
C      1  0.4972070000000  0.5601850000000  0.5773310000000 1.0
C      1  0.4858900000000  0.4722240000000  0.4082450000000 1.0
C      1  0.4178920000000  0.4459450000000  0.5058840000000 1.0
C      1  0.4619180000000  0.5094340000000  0.4489510000000 1.0
C      1  0.5836940000000  0.5402060000000  0.5206680000000 1.0
C      1  0.5147680000000  0.4663470000000  0.5090970000000 1.0
C      1  0.5138160000000  0.5926830000000  0.4625550000000 1.0
C      1  0.5803100000000  0.4312270000000  0.5324340000000 1.0
C      1  0.4968290000000  0.4387970000000  0.4722830000000 1.0
C      1  0.4717000000000  0.4117100000000  0.5151090000000 1.0
C      1  0.5428320000000  0.4886620000000  0.5793600000000 1.0
C      1  0.5093830000000  0.5461600000000  0.4141250000000 1.0
C      1  0.4232940000000  0.5452910000000  0.4689820000000 1.0
C      1  0.5834080000000  0.4865840000000  0.5184100000000 1.0
C      1  0.5511790000000  0.5776700000000  0.5351730000000 1.0
C      1  0.4796160000000  0.5412750000000  0.4166880000000 1.0
C      1  0.4472870000000  0.4309720000000  0.4691170000000 1.0
C      1  0.5045390000000  0.4464900000000  0.4459490000000 1.0
C      1  0.5875410000000  0.4757640000000  0.4906020000000 1.0
C      1  0.5023770000000  0.5012100000000  0.4653550000000 1.0
C      1  0.5441840000000  0.4463250000000  0.4746400000000 1.0
C      1  0.5675790000000  0.5155800000000  0.5522560000000 1.0
C      1  0.5766960000000  0.5079570000000  0.4457430000000 1.0
C      1  0.4345830000000  0.5661490000000  0.4877210000000 1.0
C      1  0.5220380000000  0.5865660000000  0.5387550000000 1.0
C      1  0.4503240000000  0.4602770000000  0.5705810000000 1.0
C      1  0.5682150000000  0.5307450000000  0.5005830000000 1.0
C      1  0.5419110000000  0.5182950000000  0.5371760000000 1.0
C      1  0.4359300000000  0.4894600000000  0.4178970000000 1.0
C      1  0.5458830000000  0.4472340000000  0.5653670000000 1.0
C      1  0.4515690000000  0.4896000000000  0.5704700000000 1.0
C      1  0.4218490000000  0.4414410000000  0.4772530000000 1.0
C      1  0.4556520000000  0.4528400000000  0.4469450000000 1.0
C      1  0.5087100000000  0.5477280000000  0.5162610000000 1.0
C      1  0.5331460000000  0.5706500000000  0.4653510000000 1.0
C      1  0.5333550000000  0.5273220000000  0.4181850000000 1.0
C      1  0.4753360000000  0.5372030000000  0.5721760000000 1.0
C      1  0.5669050000000  0.5406380000000  0.5670780000000 1.0
C      1  0.4816860000000  0.3938630000000  0.4769500000000 1.0
C      1  0.5864620000000  0.4469360000000  0.4902050000000 1.0
C      1  0.4875960000000  0.4536650000000  0.5386470000000 1.0
C      1  0.4603570000000  0.4114300000000  0.4862380000000 1.0
C      1  0.5679400000000  0.5327580000000  0.4566950000000 1.0
C      1  0.4380050000000  0.5233450000000  0.5018770000000 1.0
C      1  0.4556170000000  0.4844430000000  0.4626140000000 1.0
C      1  0.4272720000000  0.4870430000000  0.4759180000000 1.0
C      1  0.5687590000000  0.4707710000000  0.5387460000000 1.0
C      1  0.4809490000000  0.5581280000000  0.5101710000000 1.0
C      1  0.5055180000000  0.3930560000000  0.4942140000000 1.0
C      1  0.4598030000000  0.5546980000000  0.4353700000000 1.0
C      1  0.4977580000000  0.5769800000000  0.5523690000000 1.0
C      1  0.5133750000000  0.4798890000000  0.4080950000000 1.0
C      1  0.4297010000000  0.4334560000000  0.5301780000000 1.0
C      1  0.4965500000000  0.5229930000000  0.5564780000000 1.0
C      1  0.4874150000000  0.4893930000000  0.5929550000000 1.0
C      1  0.5737320000000  0.4469220000000  0.5549040000000 1.0
C      1  0.5233400000000  0.5429670000000  0.4629280000000 1.0
C      1  0.4731520000000  0.4414090000000  0.5619330000000 1.0
C      1  0.5408730000000  0.5204480000000  0.4603330000000 1.0
C      1  0.4555350000000  0.4962180000000  0.5412320000000 1.0
C      1  0.4162220000000  0.4653160000000  0.4595960000000 1.0
C      1  0.5717890000000  0.4419390000000  0.4659670000000 1.0
C      1  0.4374670000000  0.5621190000000  0.5161900000000 1.0
C      1  0.5364370000000  0.4521650000000  0.5005050000000 1.0
C      1  0.5698630000000  0.5565140000000  0.5428040000000 1.0
C      1  0.5445980000000  0.5170410000000  0.5087250000000 1.0
C      1  0.5104070000000  0.4731070000000  0.5370490000000 1.0
C      1  0.4706930000000  0.4564900000000  0.5161570000000 1.0
C      1  0.4566250000000  0.4233170000000  0.5364160000000 1.0
C      1  0.4732280000000  0.5058250000000  0.4990650000000 1.0
C      1  0.5836940000000  0.4844510000000  0.4619690000000 1.0
C      1  0.4900000000000  0.4610090000000  0.4946280000000 1.0
C      1  0.4798760000000  0.4860920000000  0.4795790000000 1.0
C      1  0.5877430000000  0.5128860000000  0.5310020000000 1.0
C      1  0.4326690000000  0.5458080000000  0.5382940000000 1.0
C      1  0.5174980000000  0.5242440000000  0.5017900000000 1.0
END
