TITL C-883729-9652-242 -0.285848503207979 125000 -17053.8311518006 0 0 114 (C1) n - 1
REM
REM in /home/nfs/bkarasulu/CARBON/AIRSS/Generating-Clusters/ReaxFF-fromJPCA2015/Units_Real/with-SteepDescent/Only-C1/SD-CG/Try1-3A/FIRE-CG
REM
REM
REM
REM
REM
REM ./C.cell (11c1c37f851c82e70ff6c80c92926a4b)
REM
REM compiler GCC version 9.2.1 20190827 (Red Hat 9.2.1-1)
REM options -cpp -mtune=generic -march=x86-64 -g -O0 -fpre-include=/usr/include/finclude/math-vector-fortran.h
REM seed -1280387876 1272236516 -1055022439 191963148 -1881936957 -745683027 1217087650 836910287 -2071477964 572074587 -1024408316 1388837862 -2013381178 -1451419435 1133595175 1838401398 1941723515 52617929 1750539970 -1207123149 -482838943 -1197074437 -111230677 -443704930 368972261 1325960913 1826074777 -1678256228 -1334793350 673486340 1738285948 -129013943 315160606
REM
CELL 1.54180   50.00000   50.00000   50.00000   90.00000   90.00000   90.00000
LATT -1
SFAC C  
C      1  0.4775660000000  0.5087020000000  0.5438970000000 1.0
C      1  0.4197150000000  0.4686190000000  0.4532660000000 1.0
C      1  0.4575770000000  0.4912940000000  0.4637130000000 1.0
C      1  0.4361790000000  0.4782230000000  0.5650810000000 1.0
C      1  0.5258730000000  0.4844140000000  0.5370160000000 1.0
C      1  0.5513220000000  0.5530810000000  0.5616690000000 1.0
C      1  0.4962530000000  0.3966070000000  0.4947890000000 1.0
C      1  0.4154710000000  0.5057170000000  0.4732840000000 1.0
C      1  0.5149970000000  0.5374350000000  0.5272500000000 1.0
C      1  0.4154560000000  0.4775640000000  0.4816340000000 1.0
C      1  0.4993680000000  0.6002680000000  0.5251130000000 1.0
C      1  0.4332970000000  0.4900220000000  0.5249360000000 1.0
C      1  0.4893820000000  0.5594400000000  0.4939610000000 1.0
C      1  0.5565070000000  0.4943900000000  0.4928810000000 1.0
C      1  0.5522070000000  0.5171470000000  0.4034460000000 1.0
C      1  0.5464050000000  0.5275570000000  0.5732910000000 1.0
C      1  0.4694920000000  0.5175670000000  0.4637140000000 1.0
C      1  0.4875500000000  0.6067820000000  0.4977250000000 1.0
C      1  0.5025980000000  0.4158960000000  0.5485370000000 1.0
C      1  0.4937660000000  0.3973080000000  0.4642520000000 1.0
C      1  0.4975090000000  0.5087630000000  0.4552200000000 1.0
C      1  0.4740270000000  0.5917620000000  0.5371360000000 1.0
C      1  0.5315750000000  0.4137200000000  0.4774960000000 1.0
C      1  0.4514280000000  0.5336610000000  0.4462400000000 1.0
C      1  0.4356290000000  0.5606310000000  0.5500820000000 1.0
C      1  0.5943520000000  0.5017010000000  0.5203910000000 1.0
C      1  0.4696060000000  0.4377410000000  0.4996280000000 1.0
C      1  0.5466990000000  0.5507650000000  0.4443800000000 1.0
C      1  0.5501960000000  0.4903640000000  0.5211280000000 1.0
C      1  0.5002800000000  0.4727330000000  0.4564310000000 1.0
C      1  0.5413500000000  0.4431050000000  0.4744570000000 1.0
C      1  0.5336590000000  0.4432820000000  0.4003010000000 1.0
C      1  0.5194820000000  0.4371410000000  0.4267030000000 1.0
C      1  0.4670010000000  0.5858380000000  0.4528200000000 1.0
C      1  0.4285560000000  0.5657810000000  0.5243160000000 1.0
C      1  0.5298350000000  0.5735960000000  0.5554120000000 1.0
C      1  0.4841430000000  0.4989610000000  0.5892140000000 1.0
C      1  0.4625350000000  0.5685530000000  0.4790330000000 1.0
C      1  0.5360650000000  0.5041700000000  0.5832070000000 1.0
C      1  0.5141870000000  0.5149490000000  0.4794620000000 1.0
C      1  0.5138300000000  0.5707090000000  0.4796490000000 1.0
C      1  0.5409880000000  0.5448620000000  0.5175520000000 1.0
C      1  0.5093230000000  0.5157490000000  0.5925960000000 1.0
C      1  0.5063800000000  0.6010800000000  0.4763730000000 1.0
C      1  0.5442570000000  0.4419960000000  0.4430850000000 1.0
C      1  0.4247290000000  0.5302830000000  0.4879350000000 1.0
C      1  0.5201890000000  0.5581980000000  0.4511820000000 1.0
C      1  0.4496310000000  0.5872690000000  0.5199640000000 1.0
C      1  0.4733900000000  0.4158770000000  0.5379630000000 1.0
C      1  0.4852750000000  0.4833180000000  0.4169970000000 1.0
C      1  0.4740920000000  0.4124200000000  0.4512150000000 1.0
C      1  0.4863860000000  0.4589900000000  0.5481470000000 1.0
C      1  0.5151360000000  0.4132660000000  0.4540100000000 1.0
C      1  0.5019300000000  0.4641870000000  0.4278080000000 1.0
C      1  0.4551170000000  0.4289400000000  0.4477540000000 1.0
C      1  0.5639250000000  0.4588410000000  0.4310360000000 1.0
C      1  0.5261480000000  0.4175470000000  0.5311500000000 1.0
C      1  0.4625750000000  0.4746520000000  0.4855420000000 1.0
C      1  0.5054740000000  0.5102680000000  0.5322300000000 1.0
C      1  0.4597130000000  0.5946340000000  0.4940210000000 1.0
C      1  0.4968170000000  0.4531730000000  0.5011210000000 1.0
C      1  0.5522030000000  0.5430700000000  0.4144400000000 1.0
C      1  0.4262990000000  0.4678600000000  0.5072330000000 1.0
C      1  0.5141300000000  0.4582210000000  0.4790190000000 1.0
C      1  0.4810330000000  0.5662350000000  0.5503330000000 1.0
C      1  0.5525040000000  0.4923990000000  0.3996390000000 1.0
C      1  0.5677020000000  0.5702420000000  0.4966660000000 1.0
C      1  0.5147740000000  0.4575320000000  0.5829500000000 1.0
C      1  0.4763410000000  0.4924910000000  0.5028710000000 1.0
C      1  0.5763680000000  0.4794090000000  0.5277190000000 1.0
C      1  0.5545120000000  0.4645380000000  0.4020530000000 1.0
C      1  0.4707400000000  0.4662900000000  0.4591440000000 1.0
C      1  0.5433490000000  0.5147480000000  0.4765130000000 1.0
C      1  0.5004990000000  0.5064920000000  0.5027500000000 1.0
C      1  0.5542570000000  0.4536180000000  0.5592660000000 1.0
C      1  0.4617110000000  0.4965360000000  0.5252570000000 1.0
C      1  0.5246300000000  0.5866410000000  0.5302920000000 1.0
C      1  0.4373260000000  0.4471330000000  0.4464250000000 1.0
C      1  0.5377760000000  0.5723640000000  0.5051420000000 1.0
C      1  0.4504400000000  0.4341630000000  0.5404250000000 1.0
C      1  0.4991940000000  0.5503790000000  0.4323880000000 1.0
C      1  0.5219860000000  0.4053870000000  0.5045430000000 1.0
C      1  0.5055040000000  0.4631660000000  0.5280030000000 1.0
C      1  0.4939200000000  0.5220520000000  0.4278920000000 1.0
C      1  0.5063530000000  0.5415720000000  0.5826820000000 1.0
C      1  0.4420510000000  0.5116960000000  0.4293460000000 1.0
C      1  0.4650950000000  0.5096110000000  0.5694560000000 1.0
C      1  0.5673420000000  0.4502050000000  0.4910760000000 1.0
C      1  0.4544530000000  0.5590460000000  0.5698580000000 1.0
C      1  0.5890150000000  0.5283650000000  0.5321850000000 1.0
C      1  0.5802150000000  0.4757230000000  0.4495200000000 1.0
C      1  0.5128030000000  0.4331420000000  0.5683080000000 1.0
C      1  0.4912110000000  0.5528190000000  0.5215710000000 1.0
C      1  0.5346860000000  0.4765290000000  0.5683010000000 1.0
C      1  0.4403920000000  0.5466450000000  0.4703690000000 1.0
C      1  0.4782160000000  0.5726310000000  0.4295410000000 1.0
C      1  0.4698790000000  0.5072420000000  0.4173960000000 1.0
C      1  0.4349700000000  0.5060930000000  0.5630370000000 1.0
C      1  0.5051820000000  0.5661010000000  0.5698830000000 1.0
C      1  0.5605600000000  0.5352340000000  0.4648120000000 1.0
C      1  0.4887450000000  0.4703500000000  0.5901040000000 1.0
C      1  0.5758250000000  0.4752780000000  0.4789750000000 1.0
C      1  0.5951820000000  0.5264870000000  0.5042880000000 1.0
C      1  0.4718540000000  0.4530200000000  0.5721220000000 1.0
C      1  0.4425660000000  0.4510990000000  0.5643160000000 1.0
C      1  0.4746100000000  0.4100990000000  0.5095940000000 1.0
C      1  0.5701080000000  0.4507650000000  0.5194090000000 1.0
C      1  0.5509900000000  0.4351010000000  0.5374220000000 1.0
C      1  0.5793020000000  0.5454730000000  0.4860440000000 1.0
C      1  0.4217850000000  0.4976030000000  0.4452120000000 1.0
C      1  0.4229290000000  0.5145930000000  0.5362880000000 1.0
C      1  0.4447490000000  0.4453770000000  0.5137450000000 1.0
C      1  0.5634350000000  0.5426280000000  0.5370710000000 1.0
C      1  0.4239010000000  0.5369990000000  0.5172640000000 1.0
END
