TITL C-884130-5973-186 -0.241622717842635 125000 -5940.62623791011 0 0 40 (C1) n - 1
REM
REM in /home/nfs/bkarasulu/CARBON/AIRSS/Generating-Clusters/ReaxFF-fromJPCA2015/Units_Real/with-SteepDescent/Only-C1/SD-CG/Try1-3A/FIRE-CG
REM
REM
REM
REM
REM
REM ./C.cell (11c1c37f851c82e70ff6c80c92926a4b)
REM
REM compiler GCC version 9.2.1 20190827 (Red Hat 9.2.1-1)
REM options -cpp -mtune=generic -march=x86-64 -g -O0 -fpre-include=/usr/include/finclude/math-vector-fortran.h
REM seed 2039396117 -1332759654 -1894725266 1268901115 -642930906 -9729440 -712085411 -1371435086 -1961891232 -507019462 -1945898626 2036208698 -874224769 2043547376 1964388368 2119917174 -1689814622 1554743855 1360270168 -1547589572 401179819 197008156 -1694365950 -1118045106 -1492479157 503819443 531490606 1831654839 -1753038888 79172988 418878653 -201849616 -2067540990
REM
CELL 1.54180   50.00000   50.00000   50.00000   90.00000   90.00000   90.00000
LATT -1
SFAC C  
C      1  0.5415990000000  0.4716480000000  0.4689920000000 1.0
C      1  0.4381940000000  0.5370000000000  0.5259370000000 1.0
C      1  0.5341340000000  0.5258620000000  0.5156250000000 1.0
C      1  0.4538030000000  0.4889050000000  0.5206790000000 1.0
C      1  0.4782090000000  0.5409770000000  0.4729290000000 1.0
C      1  0.4852650000000  0.5216630000000  0.5395320000000 1.0
C      1  0.5171480000000  0.4675090000000  0.5526740000000 1.0
C      1  0.5499800000000  0.4711150000000  0.5177870000000 1.0
C      1  0.5411780000000  0.4811160000000  0.5422480000000 1.0
C      1  0.4987810000000  0.4422910000000  0.4788400000000 1.0
C      1  0.5049950000000  0.5497600000000  0.4809380000000 1.0
C      1  0.4706730000000  0.4698000000000  0.4526740000000 1.0
C      1  0.5518670000000  0.4677110000000  0.4948790000000 1.0
C      1  0.5172590000000  0.5124990000000  0.5650690000000 1.0
C      1  0.4706410000000  0.4467210000000  0.4705470000000 1.0
C      1  0.5435030000000  0.5012770000000  0.4714800000000 1.0
C      1  0.4609960000000  0.5541600000000  0.5178490000000 1.0
C      1  0.4911700000000  0.4459540000000  0.5065840000000 1.0
C      1  0.5120300000000  0.5437770000000  0.5085080000000 1.0
C      1  0.5046590000000  0.4286380000000  0.5551670000000 1.0
C      1  0.5253260000000  0.5462290000000  0.4597660000000 1.0
C      1  0.5736980000000  0.5397100000000  0.4846650000000 1.0
C      1  0.5058630000000  0.4443040000000  0.5351350000000 1.0
C      1  0.5359930000000  0.5107810000000  0.5415650000000 1.0
C      1  0.4350460000000  0.5096600000000  0.5166260000000 1.0
C      1  0.4645950000000  0.4558050000000  0.4986160000000 1.0
C      1  0.4552700000000  0.4825780000000  0.4941100000000 1.0
C      1  0.4773000000000  0.5152830000000  0.4593390000000 1.0
C      1  0.5158900000000  0.4595540000000  0.4614960000000 1.0
C      1  0.5270730000000  0.5175190000000  0.4527450000000 1.0
C      1  0.4981430000000  0.4885760000000  0.5603490000000 1.0
C      1  0.5531150000000  0.5172600000000  0.4946990000000 1.0
C      1  0.4337830000000  0.5305620000000  0.4982500000000 1.0
C      1  0.5013560000000  0.5050860000000  0.4462150000000 1.0
C      1  0.4553880000000  0.5483230000000  0.4897840000000 1.0
C      1  0.4608990000000  0.4926210000000  0.4674220000000 1.0
C      1  0.4884940000000  0.5465440000000  0.5266460000000 1.0
C      1  0.5526370000000  0.5478580000000  0.4671950000000 1.0
C      1  0.4755930000000  0.4973660000000  0.5412270000000 1.0
C      1  0.4984520000000  0.4759970000000  0.4452120000000 1.0
END
