TITL C-884141-4321-512 37.3298127274546 125000 -19280.690974345 0 0 128 (C1) n - 1
REM
REM in /home/nfs/bkarasulu/CARBON/AIRSS/Generating-Clusters/ReaxFF-fromJPCA2015/Units_Real/with-SteepDescent/Only-C1/SD-CG/Try1-3A/FIRE-CG
REM
REM
REM
REM
REM
REM ./C.cell (11c1c37f851c82e70ff6c80c92926a4b)
REM
REM compiler GCC version 9.2.1 20190827 (Red Hat 9.2.1-1)
REM options -cpp -mtune=generic -march=x86-64 -g -O0 -fpre-include=/usr/include/finclude/math-vector-fortran.h
REM seed 1434025829 585111821 323038569 1680350282 -1037500674 489973871 394215627 -1871274056 -1420211456 1340953026 -2115689409 -1240212183 -1781921006 -373131383 57528563 1964972900 1983684795 -531207784 1646606018 -806053660 931031866 -885540191 -8732178 1992591979 -126083851 956286413 -1335345798 1824398917 -1163222076 -146012831 -785336361 1620877984 1811518047
REM
CELL 1.54180   50.00000   50.00000   50.00000   90.00000   90.00000   90.00000
LATT -1
SFAC C  
C      1  0.4851110000000  0.4111100000000  0.5083930000000 1.0
C      1  0.5334310000000  0.5512750000000  0.4548310000000 1.0
C      1  0.4031390000000  0.5253630000000  0.4825070000000 1.0
C      1  0.5595100000000  0.4307580000000  0.5262560000000 1.0
C      1  0.5735010000000  0.4548920000000  0.5135480000000 1.0
C      1  0.5809670000000  0.5110620000000  0.4402330000000 1.0
C      1  0.4550450000000  0.4863150000000  0.4826990000000 1.0
C      1  0.5383120000000  0.5583120000000  0.5732780000000 1.0
C      1  0.4982900000000  0.5019020000000  0.5458840000000 1.0
C      1  0.4479190000000  0.5319980000000  0.4274630000000 1.0
C      1  0.5402250000000  0.5005150000000  0.4094370000000 1.0
C      1  0.5633230000000  0.4300870000000  0.4721160000000 1.0
C      1  0.5909700000000  0.5235930000000  0.4654500000000 1.0
C      1  0.4544030000000  0.5335640000000  0.4988310000000 1.0
C      1  0.4416000000000  0.5029770000000  0.5008980000000 1.0
C      1  0.5300940000000  0.4556010000000  0.4146530000000 1.0
C      1  0.5266830000000  0.5860370000000  0.5703870000000 1.0
C      1  0.5843940000000  0.5527050000000  0.4766790000000 1.0
C      1  0.4091430000000  0.5462850000000  0.5033550000000 1.0
C      1  0.4865820000000  0.4512210000000  0.4845630000000 1.0
C      1  0.5932980000000  0.5123920000000  0.4908660000000 1.0
C      1  0.5695380000000  0.4638800000000  0.5797240000000 1.0
C      1  0.5107100000000  0.4305300000000  0.5475440000000 1.0
C      1  0.5398020000000  0.5867060000000  0.5436450000000 1.0
C      1  0.5544020000000  0.5235630000000  0.4245640000000 1.0
C      1  0.4739170000000  0.5352410000000  0.4145770000000 1.0
C      1  0.5495510000000  0.4406550000000  0.4488390000000 1.0
C      1  0.4805050000000  0.5690420000000  0.4518210000000 1.0
C      1  0.4146310000000  0.4822130000000  0.5573470000000 1.0
C      1  0.4407810000000  0.4602410000000  0.4782840000000 1.0
C      1  0.4558480000000  0.4958750000000  0.5835400000000 1.0
C      1  0.5043190000000  0.4690930000000  0.4083920000000 1.0
C      1  0.4060480000000  0.4681330000000  0.5330720000000 1.0
C      1  0.5187300000000  0.5859720000000  0.4818150000000 1.0
C      1  0.4654510000000  0.4136640000000  0.5296350000000 1.0
C      1  0.5116350000000  0.4973360000000  0.4021550000000 1.0
C      1  0.4880750000000  0.5103780000000  0.4126740000000 1.0
C      1  0.4132030000000  0.4978590000000  0.4844890000000 1.0
C      1  0.5164580000000  0.5567720000000  0.4183310000000 1.0
C      1  0.4369740000000  0.5577970000000  0.5007450000000 1.0
C      1  0.4270590000000  0.5139500000000  0.4381120000000 1.0
C      1  0.4216260000000  0.5609560000000  0.4543560000000 1.0
C      1  0.5153760000000  0.4542470000000  0.4866320000000 1.0
C      1  0.4779660000000  0.5388740000000  0.5236830000000 1.0
C      1  0.5380730000000  0.4144190000000  0.5121560000000 1.0
C      1  0.5514580000000  0.4764130000000  0.4180430000000 1.0
C      1  0.5504540000000  0.5709270000000  0.4391600000000 1.0
C      1  0.5135770000000  0.4580900000000  0.5398110000000 1.0
C      1  0.5441220000000  0.4098650000000  0.4835800000000 1.0
C      1  0.5707450000000  0.5666450000000  0.4580360000000 1.0
C      1  0.5739290000000  0.4828610000000  0.4384510000000 1.0
C      1  0.4780540000000  0.4254360000000  0.4533010000000 1.0
C      1  0.4724840000000  0.5871810000000  0.4742610000000 1.0
C      1  0.5074820000000  0.5409820000000  0.4900570000000 1.0
C      1  0.4585520000000  0.5430400000000  0.5483670000000 1.0
C      1  0.4929950000000  0.5956490000000  0.4931020000000 1.0
C      1  0.5677120000000  0.5222720000000  0.5231070000000 1.0
C      1  0.4724940000000  0.5588960000000  0.5675570000000 1.0
C      1  0.4025710000000  0.4769480000000  0.5041840000000 1.0
C      1  0.4533460000000  0.5821890000000  0.4975190000000 1.0
C      1  0.4779670000000  0.5841530000000  0.5463100000000 1.0
C      1  0.4835130000000  0.4695750000000  0.5057130000000 1.0
C      1  0.4895240000000  0.5598090000000  0.4241310000000 1.0
C      1  0.5233530000000  0.5143010000000  0.5549360000000 1.0
C      1  0.4527010000000  0.5514630000000  0.4501640000000 1.0
C      1  0.4747970000000  0.5889830000000  0.5165710000000 1.0
C      1  0.4457350000000  0.4918500000000  0.5267540000000 1.0
C      1  0.5667060000000  0.4818850000000  0.5564780000000 1.0
C      1  0.4193450000000  0.4440560000000  0.5231430000000 1.0
C      1  0.5438770000000  0.5252380000000  0.4525940000000 1.0
C      1  0.5719220000000  0.4792590000000  0.4671410000000 1.0
C      1  0.5289650000000  0.4305910000000  0.4299820000000 1.0
C      1  0.5734760000000  0.4549400000000  0.4841950000000 1.0
C      1  0.5438650000000  0.5527880000000  0.4160920000000 1.0
C      1  0.5510190000000  0.5028920000000  0.4723900000000 1.0
C      1  0.5901320000000  0.5035520000000  0.5175330000000 1.0
C      1  0.4642300000000  0.4485790000000  0.4399150000000 1.0
C      1  0.5051070000000  0.5519060000000  0.5161150000000 1.0
C      1  0.5295470000000  0.4867830000000  0.4594530000000 1.0
C      1  0.5296660000000  0.4584240000000  0.4621000000000 1.0
C      1  0.4277250000000  0.5028860000000  0.5448980000000 1.0
C      1  0.5560900000000  0.4367880000000  0.5800970000000 1.0
C      1  0.4473970000000  0.4386990000000  0.5335050000000 1.0
C      1  0.5413300000000  0.5794660000000  0.4987580000000 1.0
C      1  0.4140560000000  0.5375160000000  0.5297270000000 1.0
C      1  0.4888240000000  0.5370910000000  0.5790780000000 1.0
C      1  0.4638830000000  0.5033760000000  0.4618510000000 1.0
C      1  0.5230310000000  0.5745910000000  0.5216040000000 1.0
C      1  0.5470690000000  0.5110470000000  0.5040790000000 1.0
C      1  0.4830750000000  0.4949470000000  0.4401180000000 1.0
C      1  0.4860620000000  0.5129390000000  0.5247790000000 1.0
C      1  0.4167370000000  0.4532400000000  0.4951770000000 1.0
C      1  0.4998670000000  0.5881560000000  0.5614940000000 1.0
C      1  0.5231590000000  0.4091030000000  0.4647260000000 1.0
C      1  0.5062540000000  0.5016300000000  0.4575050000000 1.0
C      1  0.5576060000000  0.4330800000000  0.5533100000000 1.0
C      1  0.4809990000000  0.4668570000000  0.4259250000000 1.0
C      1  0.4916820000000  0.4311480000000  0.5697360000000 1.0
C      1  0.5793040000000  0.4779900000000  0.5297100000000 1.0
C      1  0.4527460000000  0.4536720000000  0.5811020000000 1.0
C      1  0.4349110000000  0.4775680000000  0.5786090000000 1.0
C      1  0.4613980000000  0.5301830000000  0.4703480000000 1.0
C      1  0.5101910000000  0.5604980000000  0.4684100000000 1.0
C      1  0.4652030000000  0.4684390000000  0.5298310000000 1.0
C      1  0.5262870000000  0.4644900000000  0.5127300000000 1.0
C      1  0.4766470000000  0.4236830000000  0.4825640000000 1.0
C      1  0.4956380000000  0.4815700000000  0.5887990000000 1.0
C      1  0.5059860000000  0.4164540000000  0.4443700000000 1.0
C      1  0.4106440000000  0.5345090000000  0.4553880000000 1.0
C      1  0.5370250000000  0.4885230000000  0.5089330000000 1.0
C      1  0.5255250000000  0.4810270000000  0.5870170000000 1.0
C      1  0.5014850000000  0.5142450000000  0.4826530000000 1.0
C      1  0.4820750000000  0.4559270000000  0.5833850000000 1.0
C      1  0.5664490000000  0.5634100000000  0.4992020000000 1.0
C      1  0.4311700000000  0.5319410000000  0.5513300000000 1.0
C      1  0.5446970000000  0.4610510000000  0.5948720000000 1.0
C      1  0.5114530000000  0.4137230000000  0.5225280000000 1.0
C      1  0.4471510000000  0.4310980000000  0.5631200000000 1.0
C      1  0.5415750000000  0.4943910000000  0.5657250000000 1.0
C      1  0.4800200000000  0.5077610000000  0.5869600000000 1.0
C      1  0.4908150000000  0.4746530000000  0.5455600000000 1.0
C      1  0.5173850000000  0.5374430000000  0.5719880000000 1.0
C      1  0.4250390000000  0.4891900000000  0.4528090000000 1.0
C      1  0.4879230000000  0.4976960000000  0.5020150000000 1.0
C      1  0.4386770000000  0.4631210000000  0.4495360000000 1.0
C      1  0.5568390000000  0.5639630000000  0.5504910000000 1.0
C      1  0.5684740000000  0.5513470000000  0.5260680000000 1.0
C      1  0.4703790000000  0.4140940000000  0.5588770000000 1.0
END
