TITL C-884142-5251-201 -4.9095615825658 125000 -4579.94117590136 0 0 32 (C1) n - 1
REM
REM in /home/nfs/bkarasulu/CARBON/AIRSS/Generating-Clusters/ReaxFF-fromJPCA2015/Units_Real/with-SteepDescent/Only-C1/SD-CG/Try1-3A/FIRE-CG
REM
REM
REM
REM
REM
REM ./C.cell (11c1c37f851c82e70ff6c80c92926a4b)
REM
REM compiler GCC version 9.2.1 20190827 (Red Hat 9.2.1-1)
REM options -cpp -mtune=generic -march=x86-64 -g -O0 -fpre-include=/usr/include/finclude/math-vector-fortran.h
REM seed 957674675 586602326 -339153369 -2063087346 2090553337 589723099 57780796 816129183 2049962791 -2013856652 1709727461 97032455 -1386810360 434693316 1314719290 -1971973763 -2076721318 28271001 121040642 -2115477540 1605842968 -1665005111 -1583808145 -568964451 944117208 116357742 941199343 499307647 -1706422054 -14425966 -64562654 -1702516826 -615538479
REM
CELL 1.54180   50.00000   50.00000   50.00000   90.00000   90.00000   90.00000
LATT -1
SFAC C  
C      1  0.5426680000000  0.4507820000000  0.5185900000000 1.0
C      1  0.5315630000000  0.4492600000000  0.4644730000000 1.0
C      1  0.4658370000000  0.5286780000000  0.4954870000000 1.0
C      1  0.4897580000000  0.4960930000000  0.5296740000000 1.0
C      1  0.4411830000000  0.5301700000000  0.4742100000000 1.0
C      1  0.4433700000000  0.4793280000000  0.4696520000000 1.0
C      1  0.4823760000000  0.4990540000000  0.4967240000000 1.0
C      1  0.4878780000000  0.5795920000000  0.4859760000000 1.0
C      1  0.5373280000000  0.5171210000000  0.4982380000000 1.0
C      1  0.5477770000000  0.4722430000000  0.4746890000000 1.0
C      1  0.4662700000000  0.4742350000000  0.4891730000000 1.0
C      1  0.5155950000000  0.4397380000000  0.5115920000000 1.0
C      1  0.5627420000000  0.4600160000000  0.4966660000000 1.0
C      1  0.5046750000000  0.5682420000000  0.5063050000000 1.0
C      1  0.5086150000000  0.4426170000000  0.4829140000000 1.0
C      1  0.5328800000000  0.4728830000000  0.5306860000000 1.0
C      1  0.4555860000000  0.5486980000000  0.4560020000000 1.0
C      1  0.4616090000000  0.4846450000000  0.4464890000000 1.0
C      1  0.5310360000000  0.5211790000000  0.5444040000000 1.0
C      1  0.5316430000000  0.4997630000000  0.4783660000000 1.0
C      1  0.4770750000000  0.5508470000000  0.4779590000000 1.0
C      1  0.4931540000000  0.4457440000000  0.5303780000000 1.0
C      1  0.4609660000000  0.5362200000000  0.5258280000000 1.0
C      1  0.4903380000000  0.4791010000000  0.4551330000000 1.0
C      1  0.4784480000000  0.4692750000000  0.5397810000000 1.0
C      1  0.5023260000000  0.4979260000000  0.4745610000000 1.0
C      1  0.5411120000000  0.5344000000000  0.5193700000000 1.0
C      1  0.5084620000000  0.5393380000000  0.5459040000000 1.0
C      1  0.4826480000000  0.5244780000000  0.5406780000000 1.0
C      1  0.5207690000000  0.5573610000000  0.5257840000000 1.0
C      1  0.5194940000000  0.4940650000000  0.5403670000000 1.0
C      1  0.4848190000000  0.4569050000000  0.4739480000000 1.0
END
