TITL C-884128-4793-266 -6.23670695929405 125000 -23274.8972471434 0 0 153 (C1) n - 1
REM
REM in /home/nfs/bkarasulu/CARBON/AIRSS/Generating-Clusters/ReaxFF-fromJPCA2015/Units_Real/with-SteepDescent/Only-C1/SD-CG/Try1-3A/FIRE-CG
REM
REM
REM
REM
REM
REM ./C.cell (11c1c37f851c82e70ff6c80c92926a4b)
REM
REM compiler GCC version 9.2.1 20190827 (Red Hat 9.2.1-1)
REM options -cpp -mtune=generic -march=x86-64 -g -O0 -fpre-include=/usr/include/finclude/math-vector-fortran.h
REM seed -2118150955 -1026411321 24897004 785749270 159197668 -1462053771 -2131402474 2083087403 -1816987447 -1835575599 -204745996 149395514 2120975855 249905493 2038692330 -1519775675 -1391980124 -1662101747 -1618113220 1796745224 1435280742 1617129956 1605532356 -417823840 -289774141 -22223090 1884130898 -198385616 1577470552 401879770 -1582573487 -1850262504 1707844000
REM
CELL 1.54180   50.00000   50.00000   50.00000   90.00000   90.00000   90.00000
LATT -1
SFAC C  
C      1  0.5429440000000  0.4163290000000  0.4683820000000 1.0
C      1  0.5126040000000  0.4900190000000  0.5089130000000 1.0
C      1  0.5159150000000  0.4281600000000  0.5772410000000 1.0
C      1  0.4745870000000  0.5302700000000  0.5158150000000 1.0
C      1  0.4694320000000  0.4854960000000  0.5577160000000 1.0
C      1  0.4879140000000  0.4561100000000  0.5940070000000 1.0
C      1  0.5016870000000  0.4288210000000  0.4186930000000 1.0
C      1  0.4619440000000  0.4478180000000  0.4177370000000 1.0
C      1  0.4739940000000  0.4215830000000  0.4261200000000 1.0
C      1  0.5507680000000  0.5357830000000  0.5466210000000 1.0
C      1  0.4385530000000  0.4224840000000  0.4690200000000 1.0
C      1  0.5006800000000  0.4039490000000  0.5341330000000 1.0
C      1  0.4243030000000  0.4662630000000  0.5064450000000 1.0
C      1  0.4812140000000  0.4581520000000  0.5642430000000 1.0
C      1  0.4770550000000  0.3882360000000  0.4688780000000 1.0
C      1  0.5253430000000  0.5989130000000  0.5056030000000 1.0
C      1  0.5114630000000  0.4677360000000  0.5500500000000 1.0
C      1  0.5977810000000  0.5260430000000  0.4860870000000 1.0
C      1  0.4573090000000  0.5547960000000  0.5613910000000 1.0
C      1  0.5435930000000  0.5083510000000  0.4816440000000 1.0
C      1  0.4593660000000  0.4894270000000  0.5064860000000 1.0
C      1  0.5298810000000  0.4377750000000  0.4890810000000 1.0
C      1  0.4725230000000  0.5586110000000  0.4410110000000 1.0
C      1  0.4193450000000  0.5516890000000  0.5069200000000 1.0
C      1  0.4730340000000  0.4198090000000  0.5306800000000 1.0
C      1  0.4193060000000  0.4632540000000  0.5576240000000 1.0
C      1  0.4981060000000  0.4993510000000  0.6099380000000 1.0
C      1  0.4993990000000  0.5156420000000  0.5078180000000 1.0
C      1  0.4692390000000  0.4962770000000  0.4806180000000 1.0
C      1  0.5399550000000  0.4633350000000  0.4762530000000 1.0
C      1  0.5375940000000  0.4683280000000  0.5935760000000 1.0
C      1  0.5867180000000  0.4539360000000  0.4899020000000 1.0
C      1  0.4531730000000  0.5934800000000  0.5343510000000 1.0
C      1  0.4982010000000  0.4719020000000  0.5244800000000 1.0
C      1  0.4174780000000  0.4828870000000  0.4778470000000 1.0
C      1  0.4695510000000  0.5617310000000  0.5852270000000 1.0
C      1  0.4769450000000  0.5406060000000  0.5431610000000 1.0
C      1  0.5920770000000  0.4869840000000  0.4599140000000 1.0
C      1  0.5621600000000  0.4537120000000  0.4372520000000 1.0
C      1  0.4645040000000  0.3893850000000  0.4928600000000 1.0
C      1  0.4497010000000  0.5990710000000  0.4526720000000 1.0
C      1  0.5263640000000  0.3961640000000  0.4742690000000 1.0
C      1  0.4386120000000  0.5148520000000  0.4254820000000 1.0
C      1  0.5204080000000  0.4167320000000  0.5527890000000 1.0
C      1  0.4850900000000  0.5626250000000  0.6043210000000 1.0
C      1  0.5253950000000  0.4953490000000  0.5919490000000 1.0
C      1  0.4311480000000  0.5780080000000  0.4642990000000 1.0
C      1  0.5528110000000  0.5884280000000  0.4993160000000 1.0
C      1  0.5101240000000  0.4998420000000  0.4018800000000 1.0
C      1  0.5209320000000  0.5551170000000  0.5026090000000 1.0
C      1  0.4926650000000  0.5094640000000  0.4818060000000 1.0
C      1  0.4167600000000  0.4857100000000  0.5348260000000 1.0
C      1  0.5628620000000  0.4937990000000  0.5524270000000 1.0
C      1  0.4760280000000  0.4912550000000  0.5303690000000 1.0
C      1  0.5475730000000  0.5186590000000  0.5976220000000 1.0
C      1  0.5345630000000  0.4429930000000  0.5419910000000 1.0
C      1  0.5616270000000  0.4489250000000  0.5553200000000 1.0
C      1  0.4799530000000  0.5019730000000  0.4045150000000 1.0
C      1  0.4535850000000  0.4613860000000  0.5023640000000 1.0
C      1  0.5793000000000  0.5296300000000  0.5362690000000 1.0
C      1  0.4671950000000  0.4873280000000  0.4529710000000 1.0
C      1  0.5516330000000  0.5856690000000  0.5532090000000 1.0
C      1  0.5512170000000  0.4749810000000  0.4202980000000 1.0
C      1  0.5051200000000  0.6066490000000  0.4863980000000 1.0
C      1  0.5733300000000  0.4409830000000  0.5120100000000 1.0
C      1  0.4917450000000  0.5634680000000  0.4973880000000 1.0
C      1  0.4109710000000  0.5267200000000  0.5449150000000 1.0
C      1  0.5579300000000  0.4706990000000  0.5733320000000 1.0
C      1  0.5065140000000  0.3919600000000  0.5098880000000 1.0
C      1  0.5121640000000  0.5734420000000  0.5541730000000 1.0
C      1  0.5053210000000  0.5110460000000  0.4574110000000 1.0
C      1  0.4222180000000  0.4384100000000  0.5165340000000 1.0
C      1  0.5688540000000  0.5551140000000  0.4601320000000 1.0
C      1  0.4187290000000  0.5110860000000  0.4758990000000 1.0
C      1  0.4793620000000  0.4565440000000  0.3930020000000 1.0
C      1  0.5247020000000  0.4749680000000  0.4058420000000 1.0
C      1  0.5659770000000  0.5646890000000  0.4875760000000 1.0
C      1  0.4336150000000  0.5284370000000  0.4525080000000 1.0
C      1  0.5227090000000  0.5210460000000  0.5500100000000 1.0
C      1  0.5543530000000  0.4962010000000  0.5252770000000 1.0
C      1  0.4766380000000  0.4792370000000  0.6069720000000 1.0
C      1  0.4304550000000  0.4873520000000  0.4265080000000 1.0
C      1  0.5496570000000  0.5270720000000  0.4183930000000 1.0
C      1  0.5269080000000  0.5532210000000  0.4738920000000 1.0
C      1  0.5296500000000  0.5259870000000  0.4648280000000 1.0
C      1  0.5879750000000  0.5330640000000  0.4598150000000 1.0
C      1  0.4616220000000  0.5246520000000  0.4093490000000 1.0
C      1  0.4008700000000  0.5092790000000  0.5238850000000 1.0
C      1  0.4525790000000  0.4025650000000  0.5138960000000 1.0
C      1  0.6019690000000  0.4753240000000  0.5027150000000 1.0
C      1  0.5044080000000  0.5441730000000  0.5519310000000 1.0
C      1  0.4182120000000  0.5546950000000  0.5353020000000 1.0
C      1  0.5738090000000  0.4628630000000  0.4641670000000 1.0
C      1  0.4205910000000  0.4715030000000  0.4515780000000 1.0
C      1  0.4301480000000  0.5064600000000  0.5531380000000 1.0
C      1  0.5409670000000  0.5559340000000  0.5253120000000 1.0
C      1  0.5092640000000  0.5936270000000  0.5320100000000 1.0
C      1  0.4336840000000  0.4410610000000  0.5447310000000 1.0
C      1  0.4975190000000  0.4401540000000  0.4883210000000 1.0
C      1  0.5273840000000  0.5648740000000  0.4270120000000 1.0
C      1  0.4825220000000  0.4396110000000  0.4635440000000 1.0
C      1  0.5099750000000  0.4861340000000  0.4498370000000 1.0
C      1  0.4787560000000  0.5479180000000  0.4144480000000 1.0
C      1  0.5837060000000  0.4532370000000  0.5369510000000 1.0
C      1  0.4720650000000  0.4598170000000  0.4458000000000 1.0
C      1  0.4680170000000  0.5466070000000  0.4909270000000 1.0
C      1  0.5080800000000  0.5493350000000  0.4107280000000 1.0
C      1  0.5448260000000  0.4372780000000  0.5147670000000 1.0
C      1  0.5329870000000  0.5812430000000  0.5741870000000 1.0
C      1  0.5901170000000  0.5037040000000  0.5453690000000 1.0
C      1  0.4520640000000  0.5034240000000  0.5729840000000 1.0
C      1  0.4990760000000  0.5264570000000  0.6126390000000 1.0
C      1  0.5232980000000  0.5253130000000  0.4049470000000 1.0
C      1  0.5521120000000  0.5515790000000  0.4342770000000 1.0
C      1  0.5106170000000  0.5521550000000  0.6113470000000 1.0
C      1  0.4652760000000  0.5360370000000  0.4581540000000 1.0
C      1  0.5162030000000  0.4472430000000  0.5974920000000 1.0
C      1  0.5224470000000  0.5752540000000  0.4540560000000 1.0
C      1  0.4614950000000  0.4370400000000  0.5513120000000 1.0
C      1  0.5486650000000  0.4282850000000  0.4414360000000 1.0
C      1  0.4375520000000  0.5719690000000  0.5481500000000 1.0
C      1  0.5187640000000  0.4943090000000  0.5609540000000 1.0
C      1  0.5606930000000  0.5790100000000  0.5271500000000 1.0
C      1  0.4293770000000  0.4463990000000  0.4602330000000 1.0
C      1  0.5031160000000  0.5968150000000  0.4586260000000 1.0
C      1  0.5224610000000  0.4634840000000  0.4524710000000 1.0
C      1  0.4766870000000  0.5876680000000  0.4477990000000 1.0
C      1  0.5980590000000  0.4781020000000  0.5313030000000 1.0
C      1  0.5791530000000  0.5380590000000  0.5064080000000 1.0
C      1  0.4309380000000  0.4699890000000  0.5821260000000 1.0
C      1  0.4103010000000  0.5246070000000  0.4998110000000 1.0
C      1  0.4796530000000  0.4464890000000  0.5102010000000 1.0
C      1  0.4200840000000  0.5565350000000  0.4488840000000 1.0
C      1  0.4430910000000  0.4704750000000  0.4070630000000 1.0
C      1  0.5845000000000  0.5084030000000  0.4428970000000 1.0
C      1  0.5067960000000  0.4519400000000  0.4008530000000 1.0
C      1  0.4488340000000  0.4856120000000  0.5971230000000 1.0
C      1  0.4803440000000  0.5121700000000  0.4431630000000 1.0
C      1  0.4813090000000  0.5907190000000  0.4940510000000 1.0
C      1  0.4332150000000  0.4178540000000  0.4982310000000 1.0
C      1  0.4663050000000  0.4128210000000  0.4543720000000 1.0
C      1  0.5630880000000  0.5019910000000  0.4240800000000 1.0
C      1  0.4539950000000  0.5919800000000  0.5051540000000 1.0
C      1  0.4652850000000  0.4804240000000  0.3932840000000 1.0
C      1  0.5515430000000  0.5403400000000  0.5802640000000 1.0
C      1  0.4411400000000  0.5673630000000  0.4929880000000 1.0
C      1  0.5344950000000  0.4848230000000  0.4931960000000 1.0
C      1  0.5043040000000  0.3810570000000  0.4832610000000 1.0
C      1  0.5585860000000  0.5143810000000  0.5042430000000 1.0
C      1  0.5352520000000  0.5595140000000  0.5945030000000 1.0
C      1  0.4816850000000  0.5958900000000  0.5366520000000 1.0
C      1  0.5212540000000  0.4374480000000  0.4382600000000 1.0
C      1  0.6047260000000  0.4977350000000  0.4836870000000 1.0
END
