TITL C-883734-4173-484 3.10679954242749 125000 -9400.14176010777 0 0 63 (C1) n - 1
REM
REM in /home/nfs/bkarasulu/CARBON/AIRSS/Generating-Clusters/ReaxFF-fromJPCA2015/Units_Real/with-SteepDescent/Only-C1/SD-CG/Try1-3A/FIRE-CG
REM
REM
REM
REM
REM
REM ./C.cell (11c1c37f851c82e70ff6c80c92926a4b)
REM
REM compiler GCC version 9.2.1 20190827 (Red Hat 9.2.1-1)
REM options -cpp -mtune=generic -march=x86-64 -g -O0 -fpre-include=/usr/include/finclude/math-vector-fortran.h
REM seed -254053975 -269057035 367890802 -1250077662 132643902 1424453459 2001009538 1674185659 -1812114719 -1601368035 1605147686 905803456 -566054174 -2097930507 -988103947 655495854 740199203 -1766303014 665179084 1109296390 855845749 -1162682776 172156425 71584976 1596024267 -448908684 1361611524 622744629 1477140985 -262201280 -2016209098 420786421 -1786516776
REM
CELL 1.54180   50.00000   50.00000   50.00000   90.00000   90.00000   90.00000
LATT -1
SFAC C  
C      1  0.5536370000000  0.4984750000000  0.4594720000000 1.0
C      1  0.4177890000000  0.4906680000000  0.4426620000000 1.0
C      1  0.5220840000000  0.4375920000000  0.5221440000000 1.0
C      1  0.4721010000000  0.4402330000000  0.4614350000000 1.0
C      1  0.4367720000000  0.5201040000000  0.5454240000000 1.0
C      1  0.5309670000000  0.4992890000000  0.4415300000000 1.0
C      1  0.5098840000000  0.5271180000000  0.5675160000000 1.0
C      1  0.4547480000000  0.5228320000000  0.4767010000000 1.0
C      1  0.4832610000000  0.4842220000000  0.4383460000000 1.0
C      1  0.5123510000000  0.4881310000000  0.5792490000000 1.0
C      1  0.5348190000000  0.4313890000000  0.4960590000000 1.0
C      1  0.4844910000000  0.4865510000000  0.5738670000000 1.0
C      1  0.5538790000000  0.5024180000000  0.5509910000000 1.0
C      1  0.5899430000000  0.4921230000000  0.5043110000000 1.0
C      1  0.4360840000000  0.5815840000000  0.5117210000000 1.0
C      1  0.4778680000000  0.5334420000000  0.4858920000000 1.0
C      1  0.5073900000000  0.5390420000000  0.5379870000000 1.0
C      1  0.5046290000000  0.3898280000000  0.4913590000000 1.0
C      1  0.4376060000000  0.4785550000000  0.4906330000000 1.0
C      1  0.5062770000000  0.5134140000000  0.5196720000000 1.0
C      1  0.4910370000000  0.5958450000000  0.5026230000000 1.0
C      1  0.5222650000000  0.5592010000000  0.4804390000000 1.0
C      1  0.4965170000000  0.4872950000000  0.5275440000000 1.0
C      1  0.4674780000000  0.4533270000000  0.5316220000000 1.0
C      1  0.5420150000000  0.4488700000000  0.4737390000000 1.0
C      1  0.5301530000000  0.5400530000000  0.4615790000000 1.0
C      1  0.4693690000000  0.5508770000000  0.5080850000000 1.0
C      1  0.4372240000000  0.5529820000000  0.5083670000000 1.0
C      1  0.5106370000000  0.4773520000000  0.4490780000000 1.0
C      1  0.5854010000000  0.5184640000000  0.5140500000000 1.0
C      1  0.5529070000000  0.5449950000000  0.5195790000000 1.0
C      1  0.4557980000000  0.4347360000000  0.4866230000000 1.0
C      1  0.4633280000000  0.4658390000000  0.4492570000000 1.0
C      1  0.4863770000000  0.5128180000000  0.4394570000000 1.0
C      1  0.4368950000000  0.5118970000000  0.4418560000000 1.0
C      1  0.4286180000000  0.5248080000000  0.5174650000000 1.0
C      1  0.4491720000000  0.4554990000000  0.5059530000000 1.0
C      1  0.5312410000000  0.5075530000000  0.5718710000000 1.0
C      1  0.5140330000000  0.5224410000000  0.4423450000000 1.0
C      1  0.5045630000000  0.4887580000000  0.4803900000000 1.0
C      1  0.4993430000000  0.4304660000000  0.4603450000000 1.0
C      1  0.4635340000000  0.5304120000000  0.5551030000000 1.0
C      1  0.4763890000000  0.4769740000000  0.5468680000000 1.0
C      1  0.4608480000000  0.5256990000000  0.4494290000000 1.0
C      1  0.5138400000000  0.4124830000000  0.4820260000000 1.0
C      1  0.5677550000000  0.5344060000000  0.4958020000000 1.0
C      1  0.5010100000000  0.5161020000000  0.4913580000000 1.0
C      1  0.5276170000000  0.5586840000000  0.5220080000000 1.0
C      1  0.5167910000000  0.5756900000000  0.5009380000000 1.0
C      1  0.5414480000000  0.4571650000000  0.5270220000000 1.0
C      1  0.4933740000000  0.4432860000000  0.5268420000000 1.0
C      1  0.4999510000000  0.4757850000000  0.5018000000000 1.0
C      1  0.5816380000000  0.4758710000000  0.4902450000000 1.0
C      1  0.4381340000000  0.4747070000000  0.4614230000000 1.0
C      1  0.4834160000000  0.5167580000000  0.5736440000000 1.0
C      1  0.4372940000000  0.5072780000000  0.4955010000000 1.0
C      1  0.5540200000000  0.5251020000000  0.4716400000000 1.0
C      1  0.5668650000000  0.5244010000000  0.5364710000000 1.0
C      1  0.4784810000000  0.5459920000000  0.5366150000000 1.0
C      1  0.5610170000000  0.4719230000000  0.4716320000000 1.0
C      1  0.5201410000000  0.4485920000000  0.4544700000000 1.0
C      1  0.5488700000000  0.4788620000000  0.5378950000000 1.0
C      1  0.4666200000000  0.5827440000000  0.5020300000000 1.0
END
