TITL C-884137-4758-308 14.3054997072286 125000 -14483.1373325777 0 0 97 (C1) n - 1
REM
REM in /home/nfs/bkarasulu/CARBON/AIRSS/Generating-Clusters/ReaxFF-fromJPCA2015/Units_Real/with-SteepDescent/Only-C1/SD-CG/Try1-3A/FIRE-CG
REM
REM
REM
REM
REM
REM ./C.cell (11c1c37f851c82e70ff6c80c92926a4b)
REM
REM compiler GCC version 9.2.1 20190827 (Red Hat 9.2.1-1)
REM options -cpp -mtune=generic -march=x86-64 -g -O0 -fpre-include=/usr/include/finclude/math-vector-fortran.h
REM seed 600768155 1357723948 2126665623 -1325211666 -1739129646 1830561439 1515325490 -774318191 -779440292 228085663 -1232370047 288044489 -1796649795 964762570 -97159556 -447157265 363187862 -1374131496 1387698518 -1787812466 118051396 -272010642 -903300140 1547731495 -1761161847 535477802 1255635852 2136936383 -1022560346 413307825 -799117261 1828417694 -131972451
REM
CELL 1.54180   50.00000   50.00000   50.00000   90.00000   90.00000   90.00000
LATT -1
SFAC C  
C      1  0.4293200000000  0.5389130000000  0.5274590000000 1.0
C      1  0.5745390000000  0.4771410000000  0.4692480000000 1.0
C      1  0.4314010000000  0.4983050000000  0.5511690000000 1.0
C      1  0.4711840000000  0.5067990000000  0.5199090000000 1.0
C      1  0.5241970000000  0.5568850000000  0.5077140000000 1.0
C      1  0.5130900000000  0.5315840000000  0.5378540000000 1.0
C      1  0.5545630000000  0.5074280000000  0.4391580000000 1.0
C      1  0.4865910000000  0.4329020000000  0.4733890000000 1.0
C      1  0.5436980000000  0.5188010000000  0.6034070000000 1.0
C      1  0.5610970000000  0.4462990000000  0.5289150000000 1.0
C      1  0.4638680000000  0.5781700000000  0.5120390000000 1.0
C      1  0.5621750000000  0.5261910000000  0.5808530000000 1.0
C      1  0.5342780000000  0.5106040000000  0.4989210000000 1.0
C      1  0.5330540000000  0.4546950000000  0.5401800000000 1.0
C      1  0.4837170000000  0.5764430000000  0.4619580000000 1.0
C      1  0.5189360000000  0.4804940000000  0.5217950000000 1.0
C      1  0.4125340000000  0.4850930000000  0.4787600000000 1.0
C      1  0.5324040000000  0.5267540000000  0.4318380000000 1.0
C      1  0.5285200000000  0.4670910000000  0.4185890000000 1.0
C      1  0.5100100000000  0.5917900000000  0.4638210000000 1.0
C      1  0.4735740000000  0.5072250000000  0.5750470000000 1.0
C      1  0.5700770000000  0.5049760000000  0.4630650000000 1.0
C      1  0.4591290000000  0.4881270000000  0.4707770000000 1.0
C      1  0.4872610000000  0.5859490000000  0.5273790000000 1.0
C      1  0.4951100000000  0.4442080000000  0.5612450000000 1.0
C      1  0.4479170000000  0.5171190000000  0.5361650000000 1.0
C      1  0.5715790000000  0.5011160000000  0.5637550000000 1.0
C      1  0.5102500000000  0.4215960000000  0.4890090000000 1.0
C      1  0.5524240000000  0.4792330000000  0.4294910000000 1.0
C      1  0.5131180000000  0.4325560000000  0.5413530000000 1.0
C      1  0.5637020000000  0.5192080000000  0.4903680000000 1.0
C      1  0.5339270000000  0.4691970000000  0.4992260000000 1.0
C      1  0.4364850000000  0.4446080000000  0.4625500000000 1.0
C      1  0.5798350000000  0.5492730000000  0.5189140000000 1.0
C      1  0.4402190000000  0.4663110000000  0.5235190000000 1.0
C      1  0.5597050000000  0.5654580000000  0.5301210000000 1.0
C      1  0.4732510000000  0.5378640000000  0.5689020000000 1.0
C      1  0.5216910000000  0.5007610000000  0.4749600000000 1.0
C      1  0.4641660000000  0.4703110000000  0.5404280000000 1.0
C      1  0.5302790000000  0.5703630000000  0.4598040000000 1.0
C      1  0.4668910000000  0.4734610000000  0.4073110000000 1.0
C      1  0.5344120000000  0.4638480000000  0.5700150000000 1.0
C      1  0.5098470000000  0.5824850000000  0.5460180000000 1.0
C      1  0.5060280000000  0.4673490000000  0.5765180000000 1.0
C      1  0.5032480000000  0.5114680000000  0.4559570000000 1.0
C      1  0.4189650000000  0.5274600000000  0.5025340000000 1.0
C      1  0.5168150000000  0.5486950000000  0.4440330000000 1.0
C      1  0.5081980000000  0.5115010000000  0.4264060000000 1.0
C      1  0.4189790000000  0.4846460000000  0.5280160000000 1.0
C      1  0.5532400000000  0.4832870000000  0.5681750000000 1.0
C      1  0.4868730000000  0.5518790000000  0.4450940000000 1.0
C      1  0.4192600000000  0.4560320000000  0.4813400000000 1.0
C      1  0.4807690000000  0.5067170000000  0.4720400000000 1.0
C      1  0.4466070000000  0.5116800000000  0.4402140000000 1.0
C      1  0.5432700000000  0.5630060000000  0.4856970000000 1.0
C      1  0.5419370000000  0.4394690000000  0.4547790000000 1.0
C      1  0.4616640000000  0.4328930000000  0.4930510000000 1.0
C      1  0.5066200000000  0.5616230000000  0.5663600000000 1.0
C      1  0.5200720000000  0.5170590000000  0.5844260000000 1.0
C      1  0.5762860000000  0.4711860000000  0.5217880000000 1.0
C      1  0.4441760000000  0.5645310000000  0.5320410000000 1.0
C      1  0.5114960000000  0.4884080000000  0.4075940000000 1.0
C      1  0.4910600000000  0.5472700000000  0.5483980000000 1.0
C      1  0.4456200000000  0.4544160000000  0.4382400000000 1.0
C      1  0.5807030000000  0.4973350000000  0.5347460000000 1.0
C      1  0.5814880000000  0.5193570000000  0.5163710000000 1.0
C      1  0.5157170000000  0.4735960000000  0.4780600000000 1.0
C      1  0.5379750000000  0.4263020000000  0.4815420000000 1.0
C      1  0.4889110000000  0.4630780000000  0.4815820000000 1.0
C      1  0.4923110000000  0.4386160000000  0.4427120000000 1.0
C      1  0.4717050000000  0.4414710000000  0.5444380000000 1.0
C      1  0.4692100000000  0.5198750000000  0.4948450000000 1.0
C      1  0.4988880000000  0.4954320000000  0.5814740000000 1.0
C      1  0.4532360000000  0.5547970000000  0.5571170000000 1.0
C      1  0.4381980000000  0.4468380000000  0.5028180000000 1.0
C      1  0.4499580000000  0.4861210000000  0.4271510000000 1.0
C      1  0.4485100000000  0.5532610000000  0.4678730000000 1.0
C      1  0.5259030000000  0.5382250000000  0.5649020000000 1.0
C      1  0.4735660000000  0.4269100000000  0.5185060000000 1.0
C      1  0.5630910000000  0.4717560000000  0.4958940000000 1.0
C      1  0.4909880000000  0.4863560000000  0.5257040000000 1.0
C      1  0.4545970000000  0.4878270000000  0.5651790000000 1.0
C      1  0.5621130000000  0.4597110000000  0.4490280000000 1.0
C      1  0.4613070000000  0.5381940000000  0.4457400000000 1.0
C      1  0.4099330000000  0.4994420000000  0.5038930000000 1.0
C      1  0.4629020000000  0.5745450000000  0.4824960000000 1.0
C      1  0.5685830000000  0.5501450000000  0.4910150000000 1.0
C      1  0.5342150000000  0.5761860000000  0.5292980000000 1.0
C      1  0.5559740000000  0.4305640000000  0.5050070000000 1.0
C      1  0.5198790000000  0.4445000000000  0.4362150000000 1.0
C      1  0.5019400000000  0.4205070000000  0.5165820000000 1.0
C      1  0.4669860000000  0.4748410000000  0.4926910000000 1.0
C      1  0.4439160000000  0.5325140000000  0.4881700000000 1.0
C      1  0.5210110000000  0.5308030000000  0.5119140000000 1.0
C      1  0.4880290000000  0.4846080000000  0.3890840000000 1.0
C      1  0.4319520000000  0.5001010000000  0.4628800000000 1.0
C      1  0.4710990000000  0.4479810000000  0.4259720000000 1.0
END
