TITL C-883732-77-47 64180.0553248668 125000 -21672.1305700779 0 0 142 (C1) n - 1
REM
REM in /home/nfs/bkarasulu/CARBON/AIRSS/Generating-Clusters/ReaxFF-fromJPCA2015/Units_Real/with-SteepDescent/Only-C1/SD-CG/Try1-3A/FIRE-CG
REM
REM
REM
REM
REM
REM ./C.cell (11c1c37f851c82e70ff6c80c92926a4b)
REM
REM compiler GCC version 9.2.1 20190827 (Red Hat 9.2.1-1)
REM options -cpp -mtune=generic -march=x86-64 -g -O0 -fpre-include=/usr/include/finclude/math-vector-fortran.h
REM seed 1280430263 -88259228 2082768003 -814202211 1288318233 140398843 51717063 1464813774 1679632662 -308468477 -588725736 2037384417 1976540502 1995301022 1125936666 800717624 -1451989093 -1828460363 302223053 751920541 2002607082 1300216881 1335313377 2082595591 -883857872 61247638 2094362316 1065187338 -975122603 -1804041534 -1825434754 -886956805 -804476014
REM
CELL 1.54180   50.00000   50.00000   50.00000   90.00000   90.00000   90.00000
LATT -1
SFAC C  
C      1  0.4994720000000  0.5365920000000  0.4936820000000 1.0
C      1  0.4815090000000  0.5752320000000  0.4531560000000 1.0
C      1  0.5749070000000  0.4595070000000  0.5336040000000 1.0
C      1  0.3941670000000  0.4942210000000  0.5539680000000 1.0
C      1  0.5341720000000  0.5281340000000  0.5846480000000 1.0
C      1  0.4968290000000  0.5583260000000  0.5439410000000 1.0
C      1  0.5600580000000  0.4736190000000  0.4256510000000 1.0
C      1  0.4701160000000  0.4564070000000  0.4754710000000 1.0
C      1  0.5791290000000  0.5667860000000  0.5080780000000 1.0
C      1  0.4918010000000  0.4528830000000  0.4131000000000 1.0
C      1  0.4811770000000  0.5104530000000  0.4093870000000 1.0
C      1  0.4147980000000  0.4661300000000  0.4493900000000 1.0
C      1  0.4175670000000  0.4523600000000  0.5515330000000 1.0
C      1  0.5148940000000  0.5103110000000  0.5398840000000 1.0
C      1  0.5074520000000  0.4781810000000  0.4161270000000 1.0
C      1  0.4718270000000  0.5558850000000  0.5298070000000 1.0
C      1  0.4215150000000  0.4830550000000  0.4882380000000 1.0
C      1  0.4477800000000  0.5681920000000  0.5419040000000 1.0
C      1  0.5023080000000  0.5326540000000  0.5562510000000 1.0
C      1  0.5624750000000  0.5529830000000  0.4309170000000 1.0
C      1  0.5781760000000  0.5563210000000  0.4550980000000 1.0
C      1  0.5172630000000  0.5957990000000  0.4897760000000 1.0
C      1  0.5472110000000  0.5953230000000  0.4874790000000 1.0
C      1  0.4653020000000  0.5089490000000  0.4742480000000 1.0
C      1  0.4233860000000  0.4656020000000  0.5773920000000 1.0
C      1  0.4305970000000  0.4991340000000  0.5109610000000 1.0
C      1  0.5570300000000  0.6056020000000  0.5129300000000 1.0
C      1  0.5092300000000  0.5217650000000  0.4499740000000 1.0
C      1  0.5997470000000  0.4676920000000  0.4897800000000 1.0
C      1  0.4666710000000  0.4604960000000  0.4250120000000 1.0
C      1  0.5444980000000  0.5080740000000  0.5412160000000 1.0
C      1  0.4411460000000  0.5817800000000  0.4894040000000 1.0
C      1  0.4861220000000  0.5563190000000  0.4287810000000 1.0
C      1  0.5430300000000  0.5472530000000  0.4793600000000 1.0
C      1  0.4246300000000  0.5183230000000  0.4479640000000 1.0
C      1  0.4910270000000  0.4059360000000  0.5245600000000 1.0
C      1  0.5646000000000  0.5693610000000  0.4801600000000 1.0
C      1  0.5456380000000  0.5012790000000  0.5860340000000 1.0
C      1  0.5842110000000  0.4490960000000  0.5071230000000 1.0
C      1  0.5497550000000  0.5479760000000  0.5672610000000 1.0
C      1  0.4736760000000  0.5479980000000  0.5013700000000 1.0
C      1  0.5099630000000  0.4948580000000  0.4395310000000 1.0
C      1  0.4557790000000  0.4242590000000  0.5549890000000 1.0
C      1  0.4639400000000  0.4904820000000  0.4227010000000 1.0
C      1  0.4227360000000  0.5406490000000  0.4628020000000 1.0
C      1  0.5485210000000  0.4819720000000  0.4839190000000 1.0
C      1  0.4505060000000  0.5889850000000  0.5173090000000 1.0
C      1  0.5649730000000  0.5033150000000  0.4272280000000 1.0
C      1  0.5214340000000  0.4868680000000  0.3920130000000 1.0
C      1  0.4643360000000  0.5700100000000  0.4766360000000 1.0
C      1  0.4372080000000  0.4891930000000  0.5889780000000 1.0
C      1  0.5829500000000  0.4845340000000  0.5450050000000 1.0
C      1  0.4810240000000  0.4740090000000  0.5105810000000 1.0
C      1  0.5412740000000  0.4189020000000  0.5377500000000 1.0
C      1  0.5916780000000  0.5322430000000  0.4634940000000 1.0
C      1  0.5058840000000  0.5977140000000  0.5715100000000 1.0
C      1  0.4658220000000  0.4404590000000  0.5745760000000 1.0
C      1  0.5235570000000  0.4954060000000  0.4858260000000 1.0
C      1  0.4531930000000  0.5114490000000  0.4417490000000 1.0
C      1  0.5687590000000  0.4277730000000  0.4949370000000 1.0
C      1  0.5079530000000  0.4830570000000  0.4646500000000 1.0
C      1  0.4042780000000  0.4595940000000  0.4937200000000 1.0
C      1  0.3923060000000  0.5138780000000  0.5328260000000 1.0
C      1  0.4663340000000  0.4816640000000  0.4869380000000 1.0
C      1  0.5636290000000  0.5799290000000  0.5293710000000 1.0
C      1  0.5088360000000  0.5127690000000  0.3951380000000 1.0
C      1  0.5434530000000  0.4536110000000  0.5729330000000 1.0
C      1  0.4588180000000  0.5073740000000  0.5812840000000 1.0
C      1  0.5045850000000  0.5266510000000  0.5850130000000 1.0
C      1  0.3808100000000  0.4982150000000  0.5088610000000 1.0
C      1  0.5328980000000  0.4266190000000  0.5640930000000 1.0
C      1  0.5330090000000  0.4450660000000  0.4107400000000 1.0
C      1  0.4327600000000  0.5422680000000  0.5475540000000 1.0
C      1  0.5658630000000  0.5039050000000  0.5633720000000 1.0
C      1  0.4867610000000  0.5037520000000  0.5893860000000 1.0
C      1  0.5585860000000  0.5156840000000  0.5187260000000 1.0
C      1  0.5777260000000  0.5091110000000  0.4521480000000 1.0
C      1  0.5979350000000  0.5450730000000  0.5123960000000 1.0
C      1  0.3943360000000  0.4672950000000  0.5415270000000 1.0
C      1  0.5884400000000  0.4679320000000  0.4627050000000 1.0
C      1  0.5038810000000  0.4254270000000  0.5697980000000 1.0
C      1  0.5300990000000  0.4156680000000  0.4625320000000 1.0
C      1  0.5752400000000  0.5350660000000  0.5618760000000 1.0
C      1  0.4580070000000  0.4388370000000  0.4434430000000 1.0
C      1  0.5160430000000  0.4468840000000  0.4897140000000 1.0
C      1  0.5438790000000  0.5694110000000  0.5482960000000 1.0
C      1  0.5314840000000  0.4760720000000  0.5872320000000 1.0
C      1  0.3855560000000  0.4687450000000  0.5141290000000 1.0
C      1  0.4754620000000  0.4097900000000  0.4797530000000 1.0
C      1  0.4543900000000  0.5280240000000  0.4937700000000 1.0
C      1  0.4907570000000  0.4476300000000  0.5837120000000 1.0
C      1  0.4121500000000  0.5349950000000  0.5285230000000 1.0
C      1  0.5389530000000  0.5304230000000  0.5023480000000 1.0
C      1  0.4705120000000  0.5325880000000  0.4237810000000 1.0
C      1  0.4241740000000  0.5611060000000  0.4789660000000 1.0
C      1  0.5894960000000  0.5415130000000  0.5390690000000 1.0
C      1  0.5548280000000  0.4354360000000  0.4658880000000 1.0
C      1  0.4301830000000  0.4435950000000  0.4570350000000 1.0
C      1  0.5414400000000  0.4547610000000  0.4828370000000 1.0
C      1  0.4785540000000  0.4178170000000  0.4524090000000 1.0
C      1  0.5107430000000  0.4298120000000  0.4180400000000 1.0
C      1  0.4085270000000  0.4947370000000  0.4618250000000 1.0
C      1  0.5072000000000  0.4165350000000  0.4447080000000 1.0
C      1  0.4620070000000  0.4327480000000  0.4918920000000 1.0
C      1  0.5542580000000  0.5282490000000  0.4166950000000 1.0
C      1  0.5254390000000  0.4080850000000  0.4898450000000 1.0
C      1  0.4796400000000  0.5919930000000  0.5745900000000 1.0
C      1  0.4844500000000  0.4118610000000  0.5503690000000 1.0
C      1  0.5144300000000  0.5155710000000  0.5058390000000 1.0
C      1  0.5057890000000  0.4595390000000  0.5125200000000 1.0
C      1  0.5013780000000  0.5862050000000  0.4692650000000 1.0
C      1  0.4272050000000  0.5277090000000  0.5036980000000 1.0
C      1  0.5724080000000  0.4896280000000  0.4707050000000 1.0
C      1  0.5002550000000  0.4831590000000  0.5494710000000 1.0
C      1  0.4375820000000  0.4296240000000  0.5078790000000 1.0
C      1  0.4774380000000  0.5954870000000  0.5164450000000 1.0
C      1  0.5126190000000  0.5567710000000  0.4165360000000 1.0
C      1  0.5193390000000  0.4656480000000  0.5356320000000 1.0
C      1  0.4981800000000  0.4558850000000  0.4685440000000 1.0
C      1  0.4973220000000  0.4002020000000  0.4985610000000 1.0
C      1  0.5013110000000  0.4778500000000  0.5825470000000 1.0
C      1  0.5347940000000  0.5633220000000  0.4343980000000 1.0
C      1  0.5474800000000  0.4620450000000  0.5449830000000 1.0
C      1  0.4742210000000  0.4833350000000  0.5354580000000 1.0
C      1  0.4905760000000  0.5231150000000  0.4704300000000 1.0
C      1  0.4545410000000  0.5829080000000  0.5712260000000 1.0
C      1  0.5692970000000  0.4545430000000  0.4461380000000 1.0
C      1  0.5160730000000  0.5817900000000  0.5434300000000 1.0
C      1  0.5285470000000  0.5437560000000  0.4557440000000 1.0
C      1  0.4498500000000  0.4981280000000  0.5345830000000 1.0
C      1  0.5441860000000  0.4685310000000  0.4008640000000 1.0
C      1  0.3845590000000  0.5032610000000  0.4809470000000 1.0
C      1  0.5046180000000  0.5965820000000  0.5175620000000 1.0
C      1  0.5270650000000  0.5333820000000  0.4053160000000 1.0
C      1  0.4486320000000  0.5187070000000  0.5549220000000 1.0
C      1  0.4343140000000  0.4333290000000  0.5372330000000 1.0
C      1  0.5483100000000  0.4137150000000  0.5109050000000 1.0
C      1  0.6020620000000  0.5241620000000  0.4900180000000 1.0
C      1  0.5857860000000  0.5021900000000  0.5218360000000 1.0
C      1  0.6028790000000  0.4962850000000  0.4990090000000 1.0
C      1  0.4204650000000  0.4363410000000  0.4855470000000 1.0
C      1  0.4093890000000  0.4909690000000  0.5792010000000 1.0
END
