TITL C-884142-5251-335 9.150999149119 125000 -6555.55333649045 0 0 44 (C1) n - 1
REM
REM in /home/nfs/bkarasulu/CARBON/AIRSS/Generating-Clusters/ReaxFF-fromJPCA2015/Units_Real/with-SteepDescent/Only-C1/SD-CG/Try1-3A/FIRE-CG
REM
REM
REM
REM
REM
REM ./C.cell (11c1c37f851c82e70ff6c80c92926a4b)
REM
REM compiler GCC version 9.2.1 20190827 (Red Hat 9.2.1-1)
REM options -cpp -mtune=generic -march=x86-64 -g -O0 -fpre-include=/usr/include/finclude/math-vector-fortran.h
REM seed -163925037 1053837933 -1373605168 -956602410 -1896162368 -1667976662 1503580006 226875142 -1582599471 -724730403 -1395600224 -1567141494 -1569945692 -1688863614 -1716015204 786224668 1099475755 1041027721 1970048811 -436365058 318181810 927192474 274013500 1795047332 1582197541 942575704 -1521124451 -787947632 -209313709 -897972459 -1530916875 1234158743 -1063671461
REM
CELL 1.54180   50.00000   50.00000   50.00000   90.00000   90.00000   90.00000
LATT -1
SFAC C  
C      1  0.4800450000000  0.4324740000000  0.4708100000000 1.0
C      1  0.5276160000000  0.5033930000000  0.4444780000000 1.0
C      1  0.5300780000000  0.5471970000000  0.5426600000000 1.0
C      1  0.4559880000000  0.4844260000000  0.4611320000000 1.0
C      1  0.5057530000000  0.5575860000000  0.5329730000000 1.0
C      1  0.4663350000000  0.4411890000000  0.5157840000000 1.0
C      1  0.4432250000000  0.5274310000000  0.4814740000000 1.0
C      1  0.5541820000000  0.5006820000000  0.4538990000000 1.0
C      1  0.4626720000000  0.4676330000000  0.5276330000000 1.0
C      1  0.5060980000000  0.4779130000000  0.5620560000000 1.0
C      1  0.4618460000000  0.5646100000000  0.4782370000000 1.0
C      1  0.5305670000000  0.4719470000000  0.5461780000000 1.0
C      1  0.5507270000000  0.5443720000000  0.4911250000000 1.0
C      1  0.5096420000000  0.4821050000000  0.4542210000000 1.0
C      1  0.4501230000000  0.4589940000000  0.4704500000000 1.0
C      1  0.4774060000000  0.4796770000000  0.5538040000000 1.0
C      1  0.5146780000000  0.5291890000000  0.4517760000000 1.0
C      1  0.5400140000000  0.4976930000000  0.5360180000000 1.0
C      1  0.5066980000000  0.5064650000000  0.5683750000000 1.0
C      1  0.4433580000000  0.4978750000000  0.4863390000000 1.0
C      1  0.4552150000000  0.5548660000000  0.5259160000000 1.0
C      1  0.5287470000000  0.5492850000000  0.4689410000000 1.0
C      1  0.5081080000000  0.4345470000000  0.4729670000000 1.0
C      1  0.5434520000000  0.5473980000000  0.5172320000000 1.0
C      1  0.5366350000000  0.4706330000000  0.4962850000000 1.0
C      1  0.5340540000000  0.4548620000000  0.5221500000000 1.0
C      1  0.5686690000000  0.5033220000000  0.4717470000000 1.0
C      1  0.4433900000000  0.5521100000000  0.4987660000000 1.0
C      1  0.4628070000000  0.5392620000000  0.4632830000000 1.0
C      1  0.4903340000000  0.4244900000000  0.5204080000000 1.0
C      1  0.5280390000000  0.5182740000000  0.5522310000000 1.0
C      1  0.4830560000000  0.4944760000000  0.4531960000000 1.0
C      1  0.4569190000000  0.4367710000000  0.4872680000000 1.0
C      1  0.4827800000000  0.5673800000000  0.5220810000000 1.0
C      1  0.4755110000000  0.5075910000000  0.5634590000000 1.0
C      1  0.5202540000000  0.4628880000000  0.4738580000000 1.0
C      1  0.4861280000000  0.5231980000000  0.4535030000000 1.0
C      1  0.4528160000000  0.4842670000000  0.5086850000000 1.0
C      1  0.4866760000000  0.5735850000000  0.4913020000000 1.0
C      1  0.5470530000000  0.4961700000000  0.5068400000000 1.0
C      1  0.5071960000000  0.4140910000000  0.4958640000000 1.0
C      1  0.5643660000000  0.5177530000000  0.4957560000000 1.0
C      1  0.5079800000000  0.5612790000000  0.4799780000000 1.0
C      1  0.5127640000000  0.4386520000000  0.5288630000000 1.0
END
