TITL C-883733-4178-250 27.372685983625 125000 -13595.0535006165 0 0 92 (C1) n - 1
REM
REM in /home/nfs/bkarasulu/CARBON/AIRSS/Generating-Clusters/ReaxFF-fromJPCA2015/Units_Real/with-SteepDescent/Only-C1/SD-CG/Try1-3A/FIRE-CG
REM
REM
REM
REM
REM
REM ./C.cell (11c1c37f851c82e70ff6c80c92926a4b)
REM
REM compiler GCC version 9.2.1 20190827 (Red Hat 9.2.1-1)
REM options -cpp -mtune=generic -march=x86-64 -g -O0 -fpre-include=/usr/include/finclude/math-vector-fortran.h
REM seed 2114798778 887239849 -1926422723 -88431347 -1296782828 -909884963 -1334098950 -1810923652 -1172290691 2063938915 -1842529158 1575532505 295565925 169606422 761002901 185168893 -850666999 -2120044394 -1834549229 -1995917464 -557219179 1782243017 840940325 1914313701 -1472282907 -1351168011 -782939659 640337828 -1379788254 -876581582 -1942914409 -1433361280 -1586043564
REM
CELL 1.54180   50.00000   50.00000   50.00000   90.00000   90.00000   90.00000
LATT -1
SFAC C  
C      1  0.4300740000000  0.4961620000000  0.5529950000000 1.0
C      1  0.5257190000000  0.4924070000000  0.5708140000000 1.0
C      1  0.4703390000000  0.4348290000000  0.4564070000000 1.0
C      1  0.4518160000000  0.5281800000000  0.5355590000000 1.0
C      1  0.4380930000000  0.5512280000000  0.5017360000000 1.0
C      1  0.4196080000000  0.4885940000000  0.4629400000000 1.0
C      1  0.4476500000000  0.5175360000000  0.5631220000000 1.0
C      1  0.4165540000000  0.5044650000000  0.5278110000000 1.0
C      1  0.5833830000000  0.4822580000000  0.5234650000000 1.0
C      1  0.5201870000000  0.4077510000000  0.5191120000000 1.0
C      1  0.5515250000000  0.4755630000000  0.4411230000000 1.0
C      1  0.5255170000000  0.5206600000000  0.5774810000000 1.0
C      1  0.5414410000000  0.4824700000000  0.4847550000000 1.0
C      1  0.4726720000000  0.5250900000000  0.4844010000000 1.0
C      1  0.4544970000000  0.4791610000000  0.5457270000000 1.0
C      1  0.4952880000000  0.4321630000000  0.4409910000000 1.0
C      1  0.5841600000000  0.4644760000000  0.5048400000000 1.0
C      1  0.5256420000000  0.5137640000000  0.4516030000000 1.0
C      1  0.5446180000000  0.4605360000000  0.5532500000000 1.0
C      1  0.4946440000000  0.5037880000000  0.5328980000000 1.0
C      1  0.4769230000000  0.5147420000000  0.4346910000000 1.0
C      1  0.4930720000000  0.5395390000000  0.4991150000000 1.0
C      1  0.5115720000000  0.4853110000000  0.5143700000000 1.0
C      1  0.4994400000000  0.5316100000000  0.5263450000000 1.0
C      1  0.4657490000000  0.5537300000000  0.5393950000000 1.0
C      1  0.4942240000000  0.4556840000000  0.5686470000000 1.0
C      1  0.4719910000000  0.4871240000000  0.4457710000000 1.0
C      1  0.5752790000000  0.4484220000000  0.4836410000000 1.0
C      1  0.4974280000000  0.5544060000000  0.4350690000000 1.0
C      1  0.4678570000000  0.4773600000000  0.4726310000000 1.0
C      1  0.5709240000000  0.5218980000000  0.4625630000000 1.0
C      1  0.4884820000000  0.6047820000000  0.4726560000000 1.0
C      1  0.5284390000000  0.4575910000000  0.4344990000000 1.0
C      1  0.5569610000000  0.4262120000000  0.4908500000000 1.0
C      1  0.4727870000000  0.5119840000000  0.5774150000000 1.0
C      1  0.4730570000000  0.5789310000000  0.4655990000000 1.0
C      1  0.4986520000000  0.5866500000000  0.5184340000000 1.0
C      1  0.4285160000000  0.4642130000000  0.4496810000000 1.0
C      1  0.4571660000000  0.5364590000000  0.4394210000000 1.0
C      1  0.4709700000000  0.5741820000000  0.5185590000000 1.0
C      1  0.5488030000000  0.5272700000000  0.5622100000000 1.0
C      1  0.5266020000000  0.5768180000000  0.5233200000000 1.0
C      1  0.4523320000000  0.4498730000000  0.4394730000000 1.0
C      1  0.4697600000000  0.4488430000000  0.4833140000000 1.0
C      1  0.5002620000000  0.4925050000000  0.5572720000000 1.0
C      1  0.4570230000000  0.5711820000000  0.4934560000000 1.0
C      1  0.5135600000000  0.5528420000000  0.4827430000000 1.0
C      1  0.5538440000000  0.5045930000000  0.4444260000000 1.0
C      1  0.5180840000000  0.4904350000000  0.4697250000000 1.0
C      1  0.5350290000000  0.5348540000000  0.4773200000000 1.0
C      1  0.5720240000000  0.5207890000000  0.5166320000000 1.0
C      1  0.5003220000000  0.4550560000000  0.4230080000000 1.0
C      1  0.5243680000000  0.4322200000000  0.4485850000000 1.0
C      1  0.4693300000000  0.5627680000000  0.4383630000000 1.0
C      1  0.4825610000000  0.4389690000000  0.5472270000000 1.0
C      1  0.5353900000000  0.4456490000000  0.5302030000000 1.0
C      1  0.5820550000000  0.5151000000000  0.4890130000000 1.0
C      1  0.4500440000000  0.5298990000000  0.4670660000000 1.0
C      1  0.5382230000000  0.5482390000000  0.5503870000000 1.0
C      1  0.4226760000000  0.4572130000000  0.5015300000000 1.0
C      1  0.5436060000000  0.5269460000000  0.5077710000000 1.0
C      1  0.4277910000000  0.5135740000000  0.4765490000000 1.0
C      1  0.5076940000000  0.6017320000000  0.4957770000000 1.0
C      1  0.4962090000000  0.5287480000000  0.5743210000000 1.0
C      1  0.4647230000000  0.5019810000000  0.5264350000000 1.0
C      1  0.5463480000000  0.4211190000000  0.5177110000000 1.0
C      1  0.4995270000000  0.4930790000000  0.4910320000000 1.0
C      1  0.5035560000000  0.5683090000000  0.4602130000000 1.0
C      1  0.4587010000000  0.4510100000000  0.5339990000000 1.0
C      1  0.4916010000000  0.5455390000000  0.5505300000000 1.0
C      1  0.5224860000000  0.4633600000000  0.5715530000000 1.0
C      1  0.4252330000000  0.5241970000000  0.5038590000000 1.0
C      1  0.4174890000000  0.4793880000000  0.5180100000000 1.0
C      1  0.5364340000000  0.5504040000000  0.5270040000000 1.0
C      1  0.5363820000000  0.5894110000000  0.4980500000000 1.0
C      1  0.5580020000000  0.4859590000000  0.5376770000000 1.0
C      1  0.5135630000000  0.4565390000000  0.5153530000000 1.0
C      1  0.4716350000000  0.4978130000000  0.4926760000000 1.0
C      1  0.5127560000000  0.4125470000000  0.4912640000000 1.0
C      1  0.5580710000000  0.5498350000000  0.4651990000000 1.0
C      1  0.5503160000000  0.5721670000000  0.4802630000000 1.0
C      1  0.4148030000000  0.4636830000000  0.4735300000000 1.0
C      1  0.5397280000000  0.4950830000000  0.5116130000000 1.0
C      1  0.5623270000000  0.4707240000000  0.4680890000000 1.0
C      1  0.4496300000000  0.4466600000000  0.5071600000000 1.0
C      1  0.4969100000000  0.4373670000000  0.5015850000000 1.0
C      1  0.4730770000000  0.4659860000000  0.4257400000000 1.0
C      1  0.4950680000000  0.4208800000000  0.5278520000000 1.0
C      1  0.5346070000000  0.4196030000000  0.4733960000000 1.0
C      1  0.5031020000000  0.5257660000000  0.4338980000000 1.0
C      1  0.4764170000000  0.4814000000000  0.5707300000000 1.0
C      1  0.5669980000000  0.5121600000000  0.5455020000000 1.0
END
