TITL C-883740-3686-292 5.15013259376596 125000 -22229.6649214718 0 0 150 (C1) n - 1
REM
REM in /home/nfs/bkarasulu/CARBON/AIRSS/Generating-Clusters/ReaxFF-fromJPCA2015/Units_Real/with-SteepDescent/Only-C1/SD-CG/Try1-3A/FIRE-CG
REM
REM
REM
REM
REM
REM ./C.cell (11c1c37f851c82e70ff6c80c92926a4b)
REM
REM compiler GCC version 9.2.1 20190827 (Red Hat 9.2.1-1)
REM options -cpp -mtune=generic -march=x86-64 -g -O0 -fpre-include=/usr/include/finclude/math-vector-fortran.h
REM seed -1988442860 327562993 -464073826 -1523395031 495188701 1834778529 1472431378 259987753 889316752 1666854598 1497756723 1987558182 -930820070 -1535247038 -148957769 333632522 -2060651140 349756812 218321338 -589757474 -10197520 966338190 -216587362 -102536424 33263231 -374568128 -359868901 -605082855 -945649203 -766448887 984735388 1167764763 2040585835
REM
CELL 1.54180   50.00000   50.00000   50.00000   90.00000   90.00000   90.00000
LATT -1
SFAC C  
C      1  0.4432670000000  0.4195410000000  0.5226320000000 1.0
C      1  0.3866950000000  0.5016520000000  0.5027640000000 1.0
C      1  0.5012760000000  0.4894470000000  0.5307480000000 1.0
C      1  0.5576540000000  0.4246050000000  0.5459090000000 1.0
C      1  0.4290050000000  0.5338540000000  0.5710310000000 1.0
C      1  0.4352350000000  0.5957320000000  0.4755640000000 1.0
C      1  0.4285240000000  0.5430170000000  0.5181670000000 1.0
C      1  0.5664640000000  0.5050570000000  0.5111100000000 1.0
C      1  0.5856770000000  0.5367200000000  0.5318440000000 1.0
C      1  0.5026140000000  0.4392860000000  0.4223310000000 1.0
C      1  0.4950810000000  0.6083100000000  0.5152470000000 1.0
C      1  0.5537090000000  0.4511310000000  0.4171370000000 1.0
C      1  0.5654730000000  0.5158310000000  0.4604110000000 1.0
C      1  0.4203090000000  0.4511040000000  0.4589630000000 1.0
C      1  0.5133610000000  0.4620210000000  0.6034140000000 1.0
C      1  0.4479720000000  0.4121530000000  0.4590340000000 1.0
C      1  0.5153150000000  0.4729050000000  0.4631400000000 1.0
C      1  0.4385580000000  0.5087530000000  0.5817550000000 1.0
C      1  0.4116540000000  0.5113050000000  0.4301890000000 1.0
C      1  0.6044950000000  0.4982860000000  0.4562060000000 1.0
C      1  0.6031460000000  0.5384060000000  0.4940910000000 1.0
C      1  0.4814710000000  0.5314800000000  0.5350470000000 1.0
C      1  0.4904420000000  0.5439320000000  0.4799100000000 1.0
C      1  0.3833950000000  0.4541680000000  0.5231600000000 1.0
C      1  0.5302960000000  0.5144440000000  0.3959350000000 1.0
C      1  0.4509430000000  0.4850520000000  0.5851800000000 1.0
C      1  0.5163430000000  0.5327860000000  0.4377010000000 1.0
C      1  0.5060720000000  0.6036800000000  0.5395920000000 1.0
C      1  0.5403160000000  0.4868620000000  0.3957930000000 1.0
C      1  0.5707000000000  0.5645060000000  0.4926400000000 1.0
C      1  0.4726410000000  0.5619080000000  0.4189890000000 1.0
C      1  0.4948670000000  0.5260790000000  0.6147540000000 1.0
C      1  0.4958830000000  0.4999420000000  0.6000730000000 1.0
C      1  0.6032470000000  0.4859880000000  0.5141390000000 1.0
C      1  0.5048220000000  0.5580540000000  0.5676540000000 1.0
C      1  0.4800770000000  0.5443730000000  0.5990400000000 1.0
C      1  0.3831760000000  0.5314870000000  0.5065330000000 1.0
C      1  0.4469800000000  0.5574610000000  0.5641430000000 1.0
C      1  0.4539150000000  0.5239650000000  0.3951540000000 1.0
C      1  0.5223420000000  0.5604680000000  0.5917280000000 1.0
C      1  0.5447810000000  0.5422080000000  0.5956460000000 1.0
C      1  0.6069820000000  0.5141360000000  0.4812660000000 1.0
C      1  0.5381540000000  0.4823100000000  0.4491860000000 1.0
C      1  0.4224580000000  0.4786870000000  0.5302620000000 1.0
C      1  0.5777940000000  0.5079500000000  0.4848800000000 1.0
C      1  0.4049780000000  0.5498400000000  0.4990890000000 1.0
C      1  0.3978800000000  0.4950000000000  0.4776780000000 1.0
C      1  0.5574450000000  0.5293980000000  0.5730820000000 1.0
C      1  0.5487930000000  0.4781590000000  0.5856310000000 1.0
C      1  0.4403060000000  0.4620560000000  0.5457640000000 1.0
C      1  0.5048010000000  0.4785360000000  0.5573780000000 1.0
C      1  0.4537520000000  0.5024190000000  0.4978070000000 1.0
C      1  0.4453630000000  0.5294550000000  0.4922070000000 1.0
C      1  0.5039170000000  0.5024790000000  0.5728180000000 1.0
C      1  0.5532260000000  0.5272490000000  0.4079340000000 1.0
C      1  0.4712850000000  0.5572000000000  0.5230800000000 1.0
C      1  0.5646030000000  0.4677310000000  0.4572380000000 1.0
C      1  0.3935670000000  0.4821250000000  0.5255990000000 1.0
C      1  0.5379490000000  0.4534220000000  0.5928660000000 1.0
C      1  0.4854720000000  0.6050060000000  0.4889380000000 1.0
C      1  0.5135180000000  0.4109550000000  0.5643080000000 1.0
C      1  0.5199280000000  0.5417000000000  0.6136100000000 1.0
C      1  0.5476610000000  0.5557350000000  0.4195370000000 1.0
C      1  0.5281000000000  0.4417630000000  0.4625240000000 1.0
C      1  0.4109530000000  0.5514090000000  0.4700230000000 1.0
C      1  0.5392070000000  0.4486290000000  0.5111440000000 1.0
C      1  0.4358890000000  0.5206280000000  0.4667410000000 1.0
C      1  0.4773890000000  0.5068130000000  0.4490680000000 1.0
C      1  0.5650510000000  0.5462300000000  0.5495050000000 1.0
C      1  0.4590110000000  0.5665820000000  0.4441340000000 1.0
C      1  0.4819870000000  0.4804410000000  0.4587850000000 1.0
C      1  0.5407320000000  0.5162540000000  0.5156760000000 1.0
C      1  0.4688250000000  0.4600970000000  0.5047110000000 1.0
C      1  0.4787060000000  0.5367560000000  0.4037540000000 1.0
C      1  0.5405350000000  0.5310700000000  0.4622740000000 1.0
C      1  0.5041610000000  0.5183430000000  0.4111560000000 1.0
C      1  0.5165060000000  0.4046490000000  0.5363260000000 1.0
C      1  0.5719050000000  0.5053610000000  0.4137600000000 1.0
C      1  0.4765200000000  0.4015700000000  0.4866710000000 1.0
C      1  0.5336990000000  0.4330730000000  0.5676460000000 1.0
C      1  0.5106040000000  0.4512860000000  0.5621790000000 1.0
C      1  0.5616460000000  0.4993700000000  0.5741310000000 1.0
C      1  0.5406910000000  0.5709960000000  0.4471390000000 1.0
C      1  0.4301200000000  0.5225420000000  0.5430990000000 1.0
C      1  0.5790030000000  0.4577000000000  0.5516580000000 1.0
C      1  0.4264870000000  0.4244870000000  0.4724840000000 1.0
C      1  0.5132220000000  0.5819450000000  0.4525840000000 1.0
C      1  0.5315410000000  0.4378940000000  0.4313150000000 1.0
C      1  0.5479880000000  0.4098260000000  0.4984350000000 1.0
C      1  0.4453970000000  0.5618840000000  0.5351860000000 1.0
C      1  0.4940290000000  0.4219980000000  0.5257880000000 1.0
C      1  0.5194780000000  0.5571890000000  0.4141240000000 1.0
C      1  0.5544300000000  0.5568960000000  0.4683020000000 1.0
C      1  0.4806180000000  0.4298100000000  0.4386850000000 1.0
C      1  0.5213010000000  0.5103760000000  0.5361640000000 1.0
C      1  0.5981320000000  0.4643710000000  0.4947960000000 1.0
C      1  0.5847210000000  0.5120150000000  0.4391200000000 1.0
C      1  0.4914920000000  0.4304040000000  0.5589440000000 1.0
C      1  0.4201270000000  0.4830860000000  0.4262940000000 1.0
C      1  0.4749430000000  0.4057500000000  0.4565060000000 1.0
C      1  0.5112220000000  0.5636790000000  0.5160190000000 1.0
C      1  0.4587710000000  0.5199820000000  0.5472030000000 1.0
C      1  0.5476130000000  0.4671120000000  0.5286590000000 1.0
C      1  0.5652050000000  0.4760460000000  0.4060570000000 1.0
C      1  0.5537230000000  0.5783930000000  0.5120300000000 1.0
C      1  0.4693960000000  0.4076420000000  0.5140580000000 1.0
C      1  0.4084280000000  0.5193590000000  0.4594500000000 1.0
C      1  0.4638060000000  0.4608860000000  0.5881250000000 1.0
C      1  0.4633930000000  0.4737910000000  0.5309580000000 1.0
C      1  0.4026240000000  0.4469970000000  0.5006310000000 1.0
C      1  0.4664750000000  0.4808360000000  0.4846740000000 1.0
C      1  0.4933810000000  0.5290260000000  0.4547210000000 1.0
C      1  0.4640130000000  0.4381990000000  0.5690700000000 1.0
C      1  0.4947880000000  0.4472070000000  0.5063260000000 1.0
C      1  0.5699630000000  0.4261700000000  0.4875500000000 1.0
C      1  0.5441690000000  0.4067390000000  0.5277070000000 1.0
C      1  0.4871470000000  0.4635750000000  0.4146560000000 1.0
C      1  0.4664230000000  0.5561100000000  0.4927890000000 1.0
C      1  0.4678080000000  0.4582110000000  0.4374900000000 1.0
C      1  0.5067680000000  0.5375870000000  0.5023740000000 1.0
C      1  0.4617630000000  0.5872740000000  0.4857270000000 1.0
C      1  0.5878450000000  0.5038210000000  0.5330230000000 1.0
C      1  0.5201360000000  0.4870250000000  0.4860730000000 1.0
C      1  0.5115300000000  0.5958880000000  0.4780790000000 1.0
C      1  0.5196440000000  0.5733620000000  0.5440540000000 1.0
C      1  0.5287110000000  0.4825100000000  0.4219400000000 1.0
C      1  0.4859780000000  0.5779800000000  0.4398930000000 1.0
C      1  0.4521320000000  0.5153860000000  0.4458040000000 1.0
C      1  0.5073130000000  0.4742360000000  0.5073540000000 1.0
C      1  0.5912880000000  0.4741440000000  0.4663680000000 1.0
C      1  0.5023500000000  0.4882270000000  0.4118020000000 1.0
C      1  0.4319170000000  0.5695160000000  0.4599510000000 1.0
C      1  0.4869390000000  0.4715470000000  0.6055610000000 1.0
C      1  0.5495500000000  0.5687540000000  0.5390780000000 1.0
C      1  0.4733870000000  0.5595580000000  0.5776520000000 1.0
C      1  0.4435790000000  0.4332980000000  0.5489320000000 1.0
C      1  0.5794290000000  0.4384330000000  0.5358300000000 1.0
C      1  0.4361530000000  0.4604250000000  0.4362740000000 1.0
C      1  0.5692940000000  0.4814020000000  0.5508660000000 1.0
C      1  0.5908730000000  0.5517460000000  0.5090780000000 1.0
C      1  0.5853160000000  0.4407360000000  0.5067560000000 1.0
C      1  0.4048680000000  0.4671730000000  0.4773130000000 1.0
C      1  0.5583760000000  0.4404760000000  0.4637910000000 1.0
C      1  0.5277120000000  0.4303870000000  0.4916710000000 1.0
C      1  0.4374480000000  0.5218200000000  0.4213290000000 1.0
C      1  0.5267940000000  0.5837380000000  0.5009370000000 1.0
C      1  0.5060480000000  0.5269400000000  0.5553090000000 1.0
C      1  0.4448740000000  0.4934580000000  0.5216210000000 1.0
C      1  0.5268890000000  0.5180270000000  0.4896050000000 1.0
C      1  0.4235730000000  0.4261650000000  0.5022890000000 1.0
END
