TITL C-883729-9652-209 2.71803527184142 125000 -25441.9704815307 0 0 171 (C1) n - 1
REM
REM in /home/nfs/bkarasulu/CARBON/AIRSS/Generating-Clusters/ReaxFF-fromJPCA2015/Units_Real/with-SteepDescent/Only-C1/SD-CG/Try1-3A/FIRE-CG
REM
REM
REM
REM
REM
REM ./C.cell (11c1c37f851c82e70ff6c80c92926a4b)
REM
REM compiler GCC version 9.2.1 20190827 (Red Hat 9.2.1-1)
REM options -cpp -mtune=generic -march=x86-64 -g -O0 -fpre-include=/usr/include/finclude/math-vector-fortran.h
REM seed 1016376201 -973236449 -273461462 -1859857919 1596182972 -590795712 948288563 -1954795479 -823489042 910198714 1100111494 -1593246219 -170826219 1696458385 1579473577 -1341076526 -1499441974 1028094455 -258221779 -271038645 766915338 866179295 1829297322 1216923852 1787596984 982850083 -1286045235 1903855842 1049914221 1621778424 -1251165535 -867693303 -301531834
REM
CELL 1.54180   50.00000   50.00000   50.00000   90.00000   90.00000   90.00000
LATT -1
SFAC C  
C      1  0.4046680000000  0.5365440000000  0.4808890000000 1.0
C      1  0.4803450000000  0.5076310000000  0.5829840000000 1.0
C      1  0.5363610000000  0.5626430000000  0.4182160000000 1.0
C      1  0.5095660000000  0.5936290000000  0.4612120000000 1.0
C      1  0.3969820000000  0.4605110000000  0.5314900000000 1.0
C      1  0.4491770000000  0.5105850000000  0.4189210000000 1.0
C      1  0.5175400000000  0.4775830000000  0.5737180000000 1.0
C      1  0.4884600000000  0.4779250000000  0.4100880000000 1.0
C      1  0.4310930000000  0.4197650000000  0.5071310000000 1.0
C      1  0.5472860000000  0.4126370000000  0.5112460000000 1.0
C      1  0.5404750000000  0.5532320000000  0.5883350000000 1.0
C      1  0.4779490000000  0.4728900000000  0.6080450000000 1.0
C      1  0.5453090000000  0.5246360000000  0.4547470000000 1.0
C      1  0.5177570000000  0.5307320000000  0.4436100000000 1.0
C      1  0.4300060000000  0.4948960000000  0.4724270000000 1.0
C      1  0.5027720000000  0.4840180000000  0.5216910000000 1.0
C      1  0.5346340000000  0.5217730000000  0.5348760000000 1.0
C      1  0.4660960000000  0.5554260000000  0.5847900000000 1.0
C      1  0.5007230000000  0.5243700000000  0.5763750000000 1.0
C      1  0.5641840000000  0.4469920000000  0.4293520000000 1.0
C      1  0.4641160000000  0.4608320000000  0.4710280000000 1.0
C      1  0.4757680000000  0.5782140000000  0.5667160000000 1.0
C      1  0.5365030000000  0.4834750000000  0.3901460000000 1.0
C      1  0.6021060000000  0.4625660000000  0.4626410000000 1.0
C      1  0.5416140000000  0.4531240000000  0.3907360000000 1.0
C      1  0.4951530000000  0.4153390000000  0.5852100000000 1.0
C      1  0.5183250000000  0.5978380000000  0.5494410000000 1.0
C      1  0.4289910000000  0.4206700000000  0.5370960000000 1.0
C      1  0.4879810000000  0.4937550000000  0.5003240000000 1.0
C      1  0.5053480000000  0.5512860000000  0.5367750000000 1.0
C      1  0.4385880000000  0.4664900000000  0.4278390000000 1.0
C      1  0.4910020000000  0.5584560000000  0.5144650000000 1.0
C      1  0.5255860000000  0.4157390000000  0.4257350000000 1.0
C      1  0.5731650000000  0.5337880000000  0.4447620000000 1.0
C      1  0.4079370000000  0.5605950000000  0.4962230000000 1.0
C      1  0.5905160000000  0.5407700000000  0.5110680000000 1.0
C      1  0.4981500000000  0.4844580000000  0.4738330000000 1.0
C      1  0.5492140000000  0.4021690000000  0.4826380000000 1.0
C      1  0.4928350000000  0.5494610000000  0.5939130000000 1.0
C      1  0.5521030000000  0.4951230000000  0.4371630000000 1.0
C      1  0.5548050000000  0.4680800000000  0.4494530000000 1.0
C      1  0.5151640000000  0.4361340000000  0.5930900000000 1.0
C      1  0.4212790000000  0.4472670000000  0.5503480000000 1.0
C      1  0.5165500000000  0.5671430000000  0.5930360000000 1.0
C      1  0.4519450000000  0.4636700000000  0.4511470000000 1.0
C      1  0.6032680000000  0.4910300000000  0.4641310000000 1.0
C      1  0.4966480000000  0.5282350000000  0.4615650000000 1.0
C      1  0.4258470000000  0.5212680000000  0.4338630000000 1.0
C      1  0.4610010000000  0.4478200000000  0.5195360000000 1.0
C      1  0.6114520000000  0.5161070000000  0.5445900000000 1.0
C      1  0.4792630000000  0.5047720000000  0.4572860000000 1.0
C      1  0.5138700000000  0.5200200000000  0.3939700000000 1.0
C      1  0.5042500000000  0.5847880000000  0.5715690000000 1.0
C      1  0.4898960000000  0.4710760000000  0.5615910000000 1.0
C      1  0.5016710000000  0.5826990000000  0.4845700000000 1.0
C      1  0.5053420000000  0.4566310000000  0.4209090000000 1.0
C      1  0.4687280000000  0.3968700000000  0.5273740000000 1.0
C      1  0.5577450000000  0.5681270000000  0.5445690000000 1.0
C      1  0.5272790000000  0.5085580000000  0.4916460000000 1.0
C      1  0.5510170000000  0.5010620000000  0.4086620000000 1.0
C      1  0.5094310000000  0.4555400000000  0.5197380000000 1.0
C      1  0.4265780000000  0.5782420000000  0.4822820000000 1.0
C      1  0.5716270000000  0.4887010000000  0.5154460000000 1.0
C      1  0.3781410000000  0.4530480000000  0.5159170000000 1.0
C      1  0.5781630000000  0.5536910000000  0.5596490000000 1.0
C      1  0.4211760000000  0.5028660000000  0.5313750000000 1.0
C      1  0.5225530000000  0.3965090000000  0.4827660000000 1.0
C      1  0.4248810000000  0.4304430000000  0.4578300000000 1.0
C      1  0.4773840000000  0.5024060000000  0.4270520000000 1.0
C      1  0.5269610000000  0.4955360000000  0.5314750000000 1.0
C      1  0.4625770000000  0.4330130000000  0.4227360000000 1.0
C      1  0.4474360000000  0.5971610000000  0.4927540000000 1.0
C      1  0.5131220000000  0.4466220000000  0.4923320000000 1.0
C      1  0.5099810000000  0.5305750000000  0.4861870000000 1.0
C      1  0.5790040000000  0.5637320000000  0.5001940000000 1.0
C      1  0.4217700000000  0.4704170000000  0.4907480000000 1.0
C      1  0.5024380000000  0.4432180000000  0.4454110000000 1.0
C      1  0.5341200000000  0.5410270000000  0.3972400000000 1.0
C      1  0.5966200000000  0.5410900000000  0.5422140000000 1.0
C      1  0.3944880000000  0.4909060000000  0.5697530000000 1.0
C      1  0.4124710000000  0.5155490000000  0.4610610000000 1.0
C      1  0.4506360000000  0.4181170000000  0.4422460000000 1.0
C      1  0.4724780000000  0.4484050000000  0.5597700000000 1.0
C      1  0.4725070000000  0.3971780000000  0.4799020000000 1.0
C      1  0.4707650000000  0.5696010000000  0.4277530000000 1.0
C      1  0.4713090000000  0.5023180000000  0.6099460000000 1.0
C      1  0.5040070000000  0.4622240000000  0.5994350000000 1.0
C      1  0.5990960000000  0.4820290000000  0.5241650000000 1.0
C      1  0.4979780000000  0.3952170000000  0.4942190000000 1.0
C      1  0.5673120000000  0.4494220000000  0.4012700000000 1.0
C      1  0.4882730000000  0.5919060000000  0.4275800000000 1.0
C      1  0.5054040000000  0.6050500000000  0.5035370000000 1.0
C      1  0.4960590000000  0.6024630000000  0.5311780000000 1.0
C      1  0.5560450000000  0.5822620000000  0.4605590000000 1.0
C      1  0.4527510000000  0.4668490000000  0.4992780000000 1.0
C      1  0.4622960000000  0.4582110000000  0.4109120000000 1.0
C      1  0.4516190000000  0.5804010000000  0.5192700000000 1.0
C      1  0.4707130000000  0.4208960000000  0.5693770000000 1.0
C      1  0.5284230000000  0.4836620000000  0.4764350000000 1.0
C      1  0.4790720000000  0.5486060000000  0.4114350000000 1.0
C      1  0.4203770000000  0.5380390000000  0.5673320000000 1.0
C      1  0.4437620000000  0.5352200000000  0.5861370000000 1.0
C      1  0.5626940000000  0.5388150000000  0.5821940000000 1.0
C      1  0.5271170000000  0.5057260000000  0.5798590000000 1.0
C      1  0.5279840000000  0.4092380000000  0.5332520000000 1.0
C      1  0.4675850000000  0.4892650000000  0.5651610000000 1.0
C      1  0.4900030000000  0.5321130000000  0.5489270000000 1.0
C      1  0.5316910000000  0.4718690000000  0.5467730000000 1.0
C      1  0.4621370000000  0.4917910000000  0.5095140000000 1.0
C      1  0.4294780000000  0.4827810000000  0.5939660000000 1.0
C      1  0.4215710000000  0.5535430000000  0.5449570000000 1.0
C      1  0.4429470000000  0.5602440000000  0.4680590000000 1.0
C      1  0.4942980000000  0.4547590000000  0.4707730000000 1.0
C      1  0.5502540000000  0.5234120000000  0.4844730000000 1.0
C      1  0.4530200000000  0.5364030000000  0.4057240000000 1.0
C      1  0.5214030000000  0.4379600000000  0.4067190000000 1.0
C      1  0.5580100000000  0.5617250000000  0.4410790000000 1.0
C      1  0.4856780000000  0.6074830000000  0.4538750000000 1.0
C      1  0.4453040000000  0.5657840000000  0.4407160000000 1.0
C      1  0.4658170000000  0.6038160000000  0.4731920000000 1.0
C      1  0.5021010000000  0.4144960000000  0.4433570000000 1.0
C      1  0.4068850000000  0.5145100000000  0.5535960000000 1.0
C      1  0.4438860000000  0.5092700000000  0.6001070000000 1.0
C      1  0.4308990000000  0.5476810000000  0.4223420000000 1.0
C      1  0.4125730000000  0.4684760000000  0.5743670000000 1.0
C      1  0.5090720000000  0.4914180000000  0.3910140000000 1.0
C      1  0.5354950000000  0.6022040000000  0.4655370000000 1.0
C      1  0.4744990000000  0.4046240000000  0.4513430000000 1.0
C      1  0.4227370000000  0.4384530000000  0.4861780000000 1.0
C      1  0.4659830000000  0.5292350000000  0.5343820000000 1.0
C      1  0.4082400000000  0.4829770000000  0.5148250000000 1.0
C      1  0.5969320000000  0.5180930000000  0.4653320000000 1.0
C      1  0.4871950000000  0.4369800000000  0.5221760000000 1.0
C      1  0.5427390000000  0.4379430000000  0.5785870000000 1.0
C      1  0.5746670000000  0.4637400000000  0.4690440000000 1.0
C      1  0.4531940000000  0.5124500000000  0.4733810000000 1.0
C      1  0.5684610000000  0.5847630000000  0.4902350000000 1.0
C      1  0.5596970000000  0.4736020000000  0.5404190000000 1.0
C      1  0.6150050000000  0.5055440000000  0.5159270000000 1.0
C      1  0.4228160000000  0.5690230000000  0.5226520000000 1.0
C      1  0.5109890000000  0.5576630000000  0.4943090000000 1.0
C      1  0.5322000000000  0.6118540000000  0.4933340000000 1.0
C      1  0.4551480000000  0.4702230000000  0.5896320000000 1.0
C      1  0.5525420000000  0.6012040000000  0.5106160000000 1.0
C      1  0.5618350000000  0.4590860000000  0.5811880000000 1.0
C      1  0.5714710000000  0.5127250000000  0.4240160000000 1.0
C      1  0.4525210000000  0.5026830000000  0.5354200000000 1.0
C      1  0.5436410000000  0.4265910000000  0.5503020000000 1.0
C      1  0.5540110000000  0.5100520000000  0.5791980000000 1.0
C      1  0.4705690000000  0.5897590000000  0.5403340000000 1.0
C      1  0.6095510000000  0.5216290000000  0.4915890000000 1.0
C      1  0.5657800000000  0.4178550000000  0.4627740000000 1.0
C      1  0.5591930000000  0.4451790000000  0.5334020000000 1.0
C      1  0.4626970000000  0.5479590000000  0.5110990000000 1.0
C      1  0.4538880000000  0.4007820000000  0.5023170000000 1.0
C      1  0.5733850000000  0.4849520000000  0.5703240000000 1.0
C      1  0.5529050000000  0.4206200000000  0.4374860000000 1.0
C      1  0.4525590000000  0.4073200000000  0.5487900000000 1.0
C      1  0.4976210000000  0.4082020000000  0.5245280000000 1.0
C      1  0.5526290000000  0.4411910000000  0.5066070000000 1.0
C      1  0.4984530000000  0.5268350000000  0.4203510000000 1.0
C      1  0.4531620000000  0.5397050000000  0.4837350000000 1.0
C      1  0.5852590000000  0.4384760000000  0.4702720000000 1.0
C      1  0.4146070000000  0.4474230000000  0.4370280000000 1.0
C      1  0.5386670000000  0.4566960000000  0.4851960000000 1.0
C      1  0.5694690000000  0.5146920000000  0.5038410000000 1.0
C      1  0.5460190000000  0.5940540000000  0.5383000000000 1.0
C      1  0.5360410000000  0.5481960000000  0.5363350000000 1.0
C      1  0.5103040000000  0.5748210000000  0.4204080000000 1.0
C      1  0.4492550000000  0.4561720000000  0.5440250000000 1.0
C      1  0.5983580000000  0.4909030000000  0.5525310000000 1.0
END
