TITL C-883729-9652-222 2.35925738934593 125000 -29539.1860378185 0 0 197 (C1) n - 1
REM
REM in /home/nfs/bkarasulu/CARBON/AIRSS/Generating-Clusters/ReaxFF-fromJPCA2015/Units_Real/with-SteepDescent/Only-C1/SD-CG/Try1-3A/FIRE-CG
REM
REM
REM
REM
REM
REM ./C.cell (11c1c37f851c82e70ff6c80c92926a4b)
REM
REM compiler GCC version 9.2.1 20190827 (Red Hat 9.2.1-1)
REM options -cpp -mtune=generic -march=x86-64 -g -O0 -fpre-include=/usr/include/finclude/math-vector-fortran.h
REM seed 1367807030 1316192127 -1831549687 935829634 -843421580 356499620 -2070795784 -66899188 -428314672 1895646032 2109053947 1839560383 2143288829 1788202386 -360459290 2758265 1864785077 -505129560 1395234800 -310449829 802560722 -1553762544 609395695 -1288466696 -2137917588 603114946 1475081927 -1323514000 813548317 1969328199 -522396603 -801651636 -1004408603
REM
CELL 1.54180   50.00000   50.00000   50.00000   90.00000   90.00000   90.00000
LATT -1
SFAC C  
C      1  0.5490390000000  0.4620420000000  0.3972920000000 1.0
C      1  0.4735340000000  0.5962500000000  0.5673690000000 1.0
C      1  0.4430970000000  0.5149830000000  0.5377390000000 1.0
C      1  0.5201280000000  0.4798970000000  0.5702860000000 1.0
C      1  0.4555520000000  0.4133630000000  0.5376880000000 1.0
C      1  0.4621220000000  0.4524400000000  0.5868750000000 1.0
C      1  0.4185520000000  0.5362600000000  0.5878930000000 1.0
C      1  0.5112520000000  0.5971820000000  0.4785200000000 1.0
C      1  0.5236230000000  0.5979870000000  0.4544930000000 1.0
C      1  0.4133500000000  0.5540700000000  0.5657280000000 1.0
C      1  0.5575270000000  0.5983480000000  0.4887850000000 1.0
C      1  0.4803660000000  0.5533300000000  0.5354050000000 1.0
C      1  0.4283610000000  0.4773700000000  0.5793050000000 1.0
C      1  0.5333220000000  0.5630400000000  0.4187940000000 1.0
C      1  0.4756490000000  0.5534310000000  0.4551150000000 1.0
C      1  0.4053100000000  0.5099380000000  0.4299010000000 1.0
C      1  0.5831470000000  0.5632570000000  0.5656720000000 1.0
C      1  0.5050460000000  0.4292070000000  0.4138390000000 1.0
C      1  0.4377470000000  0.5941390000000  0.4654600000000 1.0
C      1  0.4930160000000  0.4707390000000  0.4795380000000 1.0
C      1  0.5766960000000  0.4443580000000  0.5655900000000 1.0
C      1  0.4865630000000  0.4946840000000  0.4714690000000 1.0
C      1  0.4371250000000  0.4769610000000  0.4134200000000 1.0
C      1  0.5702320000000  0.4736130000000  0.4906800000000 1.0
C      1  0.4548770000000  0.4140700000000  0.4670480000000 1.0
C      1  0.3962330000000  0.4964000000000  0.5349690000000 1.0
C      1  0.4992160000000  0.3838570000000  0.4712580000000 1.0
C      1  0.4912940000000  0.3902410000000  0.5107840000000 1.0
C      1  0.4815000000000  0.4608240000000  0.5028090000000 1.0
C      1  0.6095020000000  0.4490220000000  0.4950940000000 1.0
C      1  0.5227690000000  0.4484370000000  0.4001320000000 1.0
C      1  0.5163430000000  0.5771570000000  0.5039340000000 1.0
C      1  0.4652450000000  0.4765740000000  0.5447330000000 1.0
C      1  0.4892190000000  0.5502450000000  0.6056500000000 1.0
C      1  0.5049700000000  0.5532810000000  0.4587750000000 1.0
C      1  0.4460800000000  0.4672680000000  0.4741880000000 1.0
C      1  0.6029460000000  0.4752570000000  0.4530570000000 1.0
C      1  0.5305790000000  0.3880240000000  0.5334010000000 1.0
C      1  0.4976350000000  0.5293240000000  0.5390750000000 1.0
C      1  0.4928100000000  0.6112080000000  0.4767300000000 1.0
C      1  0.4502590000000  0.4669400000000  0.5027380000000 1.0
C      1  0.3986950000000  0.5272800000000  0.4545880000000 1.0
C      1  0.5361440000000  0.3863590000000  0.5046370000000 1.0
C      1  0.5367540000000  0.4029010000000  0.4504910000000 1.0
C      1  0.4254620000000  0.4369100000000  0.4417010000000 1.0
C      1  0.3983980000000  0.5380580000000  0.5474960000000 1.0
C      1  0.5026300000000  0.4298090000000  0.5356730000000 1.0
C      1  0.5118400000000  0.4756930000000  0.4080400000000 1.0
C      1  0.4390790000000  0.5276130000000  0.3963220000000 1.0
C      1  0.5453970000000  0.3993580000000  0.5606470000000 1.0
C      1  0.5389290000000  0.5609290000000  0.4942600000000 1.0
C      1  0.5799670000000  0.4237760000000  0.4692230000000 1.0
C      1  0.4489330000000  0.5494360000000  0.4129450000000 1.0
C      1  0.5585100000000  0.5241420000000  0.4326500000000 1.0
C      1  0.5515320000000  0.4696530000000  0.4429490000000 1.0
C      1  0.5595820000000  0.4949610000000  0.5773720000000 1.0
C      1  0.4053300000000  0.5580350000000  0.5003730000000 1.0
C      1  0.4582450000000  0.5142450000000  0.5879090000000 1.0
C      1  0.5959170000000  0.5361930000000  0.4576190000000 1.0
C      1  0.4271060000000  0.5711200000000  0.5141970000000 1.0
C      1  0.4507790000000  0.5979460000000  0.4921840000000 1.0
C      1  0.4422670000000  0.5173490000000  0.4868860000000 1.0
C      1  0.6000480000000  0.4770820000000  0.4951220000000 1.0
C      1  0.5362940000000  0.4878520000000  0.3921800000000 1.0
C      1  0.5535720000000  0.5127430000000  0.6004890000000 1.0
C      1  0.5907210000000  0.4909120000000  0.4332060000000 1.0
C      1  0.5235900000000  0.4778840000000  0.4400150000000 1.0
C      1  0.6020560000000  0.4816140000000  0.5443070000000 1.0
C      1  0.5035280000000  0.4187000000000  0.5092410000000 1.0
C      1  0.3946700000000  0.5021200000000  0.4690620000000 1.0
C      1  0.5354560000000  0.5647400000000  0.5912220000000 1.0
C      1  0.3982320000000  0.4545910000000  0.4682180000000 1.0
C      1  0.4570340000000  0.5152210000000  0.5126680000000 1.0
C      1  0.4970730000000  0.4958670000000  0.5801690000000 1.0
C      1  0.5635690000000  0.4157540000000  0.4932260000000 1.0
C      1  0.5615910000000  0.5569910000000  0.5281940000000 1.0
C      1  0.4773410000000  0.5146230000000  0.4263550000000 1.0
C      1  0.4898680000000  0.5486230000000  0.5787540000000 1.0
C      1  0.4605440000000  0.4423420000000  0.4631180000000 1.0
C      1  0.4332110000000  0.5710880000000  0.5471490000000 1.0
C      1  0.5058810000000  0.3896450000000  0.5508820000000 1.0
C      1  0.5641700000000  0.4157480000000  0.4453050000000 1.0
C      1  0.4149870000000  0.5141600000000  0.5466960000000 1.0
C      1  0.5684110000000  0.4365610000000  0.4254010000000 1.0
C      1  0.5963970000000  0.5102390000000  0.5462710000000 1.0
C      1  0.4164930000000  0.4330340000000  0.4693470000000 1.0
C      1  0.4057220000000  0.5514490000000  0.4703600000000 1.0
C      1  0.4486940000000  0.5959650000000  0.5546870000000 1.0
C      1  0.5268780000000  0.5187390000000  0.6116060000000 1.0
C      1  0.4372160000000  0.5416680000000  0.6083260000000 1.0
C      1  0.4879990000000  0.6133720000000  0.5215610000000 1.0
C      1  0.4933060000000  0.5762570000000  0.5740320000000 1.0
C      1  0.5188690000000  0.4745410000000  0.5410280000000 1.0
C      1  0.5062550000000  0.4199180000000  0.5942970000000 1.0
C      1  0.5089480000000  0.5062990000000  0.4753770000000 1.0
C      1  0.5066940000000  0.4967320000000  0.6101000000000 1.0
C      1  0.4870930000000  0.5109940000000  0.5175580000000 1.0
C      1  0.5480840000000  0.4433560000000  0.5226670000000 1.0
C      1  0.5456670000000  0.5731000000000  0.5404620000000 1.0
C      1  0.5083530000000  0.4694850000000  0.6205280000000 1.0
C      1  0.5898640000000  0.5249790000000  0.4994900000000 1.0
C      1  0.5277540000000  0.5293000000000  0.3946340000000 1.0
C      1  0.4979010000000  0.5244360000000  0.5665520000000 1.0
C      1  0.4889690000000  0.4813520000000  0.5276590000000 1.0
C      1  0.4501600000000  0.4247140000000  0.4271250000000 1.0
C      1  0.5154130000000  0.5739010000000  0.4399690000000 1.0
C      1  0.5254060000000  0.4463560000000  0.5399510000000 1.0
C      1  0.5317920000000  0.5947500000000  0.5470050000000 1.0
C      1  0.5670520000000  0.5693530000000  0.4924030000000 1.0
C      1  0.5174920000000  0.6128760000000  0.5260030000000 1.0
C      1  0.5902340000000  0.5572760000000  0.5389520000000 1.0
C      1  0.5085890000000  0.4558770000000  0.4615450000000 1.0
C      1  0.4871820000000  0.4360280000000  0.4548650000000 1.0
C      1  0.4834170000000  0.4336400000000  0.5903010000000 1.0
C      1  0.5999600000000  0.4366140000000  0.5205660000000 1.0
C      1  0.4662210000000  0.5730000000000  0.4078200000000 1.0
C      1  0.3924390000000  0.5138730000000  0.5116810000000 1.0
C      1  0.4822370000000  0.4076330000000  0.4601320000000 1.0
C      1  0.5402990000000  0.4883820000000  0.5246400000000 1.0
C      1  0.4879070000000  0.3730860000000  0.4959990000000 1.0
C      1  0.5514830000000  0.5946590000000  0.4605560000000 1.0
C      1  0.4711070000000  0.4770000000000  0.5726400000000 1.0
C      1  0.5707980000000  0.4667780000000  0.4194780000000 1.0
C      1  0.5348250000000  0.4284300000000  0.4966830000000 1.0
C      1  0.4751110000000  0.6133470000000  0.4963970000000 1.0
C      1  0.5593460000000  0.5523640000000  0.4283400000000 1.0
C      1  0.4512870000000  0.5497590000000  0.4765400000000 1.0
C      1  0.4802830000000  0.4319120000000  0.5015740000000 1.0
C      1  0.3901890000000  0.5417810000000  0.5192930000000 1.0
C      1  0.4805370000000  0.5076110000000  0.3998100000000 1.0
C      1  0.5742640000000  0.4244630000000  0.5180960000000 1.0
C      1  0.5193740000000  0.4000520000000  0.5741240000000 1.0
C      1  0.5332390000000  0.4480370000000  0.4759920000000 1.0
C      1  0.4715410000000  0.4982340000000  0.4479490000000 1.0
C      1  0.4287340000000  0.4227750000000  0.4972430000000 1.0
C      1  0.4976560000000  0.5659960000000  0.5194640000000 1.0
C      1  0.4557540000000  0.5525460000000  0.5508040000000 1.0
C      1  0.5448120000000  0.5130420000000  0.4043810000000 1.0
C      1  0.5171210000000  0.5548010000000  0.3953510000000 1.0
C      1  0.5627340000000  0.5194260000000  0.4905950000000 1.0
C      1  0.4882820000000  0.5656130000000  0.3888750000000 1.0
C      1  0.5826830000000  0.5599900000000  0.4678610000000 1.0
C      1  0.4298300000000  0.5648890000000  0.4615860000000 1.0
C      1  0.5197440000000  0.4150910000000  0.4323650000000 1.0
C      1  0.3915930000000  0.4542760000000  0.4939400000000 1.0
C      1  0.5187230000000  0.5462330000000  0.6069330000000 1.0
C      1  0.3991240000000  0.4844360000000  0.4437090000000 1.0
C      1  0.5658560000000  0.5615010000000  0.5885010000000 1.0
C      1  0.5280680000000  0.5031600000000  0.4556570000000 1.0
C      1  0.5276040000000  0.3887840000000  0.4756680000000 1.0
C      1  0.4564930000000  0.5261720000000  0.5608270000000 1.0
C      1  0.4304550000000  0.5048170000000  0.5898180000000 1.0
C      1  0.4638270000000  0.5358220000000  0.4343760000000 1.0
C      1  0.6123070000000  0.4932640000000  0.4739820000000 1.0
C      1  0.5205170000000  0.5436610000000  0.4809120000000 1.0
C      1  0.4850720000000  0.4803190000000  0.3994920000000 1.0
C      1  0.5998210000000  0.4451210000000  0.4682930000000 1.0
C      1  0.4733030000000  0.4370660000000  0.4142640000000 1.0
C      1  0.3957860000000  0.4488710000000  0.5211680000000 1.0
C      1  0.4124440000000  0.5084240000000  0.4911230000000 1.0
C      1  0.5525740000000  0.5327870000000  0.5377300000000 1.0
C      1  0.5191920000000  0.4442240000000  0.6080930000000 1.0
C      1  0.4770370000000  0.5802450000000  0.4344110000000 1.0
C      1  0.4345410000000  0.4298860000000  0.5484580000000 1.0
C      1  0.4643910000000  0.5339690000000  0.6097440000000 1.0
C      1  0.5981130000000  0.4527940000000  0.5454280000000 1.0
C      1  0.4838340000000  0.4097040000000  0.5465760000000 1.0
C      1  0.4532180000000  0.5926050000000  0.4421490000000 1.0
C      1  0.5400120000000  0.6104840000000  0.5086380000000 1.0
C      1  0.5315360000000  0.4580580000000  0.5849200000000 1.0
C      1  0.4476550000000  0.4950160000000  0.4653460000000 1.0
C      1  0.5553520000000  0.4629190000000  0.4696800000000 1.0
C      1  0.4810270000000  0.5414580000000  0.3775670000000 1.0
C      1  0.5992480000000  0.5315630000000  0.5265720000000 1.0
C      1  0.4361510000000  0.4498760000000  0.5716880000000 1.0
C      1  0.6072450000000  0.5206990000000  0.4776310000000 1.0
C      1  0.5418580000000  0.5160600000000  0.5145570000000 1.0
C      1  0.4707010000000  0.6107280000000  0.5441730000000 1.0
C      1  0.5668760000000  0.5730350000000  0.4483470000000 1.0
C      1  0.5586890000000  0.4656820000000  0.5773300000000 1.0
C      1  0.4193050000000  0.4646730000000  0.4326370000000 1.0
C      1  0.5620430000000  0.4212100000000  0.5629880000000 1.0
C      1  0.5694420000000  0.5176170000000  0.5596400000000 1.0
C      1  0.5714370000000  0.5328980000000  0.5899280000000 1.0
C      1  0.4635420000000  0.4639870000000  0.4070740000000 1.0
C      1  0.4555630000000  0.4167020000000  0.5073470000000 1.0
C      1  0.5526200000000  0.5145000000000  0.4646300000000 1.0
C      1  0.5220890000000  0.5834120000000  0.5736610000000 1.0
C      1  0.4624040000000  0.5205140000000  0.3795280000000 1.0
C      1  0.4104110000000  0.4714060000000  0.5334350000000 1.0
C      1  0.5559180000000  0.4697000000000  0.5147510000000 1.0
C      1  0.4396300000000  0.4724070000000  0.5281180000000 1.0
C      1  0.4273450000000  0.5048030000000  0.4109710000000 1.0
C      1  0.4514840000000  0.5695490000000  0.4991560000000 1.0
C      1  0.4174080000000  0.4280960000000  0.5239990000000 1.0
C      1  0.5139910000000  0.5213930000000  0.4984530000000 1.0
C      1  0.5862640000000  0.5205970000000  0.4341150000000 1.0
END
