TITL C-884128-4793-94 2.4760275654617 125000 -10318.7431167717 0 0 71 (C1) n - 1
REM
REM in /home/nfs/bkarasulu/CARBON/AIRSS/Generating-Clusters/ReaxFF-fromJPCA2015/Units_Real/with-SteepDescent/Only-C1/SD-CG/Try1-3A/FIRE-CG
REM
REM
REM
REM
REM
REM ./C.cell (11c1c37f851c82e70ff6c80c92926a4b)
REM
REM compiler GCC version 9.2.1 20190827 (Red Hat 9.2.1-1)
REM options -cpp -mtune=generic -march=x86-64 -g -O0 -fpre-include=/usr/include/finclude/math-vector-fortran.h
REM seed -708937730 591559133 1295962663 -1969001286 -68047814 411950708 892535149 -199789675 1089557371 779428319 1152897959 -1211058518 757126761 201181466 -1532774218 2048586758 448010448 -1492550967 -1057683352 1260052856 -999601250 1654887379 2102129430 1128620251 -1271160277 -879268579 903206178 1839857972 -52279438 203559278 -663991673 -779752290 1024929420
REM
CELL 1.54180   50.00000   50.00000   50.00000   90.00000   90.00000   90.00000
LATT -1
SFAC C  
C      1  0.5866130000000  0.4703470000000  0.5122580000000 1.0
C      1  0.5215510000000  0.4369740000000  0.5141820000000 1.0
C      1  0.5489390000000  0.4966120000000  0.4657560000000 1.0
C      1  0.4677860000000  0.5128840000000  0.4327030000000 1.0
C      1  0.5040400000000  0.5159220000000  0.4647650000000 1.0
C      1  0.5143380000000  0.5677490000000  0.5041500000000 1.0
C      1  0.4255980000000  0.4881700000000  0.4741700000000 1.0
C      1  0.4366030000000  0.4726590000000  0.4964370000000 1.0
C      1  0.4695600000000  0.5436070000000  0.5417570000000 1.0
C      1  0.4905940000000  0.5258840000000  0.4198000000000 1.0
C      1  0.4416920000000  0.4816170000000  0.4520490000000 1.0
C      1  0.5722930000000  0.4991450000000  0.4873170000000 1.0
C      1  0.4941360000000  0.4440740000000  0.4596150000000 1.0
C      1  0.5292790000000  0.5180640000000  0.4787080000000 1.0
C      1  0.4801340000000  0.5643020000000  0.4727310000000 1.0
C      1  0.5449980000000  0.4404500000000  0.4995780000000 1.0
C      1  0.5668620000000  0.4828210000000  0.5133140000000 1.0
C      1  0.4606670000000  0.4632400000000  0.4433020000000 1.0
C      1  0.4671180000000  0.4488760000000  0.5402300000000 1.0
C      1  0.5456920000000  0.5289080000000  0.5381440000000 1.0
C      1  0.5025170000000  0.5052950000000  0.5903870000000 1.0
C      1  0.5409860000000  0.5243550000000  0.5682680000000 1.0
C      1  0.5000870000000  0.5055650000000  0.5460140000000 1.0
C      1  0.4948320000000  0.4888680000000  0.4611130000000 1.0
C      1  0.5138720000000  0.5292030000000  0.5781730000000 1.0
C      1  0.4971600000000  0.4230640000000  0.5101610000000 1.0
C      1  0.4861180000000  0.5732790000000  0.4995600000000 1.0
C      1  0.5206190000000  0.5410820000000  0.5331890000000 1.0
C      1  0.4348950000000  0.5124060000000  0.5239790000000 1.0
C      1  0.5094310000000  0.5473920000000  0.4312800000000 1.0
C      1  0.5119200000000  0.4548770000000  0.5326070000000 1.0
C      1  0.5275980000000  0.5052650000000  0.4207710000000 1.0
C      1  0.4963860000000  0.4670240000000  0.5749170000000 1.0
C      1  0.5016620000000  0.5001360000000  0.4123000000000 1.0
C      1  0.5207470000000  0.4487090000000  0.4545410000000 1.0
C      1  0.4590760000000  0.4954210000000  0.5598340000000 1.0
C      1  0.5417570000000  0.5440650000000  0.4710650000000 1.0
C      1  0.5443600000000  0.4979120000000  0.5360620000000 1.0
C      1  0.5371040000000  0.5406510000000  0.4417160000000 1.0
C      1  0.5123720000000  0.5388960000000  0.5079350000000 1.0
C      1  0.4657860000000  0.5623120000000  0.5195100000000 1.0
C      1  0.5134920000000  0.4868900000000  0.5273980000000 1.0
C      1  0.4398680000000  0.5561110000000  0.5057160000000 1.0
C      1  0.5685630000000  0.5234600000000  0.4987670000000 1.0
C      1  0.5582750000000  0.5460460000000  0.5097690000000 1.0
C      1  0.4863210000000  0.4797340000000  0.4867750000000 1.0
C      1  0.5665760000000  0.4523640000000  0.5134660000000 1.0
C      1  0.4944190000000  0.4961510000000  0.5068850000000 1.0
C      1  0.5416800000000  0.5631950000000  0.4931210000000 1.0
C      1  0.4353950000000  0.4840870000000  0.5221870000000 1.0
C      1  0.4883220000000  0.5236990000000  0.5024340000000 1.0
C      1  0.5433690000000  0.4446150000000  0.4722100000000 1.0
C      1  0.5472450000000  0.5135650000000  0.4384730000000 1.0
C      1  0.5202790000000  0.4833740000000  0.5817050000000 1.0
C      1  0.4923230000000  0.4509230000000  0.5521790000000 1.0
C      1  0.4695070000000  0.4437290000000  0.4691320000000 1.0
C      1  0.4808690000000  0.4849290000000  0.4344310000000 1.0
C      1  0.4321680000000  0.5154840000000  0.4730710000000 1.0
C      1  0.4955220000000  0.5609680000000  0.4507470000000 1.0
C      1  0.4523830000000  0.5208930000000  0.5458360000000 1.0
C      1  0.4699440000000  0.4295340000000  0.5185860000000 1.0
C      1  0.5415150000000  0.4686920000000  0.4595560000000 1.0
C      1  0.4562640000000  0.5201570000000  0.4585030000000 1.0
C      1  0.4783940000000  0.5316330000000  0.4750450000000 1.0
C      1  0.4513650000000  0.4733540000000  0.5429640000000 1.0
C      1  0.4788130000000  0.4898790000000  0.5805090000000 1.0
C      1  0.5420510000000  0.4952610000000  0.5654660000000 1.0
C      1  0.4305220000000  0.5286070000000  0.5000560000000 1.0
C      1  0.4748800000000  0.4240470000000  0.4902920000000 1.0
C      1  0.4629830000000  0.4637300000000  0.4884280000000 1.0
C      1  0.4989110000000  0.5368060000000  0.5519420000000 1.0
END
