TITL C-884130-5973-39 8887226.40681559 125000 -19215.8389371851 0 0 130 (C1) n - 1
REM
REM in /home/nfs/bkarasulu/CARBON/AIRSS/Generating-Clusters/ReaxFF-fromJPCA2015/Units_Real/with-SteepDescent/Only-C1/SD-CG/Try1-3A/FIRE-CG
REM
REM
REM
REM
REM
REM ./C.cell (11c1c37f851c82e70ff6c80c92926a4b)
REM
REM compiler GCC version 9.2.1 20190827 (Red Hat 9.2.1-1)
REM options -cpp -mtune=generic -march=x86-64 -g -O0 -fpre-include=/usr/include/finclude/math-vector-fortran.h
REM seed -1594752353 630406208 -241283963 1680716429 -56348725 1631656777 458407800 -1785517419 -1933631045 1599324902 -119302107 -2145575280 1325001649 444619089 2094709732 -1241503471 1912410872 287919183 1166480224 335917289 2124940441 796774071 651555238 2051752104 -737513402 -503981793 -664846128 1929142480 -1098914380 -1422429823 878749428 1658413163 -1610744399
REM
CELL 1.54180   50.00000   50.00000   50.00000   90.00000   90.00000   90.00000
LATT -1
SFAC C  
C      1  0.4686360000000  0.4453790000000  0.5758510000000 1.0
C      1  0.4945690000000  0.5695480000000  0.5569490000000 1.0
C      1  0.4793100000000  0.5453650000000  0.5703710000000 1.0
C      1  0.6009860000000  0.5049280000000  0.5056740000000 1.0
C      1  0.4016890000000  0.5459510000000  0.4891340000000 1.0
C      1  0.4974060000000  0.4843150000000  0.5902010000000 1.0
C      1  0.5519820000000  0.5203480000000  0.4324100000000 1.0
C      1  0.5463990000000  0.4581630000000  0.4676950000000 1.0
C      1  0.5063710000000  0.4677610000000  0.4184540000000 1.0
C      1  0.5754130000000  0.5386090000000  0.5328960000000 1.0
C      1  0.5381700000000  0.4039900000000  0.4800590000000 1.0
C      1  0.5837970000000  0.5287490000000  0.5061420000000 1.0
C      1  0.4312450000000  0.5568720000000  0.4175470000000 1.0
C      1  0.4693630000000  0.4673230000000  0.5572080000000 1.0
C      1  0.5900780000000  0.4596510000000  0.4465670000000 1.0
C      1  0.5515800000000  0.4233290000000  0.5251320000000 1.0
C      1  0.4431920000000  0.5179330000000  0.5028030000000 1.0
C      1  0.5002470000000  0.5296080000000  0.5117210000000 1.0
C      1  0.5587190000000  0.4497350000000  0.5362560000000 1.0
C      1  0.5396330000000  0.5138940000000  0.5909540000000 1.0
C      1  0.5791210000000  0.4712360000000  0.5421260000000 1.0
C      1  0.5356230000000  0.5066130000000  0.4113040000000 1.0
C      1  0.4523600000000  0.4107700000000  0.5130770000000 1.0
C      1  0.4371110000000  0.5775770000000  0.5089500000000 1.0
C      1  0.5135910000000  0.4216380000000  0.4376750000000 1.0
C      1  0.5831860000000  0.5340020000000  0.4116410000000 1.0
C      1  0.5067780000000  0.4379220000000  0.5442400000000 1.0
C      1  0.4830990000000  0.4947290000000  0.3976040000000 1.0
C      1  0.4198160000000  0.4610860000000  0.5445070000000 1.0
C      1  0.4904890000000  0.6050290000000  0.5205880000000 1.0
C      1  0.5665460000000  0.4411140000000  0.4530490000000 1.0
C      1  0.4368240000000  0.4549810000000  0.4520860000000 1.0
C      1  0.5253800000000  0.4734020000000  0.5851380000000 1.0
C      1  0.4891490000000  0.4555980000000  0.5951560000000 1.0
C      1  0.5200820000000  0.4004370000000  0.4571240000000 1.0
C      1  0.4370810000000  0.5249240000000  0.5857610000000 1.0
C      1  0.5634310000000  0.5643420000000  0.5417120000000 1.0
C      1  0.4767900000000  0.5815690000000  0.4447380000000 1.0
C      1  0.4064130000000  0.4707660000000  0.4859300000000 1.0
C      1  0.4269800000000  0.4509400000000  0.4817280000000 1.0
C      1  0.4100000000000  0.4916250000000  0.4674130000000 1.0
C      1  0.4254820000000  0.5684840000000  0.4433500000000 1.0
C      1  0.5190290000000  0.4280490000000  0.5670530000000 1.0
C      1  0.5710820000000  0.5208960000000  0.5558560000000 1.0
C      1  0.4364960000000  0.4995740000000  0.4575260000000 1.0
C      1  0.4438480000000  0.4805980000000  0.4370770000000 1.0
C      1  0.4109530000000  0.5632370000000  0.5123560000000 1.0
C      1  0.4529080000000  0.5732070000000  0.4850700000000 1.0
C      1  0.4944220000000  0.4051850000000  0.4480000000000 1.0
C      1  0.4773600000000  0.5867450000000  0.5417110000000 1.0
C      1  0.4975150000000  0.4114740000000  0.5516420000000 1.0
C      1  0.4557490000000  0.5543200000000  0.4187120000000 1.0
C      1  0.5277280000000  0.5338960000000  0.5123750000000 1.0
C      1  0.4899400000000  0.4606600000000  0.5373370000000 1.0
C      1  0.4100850000000  0.5519210000000  0.5397680000000 1.0
C      1  0.5942760000000  0.4791040000000  0.5185320000000 1.0
C      1  0.4136360000000  0.5216170000000  0.5020420000000 1.0
C      1  0.4551760000000  0.5087990000000  0.4780470000000 1.0
C      1  0.4505890000000  0.5802080000000  0.4576340000000 1.0
C      1  0.4931990000000  0.5938720000000  0.4940840000000 1.0
C      1  0.5162410000000  0.4457540000000  0.5896420000000 1.0
C      1  0.4251050000000  0.4372370000000  0.5315190000000 1.0
C      1  0.6073090000000  0.4994850000000  0.4775380000000 1.0
C      1  0.5567130000000  0.4692200000000  0.4907540000000 1.0
C      1  0.3997250000000  0.4982870000000  0.4917060000000 1.0
C      1  0.5353670000000  0.4771140000000  0.4097260000000 1.0
C      1  0.5270560000000  0.5537390000000  0.4656960000000 1.0
C      1  0.4945170000000  0.5345940000000  0.5951220000000 1.0
C      1  0.4673360000000  0.4807450000000  0.4195720000000 1.0
C      1  0.5396810000000  0.5083290000000  0.5063930000000 1.0
C      1  0.5699520000000  0.4918330000000  0.5602750000000 1.0
C      1  0.4997010000000  0.5441330000000  0.4747830000000 1.0
C      1  0.4791800000000  0.5472680000000  0.5144840000000 1.0
C      1  0.4593050000000  0.5293430000000  0.5250560000000 1.0
C      1  0.5240230000000  0.5727000000000  0.4415860000000 1.0
C      1  0.5155930000000  0.5954590000000  0.4795600000000 1.0
C      1  0.5853950000000  0.4651140000000  0.4945820000000 1.0
C      1  0.5501880000000  0.4885360000000  0.5821300000000 1.0
C      1  0.5071360000000  0.4861000000000  0.5345180000000 1.0
C      1  0.5586370000000  0.4195360000000  0.4681840000000 1.0
C      1  0.5312950000000  0.4065990000000  0.5104960000000 1.0
C      1  0.5053060000000  0.4020070000000  0.5225140000000 1.0
C      1  0.4823970000000  0.4956000000000  0.4806800000000 1.0
C      1  0.4735570000000  0.5173500000000  0.5495120000000 1.0
C      1  0.5403530000000  0.5777690000000  0.5279990000000 1.0
C      1  0.5091780000000  0.4494640000000  0.4404100000000 1.0
C      1  0.4785930000000  0.4527770000000  0.5066460000000 1.0
C      1  0.4814420000000  0.5550370000000  0.4319840000000 1.0
C      1  0.4842370000000  0.4286220000000  0.4910600000000 1.0
C      1  0.5941130000000  0.5199710000000  0.4618170000000 1.0
C      1  0.4683170000000  0.4208310000000  0.5601910000000 1.0
C      1  0.5040410000000  0.5911290000000  0.4537310000000 1.0
C      1  0.5749710000000  0.5325660000000  0.4779060000000 1.0
C      1  0.4554470000000  0.4365340000000  0.4546360000000 1.0
C      1  0.4067410000000  0.5543570000000  0.4618400000000 1.0
C      1  0.6011880000000  0.4711420000000  0.4712240000000 1.0
C      1  0.5375720000000  0.5022080000000  0.4779110000000 1.0
C      1  0.5380280000000  0.5590210000000  0.5076010000000 1.0
C      1  0.4496120000000  0.5472930000000  0.5743590000000 1.0
C      1  0.5427130000000  0.4617880000000  0.5144570000000 1.0
C      1  0.4352670000000  0.5614680000000  0.5540050000000 1.0
C      1  0.5834210000000  0.5133820000000  0.4322040000000 1.0
C      1  0.4818240000000  0.5636890000000  0.4909490000000 1.0
C      1  0.4900500000000  0.4836190000000  0.4352240000000 1.0
C      1  0.5106690000000  0.5115560000000  0.5991970000000 1.0
C      1  0.4471510000000  0.4173250000000  0.5412330000000 1.0
C      1  0.5481210000000  0.5271220000000  0.4617710000000 1.0
C      1  0.5193830000000  0.4636230000000  0.4622110000000 1.0
C      1  0.4203940000000  0.5023410000000  0.5771260000000 1.0
C      1  0.4495030000000  0.5790810000000  0.5353680000000 1.0
C      1  0.5470530000000  0.5612820000000  0.5657660000000 1.0
C      1  0.5604270000000  0.4721090000000  0.4197890000000 1.0
C      1  0.5120010000000  0.4908300000000  0.4689440000000 1.0
C      1  0.5533740000000  0.5336580000000  0.5750910000000 1.0
C      1  0.4336950000000  0.4327480000000  0.5034990000000 1.0
C      1  0.4804910000000  0.4741430000000  0.4936900000000 1.0
C      1  0.4742220000000  0.4193570000000  0.4637440000000 1.0
C      1  0.4882710000000  0.5207590000000  0.4098880000000 1.0
C      1  0.4177030000000  0.4816720000000  0.5587940000000 1.0
C      1  0.5352990000000  0.5766410000000  0.4868930000000 1.0
C      1  0.4481030000000  0.5005140000000  0.5858730000000 1.0
C      1  0.5315930000000  0.4860380000000  0.5220520000000 1.0
C      1  0.4943120000000  0.5108230000000  0.5319740000000 1.0
C      1  0.5100820000000  0.5086660000000  0.3953420000000 1.0
C      1  0.5231650000000  0.5720710000000  0.5527490000000 1.0
C      1  0.4700510000000  0.4933860000000  0.5690570000000 1.0
C      1  0.4882100000000  0.5351700000000  0.4514840000000 1.0
C      1  0.4951990000000  0.5120230000000  0.4384710000000 1.0
C      1  0.5843600000000  0.4803320000000  0.4272780000000 1.0
C      1  0.4812400000000  0.4043810000000  0.5067920000000 1.0
END
