TITL C-884133-6611-254 75.0715805638672 125000 -24143.3965996645 0 0 164 (C1) n - 1
REM
REM in /home/nfs/bkarasulu/CARBON/AIRSS/Generating-Clusters/ReaxFF-fromJPCA2015/Units_Real/with-SteepDescent/Only-C1/SD-CG/Try1-3A/FIRE-CG
REM
REM
REM
REM
REM
REM ./C.cell (11c1c37f851c82e70ff6c80c92926a4b)
REM
REM compiler GCC version 9.2.1 20190827 (Red Hat 9.2.1-1)
REM options -cpp -mtune=generic -march=x86-64 -g -O0 -fpre-include=/usr/include/finclude/math-vector-fortran.h
REM seed 1528578258 -1051538390 746623115 -1848664047 -765685438 1792990156 -1440899718 -1935525447 1936215913 1128337213 437437478 832752580 -2082363855 1022598198 -82347704 -1035827432 1687816922 2053867590 -1248050268 2037955655 -1724428176 2076405949 -2085944216 -946472809 451943996 177434342 1576354840 -1547781227 -2060140802 -1917168621 -184066608 -1648646048 -84661196
REM
CELL 1.54180   50.00000   50.00000   50.00000   90.00000   90.00000   90.00000
LATT -1
SFAC C  
C      1  0.4269280000000  0.4533840000000  0.5559390000000 1.0
C      1  0.4649660000000  0.5457820000000  0.5372940000000 1.0
C      1  0.5468880000000  0.4261310000000  0.5775960000000 1.0
C      1  0.5387600000000  0.4378530000000  0.4647640000000 1.0
C      1  0.4964820000000  0.4051980000000  0.4546470000000 1.0
C      1  0.4793640000000  0.4605780000000  0.5218500000000 1.0
C      1  0.4159340000000  0.4373490000000  0.5333250000000 1.0
C      1  0.5746900000000  0.5332050000000  0.4964440000000 1.0
C      1  0.5885950000000  0.5257630000000  0.4515350000000 1.0
C      1  0.5811180000000  0.5599360000000  0.5300120000000 1.0
C      1  0.5252020000000  0.5294700000000  0.4027960000000 1.0
C      1  0.5581410000000  0.4931290000000  0.4865480000000 1.0
C      1  0.4300920000000  0.4872450000000  0.5909070000000 1.0
C      1  0.5232290000000  0.4120620000000  0.4967500000000 1.0
C      1  0.4760760000000  0.4447450000000  0.4154920000000 1.0
C      1  0.3941470000000  0.5027660000000  0.4754520000000 1.0
C      1  0.4361370000000  0.5712940000000  0.5041350000000 1.0
C      1  0.5818920000000  0.5079860000000  0.4787580000000 1.0
C      1  0.4971940000000  0.5661630000000  0.5746380000000 1.0
C      1  0.4987650000000  0.4022260000000  0.4849110000000 1.0
C      1  0.5338070000000  0.4855720000000  0.4237240000000 1.0
C      1  0.4782280000000  0.4047030000000  0.5055290000000 1.0
C      1  0.5950130000000  0.5375370000000  0.5171220000000 1.0
C      1  0.5702750000000  0.5831580000000  0.4781260000000 1.0
C      1  0.5369160000000  0.4120180000000  0.5223620000000 1.0
C      1  0.5678080000000  0.4279120000000  0.5588070000000 1.0
C      1  0.4930210000000  0.5185210000000  0.5040390000000 1.0
C      1  0.4059000000000  0.4966660000000  0.5499280000000 1.0
C      1  0.5853540000000  0.4149730000000  0.4721490000000 1.0
C      1  0.5218970000000  0.4397510000000  0.5763510000000 1.0
C      1  0.4595520000000  0.4869060000000  0.5978020000000 1.0
C      1  0.5455380000000  0.5183580000000  0.4244840000000 1.0
C      1  0.5469350000000  0.4121990000000  0.4322710000000 1.0
C      1  0.5491490000000  0.6021790000000  0.4711500000000 1.0
C      1  0.4646290000000  0.6033880000000  0.5536260000000 1.0
C      1  0.5167970000000  0.5548550000000  0.5527150000000 1.0
C      1  0.5537510000000  0.5446650000000  0.4659670000000 1.0
C      1  0.5206600000000  0.5159730000000  0.4703060000000 1.0
C      1  0.4591230000000  0.5170990000000  0.5998510000000 1.0
C      1  0.4460930000000  0.5591640000000  0.5549670000000 1.0
C      1  0.5552790000000  0.4153870000000  0.4734570000000 1.0
C      1  0.5810080000000  0.5018360000000  0.5488310000000 1.0
C      1  0.4759090000000  0.5857170000000  0.4808410000000 1.0
C      1  0.5919600000000  0.4731080000000  0.5558110000000 1.0
C      1  0.5088720000000  0.5064020000000  0.3953840000000 1.0
C      1  0.4173240000000  0.5212210000000  0.5615830000000 1.0
C      1  0.6023890000000  0.4880110000000  0.4858650000000 1.0
C      1  0.4469040000000  0.5139510000000  0.5000970000000 1.0
C      1  0.4792910000000  0.5512290000000  0.4123900000000 1.0
C      1  0.5283090000000  0.5714780000000  0.4990790000000 1.0
C      1  0.5983920000000  0.4629570000000  0.5293780000000 1.0
C      1  0.5274260000000  0.4596260000000  0.5065450000000 1.0
C      1  0.5209700000000  0.5299670000000  0.5666910000000 1.0
C      1  0.4977350000000  0.4580920000000  0.4047730000000 1.0
C      1  0.5210130000000  0.4055750000000  0.4416460000000 1.0
C      1  0.5526230000000  0.4739220000000  0.5071460000000 1.0
C      1  0.4000370000000  0.5179610000000  0.4533340000000 1.0
C      1  0.5071890000000  0.4568470000000  0.5278060000000 1.0
C      1  0.5371850000000  0.4867060000000  0.5936040000000 1.0
C      1  0.5193830000000  0.4591520000000  0.5545880000000 1.0
C      1  0.5078310000000  0.4814390000000  0.4396680000000 1.0
C      1  0.4419160000000  0.5184080000000  0.3973910000000 1.0
C      1  0.4535900000000  0.5151010000000  0.4686550000000 1.0
C      1  0.5421590000000  0.5704730000000  0.5585350000000 1.0
C      1  0.4265290000000  0.5472620000000  0.4396370000000 1.0
C      1  0.5530530000000  0.4647680000000  0.5869920000000 1.0
C      1  0.5042600000000  0.5494530000000  0.5976170000000 1.0
C      1  0.5176010000000  0.4437510000000  0.4842510000000 1.0
C      1  0.4778460000000  0.4798950000000  0.4391730000000 1.0
C      1  0.4399810000000  0.5643530000000  0.4216060000000 1.0
C      1  0.4751900000000  0.5305690000000  0.4583710000000 1.0
C      1  0.5411180000000  0.4414050000000  0.4361620000000 1.0
C      1  0.4080920000000  0.4941480000000  0.4329440000000 1.0
C      1  0.5054820000000  0.5058550000000  0.5675650000000 1.0
C      1  0.5083070000000  0.4154560000000  0.5681440000000 1.0
C      1  0.4815310000000  0.5339370000000  0.5987150000000 1.0
C      1  0.3991620000000  0.4406780000000  0.5054770000000 1.0
C      1  0.5178360000000  0.4978100000000  0.5428100000000 1.0
C      1  0.5773390000000  0.4666010000000  0.4497140000000 1.0
C      1  0.4898720000000  0.5617090000000  0.5221470000000 1.0
C      1  0.4819990000000  0.4244620000000  0.5590490000000 1.0
C      1  0.4355940000000  0.4879670000000  0.5094710000000 1.0
C      1  0.5288060000000  0.5517380000000  0.5194570000000 1.0
C      1  0.5189530000000  0.5981010000000  0.5037060000000 1.0
C      1  0.4942600000000  0.6006290000000  0.4628920000000 1.0
C      1  0.4261340000000  0.4717880000000  0.4377930000000 1.0
C      1  0.4245450000000  0.5432050000000  0.5438220000000 1.0
C      1  0.4827040000000  0.5295690000000  0.4311500000000 1.0
C      1  0.4526280000000  0.4261040000000  0.4439580000000 1.0
C      1  0.5156710000000  0.5073450000000  0.5163640000000 1.0
C      1  0.5200430000000  0.6075750000000  0.4762160000000 1.0
C      1  0.4528290000000  0.4639850000000  0.5568070000000 1.0
C      1  0.5765720000000  0.5522570000000  0.4512020000000 1.0
C      1  0.4175900000000  0.4546080000000  0.4590260000000 1.0
C      1  0.5591750000000  0.4851920000000  0.5332610000000 1.0
C      1  0.4727890000000  0.5025410000000  0.5063350000000 1.0
C      1  0.5487860000000  0.5338970000000  0.5094050000000 1.0
C      1  0.4948730000000  0.5337980000000  0.4793630000000 1.0
C      1  0.4007500000000  0.4595740000000  0.4839680000000 1.0
C      1  0.5506210000000  0.5148590000000  0.5894650000000 1.0
C      1  0.4735010000000  0.6031050000000  0.5261370000000 1.0
C      1  0.4217350000000  0.5071250000000  0.4131110000000 1.0
C      1  0.4646150000000  0.4880290000000  0.4629680000000 1.0
C      1  0.5650420000000  0.5517860000000  0.5543780000000 1.0
C      1  0.4304610000000  0.5158830000000  0.5876390000000 1.0
C      1  0.4508350000000  0.5464530000000  0.4012420000000 1.0
C      1  0.6011140000000  0.5116170000000  0.5290010000000 1.0
C      1  0.4398670000000  0.5420540000000  0.5182320000000 1.0
C      1  0.5921070000000  0.4385040000000  0.4877430000000 1.0
C      1  0.4587480000000  0.5932140000000  0.5033430000000 1.0
C      1  0.5110120000000  0.5538390000000  0.4046620000000 1.0
C      1  0.4139350000000  0.4757310000000  0.5685760000000 1.0
C      1  0.5741400000000  0.5810690000000  0.5102920000000 1.0
C      1  0.4773000000000  0.5870970000000  0.5745600000000 1.0
C      1  0.4293090000000  0.4267650000000  0.4583230000000 1.0
C      1  0.3913980000000  0.4855850000000  0.4963420000000 1.0
C      1  0.5331620000000  0.5375910000000  0.5920200000000 1.0
C      1  0.5245370000000  0.5713340000000  0.4472020000000 1.0
C      1  0.5371950000000  0.5105650000000  0.4956210000000 1.0
C      1  0.5574520000000  0.4658730000000  0.4308230000000 1.0
C      1  0.4229480000000  0.4128150000000  0.5235030000000 1.0
C      1  0.5072370000000  0.4865320000000  0.5892650000000 1.0
C      1  0.4548950000000  0.4920250000000  0.5509160000000 1.0
C      1  0.4556100000000  0.4713420000000  0.4212730000000 1.0
C      1  0.5102650000000  0.4902830000000  0.4662140000000 1.0
C      1  0.4502250000000  0.5833250000000  0.5670190000000 1.0
C      1  0.4735420000000  0.4506340000000  0.5691640000000 1.0
C      1  0.4092780000000  0.4909330000000  0.5209590000000 1.0
C      1  0.4677030000000  0.5759490000000  0.4256670000000 1.0
C      1  0.5323150000000  0.5925880000000  0.5423560000000 1.0
C      1  0.4766190000000  0.4219230000000  0.4359190000000 1.0
C      1  0.4871390000000  0.5613580000000  0.4935420000000 1.0
C      1  0.5634480000000  0.4245520000000  0.5299660000000 1.0
C      1  0.4840790000000  0.5091460000000  0.4105350000000 1.0
C      1  0.4894330000000  0.5916850000000  0.4354030000000 1.0
C      1  0.6069760000000  0.4870640000000  0.5141800000000 1.0
C      1  0.5759830000000  0.4551090000000  0.5727790000000 1.0
C      1  0.5011380000000  0.5902080000000  0.5270590000000 1.0
C      1  0.5379900000000  0.4803230000000  0.5521620000000 1.0
C      1  0.4754460000000  0.4983990000000  0.5327060000000 1.0
C      1  0.4628520000000  0.4442270000000  0.4881150000000 1.0
C      1  0.5695290000000  0.4048940000000  0.4498690000000 1.0
C      1  0.5736090000000  0.5317330000000  0.4288650000000 1.0
C      1  0.5146260000000  0.4051290000000  0.5408920000000 1.0
C      1  0.4823230000000  0.4703380000000  0.5895240000000 1.0
C      1  0.5388000000000  0.5256600000000  0.4519710000000 1.0
C      1  0.5958660000000  0.4638430000000  0.4710660000000 1.0
C      1  0.5353940000000  0.5644280000000  0.4711520000000 1.0
C      1  0.5549180000000  0.5928300000000  0.5258910000000 1.0
C      1  0.4598910000000  0.4947100000000  0.4024940000000 1.0
C      1  0.4540880000000  0.4633110000000  0.5105900000000 1.0
C      1  0.4073470000000  0.4126250000000  0.4998710000000 1.0
C      1  0.4679890000000  0.5184930000000  0.5495220000000 1.0
C      1  0.4891720000000  0.4526350000000  0.4799350000000 1.0
C      1  0.4867600000000  0.4809420000000  0.4801830000000 1.0
C      1  0.4565360000000  0.4179650000000  0.4940770000000 1.0
C      1  0.4318800000000  0.4102290000000  0.4832260000000 1.0
C      1  0.4264120000000  0.5305290000000  0.4583710000000 1.0
C      1  0.5658520000000  0.5253520000000  0.5671090000000 1.0
C      1  0.5846620000000  0.4400860000000  0.5159720000000 1.0
C      1  0.4871060000000  0.4103740000000  0.5328380000000 1.0
C      1  0.5142290000000  0.5770670000000  0.4223910000000 1.0
C      1  0.5179070000000  0.4780920000000  0.3990510000000 1.0
C      1  0.4142580000000  0.5758230000000  0.4920220000000 1.0
END
