TITL C-883737-113-416 5.85542752934284 125000 -5598.18137299522 0 0 39 (C1) n - 1
REM
REM in /home/nfs/bkarasulu/CARBON/AIRSS/Generating-Clusters/ReaxFF-fromJPCA2015/Units_Real/with-SteepDescent/Only-C1/SD-CG/Try1-3A/FIRE-CG
REM
REM
REM
REM
REM
REM ./C.cell (11c1c37f851c82e70ff6c80c92926a4b)
REM
REM compiler GCC version 9.2.1 20190827 (Red Hat 9.2.1-1)
REM options -cpp -mtune=generic -march=x86-64 -g -O0 -fpre-include=/usr/include/finclude/math-vector-fortran.h
REM seed 626443551 -528025097 1920239344 -1308486380 1961849312 -1186227666 1769905608 -382947234 2004396128 -1745755707 2072293344 -1138525699 640845476 -70788493 -1820004584 1270806774 -2056211391 -1598357543 -830673208 1270995868 1171700859 527647886 -1097123693 -1159152955 -131678509 -807087603 -563759298 1522634234 -911010093 -262799684 964325862 -2016089178 1588638999
REM
CELL 1.54180   50.00000   50.00000   50.00000   90.00000   90.00000   90.00000
LATT -1
SFAC C  
C      1  0.5524880000000  0.5324570000000  0.4534950000000 1.0
C      1  0.5124960000000  0.5099080000000  0.4450490000000 1.0
C      1  0.5239250000000  0.5513060000000  0.5632450000000 1.0
C      1  0.5413390000000  0.5041510000000  0.4524180000000 1.0
C      1  0.4661150000000  0.4522940000000  0.4710820000000 1.0
C      1  0.5217360000000  0.5527090000000  0.5216660000000 1.0
C      1  0.5408500000000  0.4927470000000  0.5013600000000 1.0
C      1  0.5386610000000  0.5473160000000  0.5821980000000 1.0
C      1  0.4686100000000  0.4895530000000  0.5532200000000 1.0
C      1  0.5448690000000  0.4707240000000  0.5195920000000 1.0
C      1  0.4851920000000  0.4311970000000  0.4796220000000 1.0
C      1  0.5321260000000  0.5408010000000  0.4988850000000 1.0
C      1  0.4731860000000  0.5161570000000  0.5474930000000 1.0
C      1  0.5214480000000  0.5141290000000  0.5058900000000 1.0
C      1  0.4764220000000  0.5415930000000  0.5413710000000 1.0
C      1  0.4750990000000  0.4907660000000  0.4936400000000 1.0
C      1  0.4570450000000  0.5542620000000  0.5206490000000 1.0
C      1  0.5050600000000  0.5365290000000  0.4569800000000 1.0
C      1  0.4826450000000  0.4608640000000  0.4482120000000 1.0
C      1  0.4930530000000  0.5114640000000  0.4943600000000 1.0
C      1  0.5021270000000  0.4377020000000  0.4540350000000 1.0
C      1  0.4513790000000  0.4644600000000  0.5238310000000 1.0
C      1  0.5491700000000  0.4482580000000  0.5044730000000 1.0
C      1  0.5297700000000  0.4480800000000  0.5260710000000 1.0
C      1  0.4634400000000  0.5529960000000  0.4879020000000 1.0
C      1  0.4943120000000  0.4874030000000  0.4434700000000 1.0
C      1  0.4962180000000  0.4372620000000  0.5046260000000 1.0
C      1  0.5480440000000  0.4860050000000  0.4744010000000 1.0
C      1  0.5042720000000  0.5556720000000  0.5435000000000 1.0
C      1  0.4844180000000  0.5340520000000  0.4769350000000 1.0
C      1  0.4498130000000  0.5671440000000  0.4712230000000 1.0
C      1  0.4765170000000  0.4647230000000  0.5390550000000 1.0
C      1  0.4387400000000  0.4833780000000  0.5425240000000 1.0
C      1  0.5303570000000  0.5461050000000  0.4680780000000 1.0
C      1  0.5262060000000  0.4456300000000  0.4629750000000 1.0
C      1  0.4997250000000  0.4473310000000  0.5290750000000 1.0
C      1  0.5485690000000  0.4557620000000  0.4754990000000 1.0
C      1  0.4578730000000  0.4709080000000  0.4929500000000 1.0
C      1  0.4366860000000  0.5662030000000  0.5289470000000 1.0
END
