TITL C-884138-6203-41 7374266.08584816 125000 -28780.258489465 0 0 193 (C1) n - 1
REM
REM in /home/nfs/bkarasulu/CARBON/AIRSS/Generating-Clusters/ReaxFF-fromJPCA2015/Units_Real/with-SteepDescent/Only-C1/SD-CG/Try1-3A/FIRE-CG
REM
REM
REM
REM
REM
REM ./C.cell (11c1c37f851c82e70ff6c80c92926a4b)
REM
REM compiler GCC version 9.2.1 20190827 (Red Hat 9.2.1-1)
REM options -cpp -mtune=generic -march=x86-64 -g -O0 -fpre-include=/usr/include/finclude/math-vector-fortran.h
REM seed 1017956144 -129493605 673928941 -1601528221 -209219325 1196491770 -831249149 -1976410517 -904427922 -2009991339 182937330 78755841 -1082373941 -713839835 -412812068 1452062619 -838674339 -175752604 825463709 1103100474 -251410970 585572814 -1105918551 -127325405 -2090898990 474193579 1174019866 767223828 -1718815309 577952903 1117220464 -1960028179 1721660392
REM
CELL 1.54180   50.00000   50.00000   50.00000   90.00000   90.00000   90.00000
LATT -1
SFAC C  
C      1  0.4893540000000  0.5621410000000  0.6067440000000 1.0
C      1  0.4372350000000  0.4321170000000  0.4817100000000 1.0
C      1  0.4690220000000  0.5059080000000  0.6152070000000 1.0
C      1  0.5621340000000  0.5781680000000  0.5360950000000 1.0
C      1  0.4768450000000  0.4994900000000  0.5486150000000 1.0
C      1  0.4421080000000  0.5465060000000  0.4149570000000 1.0
C      1  0.4992540000000  0.5104760000000  0.6112930000000 1.0
C      1  0.4623680000000  0.4673480000000  0.5839000000000 1.0
C      1  0.3848020000000  0.4986490000000  0.4867350000000 1.0
C      1  0.6078210000000  0.4945100000000  0.5399720000000 1.0
C      1  0.5582780000000  0.4909850000000  0.5034670000000 1.0
C      1  0.5150220000000  0.4175080000000  0.5734500000000 1.0
C      1  0.4828820000000  0.4697230000000  0.3869080000000 1.0
C      1  0.5492350000000  0.4568070000000  0.5932750000000 1.0
C      1  0.3951290000000  0.4665380000000  0.4428980000000 1.0
C      1  0.5496280000000  0.4614540000000  0.4059340000000 1.0
C      1  0.5994720000000  0.5561810000000  0.4733460000000 1.0
C      1  0.4449270000000  0.4072700000000  0.4694630000000 1.0
C      1  0.5418300000000  0.4204130000000  0.5614000000000 1.0
C      1  0.4098850000000  0.4296240000000  0.4856090000000 1.0
C      1  0.4552930000000  0.4799440000000  0.3860590000000 1.0
C      1  0.4581310000000  0.5295540000000  0.6279650000000 1.0
C      1  0.4926690000000  0.3847040000000  0.4792230000000 1.0
C      1  0.4415510000000  0.6014220000000  0.5335280000000 1.0
C      1  0.4755910000000  0.5598950000000  0.5297140000000 1.0
C      1  0.4358870000000  0.5613920000000  0.5704460000000 1.0
C      1  0.4383350000000  0.4177270000000  0.5300630000000 1.0
C      1  0.4320560000000  0.4682590000000  0.4018860000000 1.0
C      1  0.5033950000000  0.3884950000000  0.5068180000000 1.0
C      1  0.4290870000000  0.4448160000000  0.5593400000000 1.0
C      1  0.4682720000000  0.3991310000000  0.4856860000000 1.0
C      1  0.4117630000000  0.4946520000000  0.5617390000000 1.0
C      1  0.5225860000000  0.5655930000000  0.4383670000000 1.0
C      1  0.5551200000000  0.5171700000000  0.5480200000000 1.0
C      1  0.5655740000000  0.5172160000000  0.4627960000000 1.0
C      1  0.5767870000000  0.4582570000000  0.5488310000000 1.0
C      1  0.5342810000000  0.4016950000000  0.4541660000000 1.0
C      1  0.4916750000000  0.4862030000000  0.4517210000000 1.0
C      1  0.4165540000000  0.5286510000000  0.4575190000000 1.0
C      1  0.5862380000000  0.4914610000000  0.5856180000000 1.0
C      1  0.5002860000000  0.4352130000000  0.5913480000000 1.0
C      1  0.4169740000000  0.4771690000000  0.4256110000000 1.0
C      1  0.6080300000000  0.4473260000000  0.5141280000000 1.0
C      1  0.5087880000000  0.4670560000000  0.5688070000000 1.0
C      1  0.4166780000000  0.4333770000000  0.5363900000000 1.0
C      1  0.5085700000000  0.5393820000000  0.6093440000000 1.0
C      1  0.4396130000000  0.5187710000000  0.5230650000000 1.0
C      1  0.5973990000000  0.5607240000000  0.5023310000000 1.0
C      1  0.5403820000000  0.5118180000000  0.5896450000000 1.0
C      1  0.4994740000000  0.4659980000000  0.4732190000000 1.0
C      1  0.5199930000000  0.4877110000000  0.4473760000000 1.0
C      1  0.5908180000000  0.4314840000000  0.4947140000000 1.0
C      1  0.4534560000000  0.4297700000000  0.5666200000000 1.0
C      1  0.5405790000000  0.4093370000000  0.4813960000000 1.0
C      1  0.6029980000000  0.5227990000000  0.5411680000000 1.0
C      1  0.4478680000000  0.5179740000000  0.4090930000000 1.0
C      1  0.5272670000000  0.4661930000000  0.5253390000000 1.0
C      1  0.5475880000000  0.4106240000000  0.5274850000000 1.0
C      1  0.4621050000000  0.5088570000000  0.3844120000000 1.0
C      1  0.4718110000000  0.5542400000000  0.4132520000000 1.0
C      1  0.5195140000000  0.4932450000000  0.6035210000000 1.0
C      1  0.5163220000000  0.5459060000000  0.5446600000000 1.0
C      1  0.5921280000000  0.4745860000000  0.4673110000000 1.0
C      1  0.4603050000000  0.5757550000000  0.4844120000000 1.0
C      1  0.4662150000000  0.4227420000000  0.5367320000000 1.0
C      1  0.5695170000000  0.4751370000000  0.5948990000000 1.0
C      1  0.4816390000000  0.5368930000000  0.4642610000000 1.0
C      1  0.5334910000000  0.3948660000000  0.5055670000000 1.0
C      1  0.3898880000000  0.4737480000000  0.4720730000000 1.0
C      1  0.5450690000000  0.5386970000000  0.3997830000000 1.0
C      1  0.4910180000000  0.5151810000000  0.3873060000000 1.0
C      1  0.5090760000000  0.4329300000000  0.5018330000000 1.0
C      1  0.5723790000000  0.4603220000000  0.4252470000000 1.0
C      1  0.4833300000000  0.4237810000000  0.4930840000000 1.0
C      1  0.5336670000000  0.5400590000000  0.5966730000000 1.0
C      1  0.5196110000000  0.5362460000000  0.4480700000000 1.0
C      1  0.5488900000000  0.5635850000000  0.5833800000000 1.0
C      1  0.5048700000000  0.4891120000000  0.3880640000000 1.0
C      1  0.4448360000000  0.5319600000000  0.5702200000000 1.0
C      1  0.5010690000000  0.5923410000000  0.4422400000000 1.0
C      1  0.5791160000000  0.5314520000000  0.5606920000000 1.0
C      1  0.5023190000000  0.4870490000000  0.4921950000000 1.0
C      1  0.5665460000000  0.5618580000000  0.5599610000000 1.0
C      1  0.6127660000000  0.4767610000000  0.5152990000000 1.0
C      1  0.4069180000000  0.4171980000000  0.4599750000000 1.0
C      1  0.5933570000000  0.5342570000000  0.4255870000000 1.0
C      1  0.5135510000000  0.5504760000000  0.4989430000000 1.0
C      1  0.5333860000000  0.4843140000000  0.3962020000000 1.0
C      1  0.4867300000000  0.5813610000000  0.4861610000000 1.0
C      1  0.4854930000000  0.4064010000000  0.4370930000000 1.0
C      1  0.4622080000000  0.5581060000000  0.6175770000000 1.0
C      1  0.4787270000000  0.4469870000000  0.4788370000000 1.0
C      1  0.4519910000000  0.4567160000000  0.4831630000000 1.0
C      1  0.4604510000000  0.5473710000000  0.4831160000000 1.0
C      1  0.4835690000000  0.5171150000000  0.5116340000000 1.0
C      1  0.4270500000000  0.5816750000000  0.5476930000000 1.0
C      1  0.4329190000000  0.4875870000000  0.4474670000000 1.0
C      1  0.5726900000000  0.5160220000000  0.5063030000000 1.0
C      1  0.5292720000000  0.4769230000000  0.5517990000000 1.0
C      1  0.5579040000000  0.4421600000000  0.5699120000000 1.0
C      1  0.5209990000000  0.4262400000000  0.5275000000000 1.0
C      1  0.6093030000000  0.4890390000000  0.4901580000000 1.0
C      1  0.4741270000000  0.6038010000000  0.4432660000000 1.0
C      1  0.5423720000000  0.5767070000000  0.4589850000000 1.0
C      1  0.4624160000000  0.5387870000000  0.5134750000000 1.0
C      1  0.6001300000000  0.5158720000000  0.4967270000000 1.0
C      1  0.4165970000000  0.5851080000000  0.4770010000000 1.0
C      1  0.5718980000000  0.4368010000000  0.4447110000000 1.0
C      1  0.4773310000000  0.5459800000000  0.4379650000000 1.0
C      1  0.3976700000000  0.4390340000000  0.4474380000000 1.0
C      1  0.3884040000000  0.4909550000000  0.5169850000000 1.0
C      1  0.4264420000000  0.5780310000000  0.4503870000000 1.0
C      1  0.4610520000000  0.4708100000000  0.5144890000000 1.0
C      1  0.5213110000000  0.5532900000000  0.4088010000000 1.0
C      1  0.4550170000000  0.4053000000000  0.4412980000000 1.0
C      1  0.4787140000000  0.6095820000000  0.5156370000000 1.0
C      1  0.5331870000000  0.4394450000000  0.4839300000000 1.0
C      1  0.4467220000000  0.5988580000000  0.4524970000000 1.0
C      1  0.4962820000000  0.6118690000000  0.4613380000000 1.0
C      1  0.5408160000000  0.5364680000000  0.5356610000000 1.0
C      1  0.5759050000000  0.4203170000000  0.5183660000000 1.0
C      1  0.5921750000000  0.4785490000000  0.4358130000000 1.0
C      1  0.5671030000000  0.4674790000000  0.5193660000000 1.0
C      1  0.5516200000000  0.4174890000000  0.4357660000000 1.0
C      1  0.4932050000000  0.4302760000000  0.4232400000000 1.0
C      1  0.4911460000000  0.5692990000000  0.5781200000000 1.0
C      1  0.4710660000000  0.4394900000000  0.5883110000000 1.0
C      1  0.5561470000000  0.5396410000000  0.5119310000000 1.0
C      1  0.4261480000000  0.5515720000000  0.4388000000000 1.0
C      1  0.5325350000000  0.5044680000000  0.5592840000000 1.0
C      1  0.4986380000000  0.5582260000000  0.4773800000000 1.0
C      1  0.5732320000000  0.5144800000000  0.5849440000000 1.0
C      1  0.4315010000000  0.5070360000000  0.5797640000000 1.0
C      1  0.5015360000000  0.5074240000000  0.5323960000000 1.0
C      1  0.4233040000000  0.4729400000000  0.5450500000000 1.0
C      1  0.4968090000000  0.5422500000000  0.3987310000000 1.0
C      1  0.4511610000000  0.6128780000000  0.5097810000000 1.0
C      1  0.4061140000000  0.5752150000000  0.5285270000000 1.0
C      1  0.4476250000000  0.5653870000000  0.5943280000000 1.0
C      1  0.5188050000000  0.4639020000000  0.5957120000000 1.0
C      1  0.5303390000000  0.5989270000000  0.5025670000000 1.0
C      1  0.5694900000000  0.5704620000000  0.5080410000000 1.0
C      1  0.3999740000000  0.4652730000000  0.5215650000000 1.0
C      1  0.5252730000000  0.4595130000000  0.4558440000000 1.0
C      1  0.5349540000000  0.5860060000000  0.5739040000000 1.0
C      1  0.3973910000000  0.4556970000000  0.4939470000000 1.0
C      1  0.5054650000000  0.3936910000000  0.4542490000000 1.0
C      1  0.4956390000000  0.5929900000000  0.5612160000000 1.0
C      1  0.5050870000000  0.4097400000000  0.5457140000000 1.0
C      1  0.4002920000000  0.5510230000000  0.5168530000000 1.0
C      1  0.4135490000000  0.5276580000000  0.5266930000000 1.0
C      1  0.4058200000000  0.5723720000000  0.5000970000000 1.0
C      1  0.5456900000000  0.4522840000000  0.5085140000000 1.0
C      1  0.6085690000000  0.5365070000000  0.5164780000000 1.0
C      1  0.5949100000000  0.4795620000000  0.5613320000000 1.0
C      1  0.4760660000000  0.4514370000000  0.4095360000000 1.0
C      1  0.4489360000000  0.4822880000000  0.4694360000000 1.0
C      1  0.4942310000000  0.5437580000000  0.5641790000000 1.0
C      1  0.5193910000000  0.4915700000000  0.5145690000000 1.0
C      1  0.4754030000000  0.4935830000000  0.4978340000000 1.0
C      1  0.5266710000000  0.5118650000000  0.4332830000000 1.0
C      1  0.4746030000000  0.4775550000000  0.4303220000000 1.0
C      1  0.5010010000000  0.6071530000000  0.4933460000000 1.0
C      1  0.4812580000000  0.4700170000000  0.5585720000000 1.0
C      1  0.5852710000000  0.4441280000000  0.4690200000000 1.0
C      1  0.5178760000000  0.4433070000000  0.4316740000000 1.0
C      1  0.5031720000000  0.5572180000000  0.5234920000000 1.0
C      1  0.4508050000000  0.4910510000000  0.5958840000000 1.0
C      1  0.5486740000000  0.5846070000000  0.4854080000000 1.0
C      1  0.5396220000000  0.5303910000000  0.4680530000000 1.0
C      1  0.5232060000000  0.6025350000000  0.5548820000000 1.0
C      1  0.5666200000000  0.4908820000000  0.4744820000000 1.0
C      1  0.4458490000000  0.4226930000000  0.4223440000000 1.0
C      1  0.5704450000000  0.5395850000000  0.4116560000000 1.0
C      1  0.5400160000000  0.4347750000000  0.4141590000000 1.0
C      1  0.4474110000000  0.4924550000000  0.5322990000000 1.0
C      1  0.4734980000000  0.4529530000000  0.5339430000000 1.0
C      1  0.4798090000000  0.5877050000000  0.5362420000000 1.0
C      1  0.5391150000000  0.5960860000000  0.5297750000000 1.0
C      1  0.4320820000000  0.5055290000000  0.4691650000000 1.0
C      1  0.4863260000000  0.3973360000000  0.5289180000000 1.0
C      1  0.5879150000000  0.5361720000000  0.4544870000000 1.0
C      1  0.4726080000000  0.5247400000000  0.5641080000000 1.0
C      1  0.3966980000000  0.5072490000000  0.5399590000000 1.0
C      1  0.6036330000000  0.5034540000000  0.4223040000000 1.0
C      1  0.5419590000000  0.5095520000000  0.4084690000000 1.0
C      1  0.3949720000000  0.5205850000000  0.4718230000000 1.0
C      1  0.4646460000000  0.5019300000000  0.4255500000000 1.0
C      1  0.4453050000000  0.4421930000000  0.4032070000000 1.0
C      1  0.6273830000000  0.4932640000000  0.4213040000000 1.0
C      1  0.5930930000000  0.4353970000000  0.5363120000000 1.0
C      1  0.5359360000000  0.5385290000000  0.4934630000000 1.0
C      1  0.4409330000000  0.5997200000000  0.4814980000000 1.0
END
