TITL C-884127-5181-282 11.4919818331429 125000 -30096.9147438686 0 0 200 (C1) n - 1
REM
REM in /home/nfs/bkarasulu/CARBON/AIRSS/Generating-Clusters/ReaxFF-fromJPCA2015/Units_Real/with-SteepDescent/Only-C1/SD-CG/Try1-3A/FIRE-CG
REM
REM
REM
REM
REM
REM ./C.cell (11c1c37f851c82e70ff6c80c92926a4b)
REM
REM compiler GCC version 9.2.1 20190827 (Red Hat 9.2.1-1)
REM options -cpp -mtune=generic -march=x86-64 -g -O0 -fpre-include=/usr/include/finclude/math-vector-fortran.h
REM seed 1977956154 1177203077 1755635326 177455556 895876098 193044795 1773065941 2085769296 -1792909313 1473148866 -622800734 1973370428 -562062252 1016058910 -1041721700 193070128 -1452379510 -1205591082 -111391354 158846392 1907975919 -986853250 1202999365 -59822873 -1098299261 2137865763 -23647917 -2006519048 1880617386 -2008224088 228152480 -1835342197 -909724605
REM
CELL 1.54180   50.00000   50.00000   50.00000   90.00000   90.00000   90.00000
LATT -1
SFAC C  
C      1  0.5054580000000  0.3987450000000  0.4549980000000 1.0
C      1  0.5475170000000  0.4806920000000  0.5057600000000 1.0
C      1  0.4615160000000  0.5002120000000  0.4115260000000 1.0
C      1  0.4571530000000  0.5904920000000  0.4488690000000 1.0
C      1  0.4592160000000  0.4553610000000  0.5085100000000 1.0
C      1  0.5086140000000  0.5486800000000  0.4631780000000 1.0
C      1  0.4292580000000  0.4753840000000  0.4725180000000 1.0
C      1  0.4612540000000  0.4146180000000  0.5400830000000 1.0
C      1  0.4478990000000  0.5167580000000  0.4818840000000 1.0
C      1  0.4080170000000  0.5357150000000  0.5336170000000 1.0
C      1  0.6202970000000  0.5182990000000  0.4615710000000 1.0
C      1  0.4850760000000  0.5370620000000  0.4696690000000 1.0
C      1  0.5263880000000  0.4683320000000  0.5468180000000 1.0
C      1  0.4842140000000  0.3961790000000  0.5324910000000 1.0
C      1  0.5614160000000  0.5207270000000  0.5200540000000 1.0
C      1  0.5957720000000  0.4264260000000  0.4886340000000 1.0
C      1  0.6291500000000  0.5211630000000  0.5049950000000 1.0
C      1  0.5804730000000  0.5038430000000  0.4848070000000 1.0
C      1  0.4853110000000  0.5249080000000  0.5635450000000 1.0
C      1  0.4525820000000  0.5372370000000  0.6089580000000 1.0
C      1  0.4298710000000  0.5762470000000  0.5584170000000 1.0
C      1  0.5057680000000  0.4320650000000  0.5222910000000 1.0
C      1  0.5246400000000  0.5345010000000  0.5805420000000 1.0
C      1  0.4007080000000  0.4930860000000  0.5052930000000 1.0
C      1  0.5241290000000  0.5135770000000  0.4372060000000 1.0
C      1  0.4465490000000  0.4232640000000  0.5669790000000 1.0
C      1  0.5941230000000  0.5646680000000  0.4574190000000 1.0
C      1  0.4505180000000  0.4641680000000  0.4600100000000 1.0
C      1  0.5929660000000  0.4957210000000  0.5627810000000 1.0
C      1  0.4508620000000  0.6004130000000  0.5156300000000 1.0
C      1  0.6108210000000  0.4907030000000  0.5409460000000 1.0
C      1  0.5793830000000  0.4488680000000  0.5260320000000 1.0
C      1  0.5220570000000  0.5642820000000  0.5621010000000 1.0
C      1  0.5977130000000  0.4746840000000  0.5191950000000 1.0
C      1  0.5028320000000  0.4644160000000  0.5634560000000 1.0
C      1  0.4447160000000  0.4974710000000  0.5624600000000 1.0
C      1  0.3968470000000  0.5362950000000  0.4842400000000 1.0
C      1  0.4743970000000  0.4270970000000  0.4095690000000 1.0
C      1  0.5733370000000  0.4121550000000  0.4761530000000 1.0
C      1  0.5356140000000  0.4976210000000  0.4615300000000 1.0
C      1  0.5751000000000  0.5425200000000  0.5806180000000 1.0
C      1  0.5061860000000  0.5840390000000  0.4276190000000 1.0
C      1  0.4800160000000  0.5116220000000  0.4786290000000 1.0
C      1  0.4661640000000  0.5561530000000  0.4770010000000 1.0
C      1  0.4913720000000  0.5674140000000  0.5639510000000 1.0
C      1  0.4329170000000  0.4918220000000  0.5383810000000 1.0
C      1  0.5525220000000  0.5920850000000  0.5134050000000 1.0
C      1  0.5280750000000  0.5387380000000  0.4201940000000 1.0
C      1  0.4708660000000  0.5178110000000  0.6043950000000 1.0
C      1  0.5562910000000  0.5060220000000  0.6076290000000 1.0
C      1  0.5182580000000  0.4478010000000  0.3981700000000 1.0
C      1  0.5312230000000  0.5570660000000  0.5349290000000 1.0
C      1  0.5072680000000  0.4694960000000  0.4144310000000 1.0
C      1  0.4044790000000  0.5975260000000  0.5189570000000 1.0
C      1  0.4702360000000  0.4951340000000  0.3835190000000 1.0
C      1  0.5560170000000  0.5460040000000  0.4736620000000 1.0
C      1  0.4136220000000  0.5518600000000  0.5567620000000 1.0
C      1  0.6142620000000  0.5467370000000  0.4688320000000 1.0
C      1  0.5497410000000  0.4001800000000  0.4898570000000 1.0
C      1  0.5418680000000  0.4384370000000  0.4487810000000 1.0
C      1  0.4912980000000  0.5404950000000  0.3887930000000 1.0
C      1  0.5509580000000  0.5319260000000  0.5975480000000 1.0
C      1  0.4824780000000  0.5999000000000  0.4393450000000 1.0
C      1  0.4550560000000  0.4401550000000  0.5892690000000 1.0
C      1  0.5750290000000  0.5575580000000  0.4352310000000 1.0
C      1  0.4802340000000  0.4905100000000  0.5273590000000 1.0
C      1  0.5645720000000  0.4798050000000  0.4470310000000 1.0
C      1  0.4269740000000  0.5114080000000  0.5804110000000 1.0
C      1  0.5775000000000  0.5067060000000  0.4388810000000 1.0
C      1  0.4030060000000  0.4374490000000  0.5081020000000 1.0
C      1  0.4034330000000  0.4645590000000  0.4657370000000 1.0
C      1  0.5312820000000  0.5162090000000  0.5587810000000 1.0
C      1  0.4897160000000  0.4404500000000  0.4745660000000 1.0
C      1  0.3935800000000  0.4646200000000  0.5385050000000 1.0
C      1  0.4854000000000  0.4730090000000  0.6115530000000 1.0
C      1  0.5896280000000  0.5255040000000  0.5621680000000 1.0
C      1  0.5709960000000  0.4479980000000  0.5545330000000 1.0
C      1  0.4625950000000  0.3957540000000  0.4820180000000 1.0
C      1  0.3902420000000  0.4904020000000  0.4590590000000 1.0
C      1  0.4650370000000  0.5429110000000  0.5239520000000 1.0
C      1  0.5654170000000  0.5885440000000  0.5644330000000 1.0
C      1  0.4744980000000  0.4667440000000  0.3795520000000 1.0
C      1  0.5152680000000  0.4716380000000  0.6134810000000 1.0
C      1  0.4912610000000  0.5506110000000  0.5148850000000 1.0
C      1  0.4786070000000  0.6018890000000  0.5254840000000 1.0
C      1  0.5379400000000  0.5900810000000  0.5646150000000 1.0
C      1  0.4790330000000  0.6039700000000  0.5530850000000 1.0
C      1  0.4887130000000  0.4372770000000  0.4452120000000 1.0
C      1  0.4825450000000  0.3941080000000  0.5035250000000 1.0
C      1  0.4159070000000  0.4250150000000  0.4838100000000 1.0
C      1  0.5276750000000  0.4953530000000  0.4910610000000 1.0
C      1  0.5224350000000  0.3993500000000  0.4793530000000 1.0
C      1  0.6210180000000  0.5167810000000  0.5326150000000 1.0
C      1  0.4543760000000  0.5622430000000  0.4501700000000 1.0
C      1  0.5364700000000  0.5293690000000  0.5314590000000 1.0
C      1  0.5447030000000  0.4612110000000  0.4003070000000 1.0
C      1  0.5751080000000  0.5705810000000  0.4782810000000 1.0
C      1  0.5517900000000  0.6000860000000  0.5424270000000 1.0
C      1  0.5248570000000  0.6027680000000  0.4655210000000 1.0
C      1  0.5543680000000  0.4799810000000  0.5896470000000 1.0
C      1  0.4086570000000  0.5522090000000  0.4637100000000 1.0
C      1  0.5268100000000  0.5713940000000  0.5105210000000 1.0
C      1  0.5096470000000  0.4080300000000  0.5404030000000 1.0
C      1  0.6254310000000  0.5003950000000  0.4849580000000 1.0
C      1  0.4481720000000  0.5934170000000  0.4872610000000 1.0
C      1  0.5797490000000  0.5755420000000  0.5061090000000 1.0
C      1  0.5328420000000  0.5898230000000  0.4374970000000 1.0
C      1  0.5014590000000  0.5035850000000  0.5024270000000 1.0
C      1  0.5036640000000  0.4250440000000  0.4088440000000 1.0
C      1  0.4494510000000  0.5771720000000  0.5808400000000 1.0
C      1  0.4686460000000  0.4845860000000  0.4386510000000 1.0
C      1  0.5479560000000  0.5666820000000  0.4289330000000 1.0
C      1  0.3999100000000  0.4815490000000  0.5593130000000 1.0
C      1  0.4707390000000  0.5034280000000  0.5521140000000 1.0
C      1  0.5028000000000  0.4856930000000  0.5903890000000 1.0
C      1  0.5489430000000  0.4525130000000  0.5050920000000 1.0
C      1  0.6134250000000  0.4750940000000  0.4932710000000 1.0
C      1  0.5149530000000  0.4198520000000  0.4362580000000 1.0
C      1  0.4373010000000  0.4070290000000  0.4931510000000 1.0
C      1  0.4067690000000  0.5054420000000  0.5342930000000 1.0
C      1  0.5119260000000  0.5313250000000  0.5080500000000 1.0
C      1  0.4594450000000  0.4508360000000  0.3997050000000 1.0
C      1  0.5646450000000  0.5322580000000  0.4452630000000 1.0
C      1  0.5830210000000  0.3974350000000  0.5268410000000 1.0
C      1  0.5998720000000  0.5584320000000  0.5180140000000 1.0
C      1  0.5367750000000  0.4478150000000  0.4778860000000 1.0
C      1  0.4894220000000  0.5009270000000  0.4537540000000 1.0
C      1  0.5829650000000  0.4560300000000  0.4563980000000 1.0
C      1  0.4974710000000  0.5183800000000  0.5896330000000 1.0
C      1  0.4131310000000  0.4380450000000  0.4581070000000 1.0
C      1  0.4269920000000  0.5283640000000  0.6030370000000 1.0
C      1  0.4594080000000  0.5570800000000  0.5958180000000 1.0
C      1  0.4394270000000  0.5220010000000  0.4523910000000 1.0
C      1  0.3888980000000  0.5078490000000  0.4826450000000 1.0
C      1  0.5512850000000  0.4605330000000  0.4288910000000 1.0
C      1  0.4962360000000  0.5796490000000  0.5103350000000 1.0
C      1  0.4732130000000  0.5476360000000  0.5524530000000 1.0
C      1  0.4767990000000  0.5898820000000  0.5776810000000 1.0
C      1  0.6029370000000  0.4530730000000  0.4770820000000 1.0
C      1  0.5773620000000  0.4719480000000  0.5708280000000 1.0
C      1  0.4867100000000  0.4625740000000  0.4317720000000 1.0
C      1  0.5670220000000  0.5637860000000  0.5757170000000 1.0
C      1  0.4633910000000  0.4191340000000  0.4361560000000 1.0
C      1  0.4466730000000  0.5414870000000  0.5008000000000 1.0
C      1  0.5108460000000  0.4819200000000  0.4573220000000 1.0
C      1  0.4327300000000  0.4928820000000  0.4933020000000 1.0
C      1  0.5404780000000  0.4893610000000  0.5612180000000 1.0
C      1  0.5247960000000  0.4921860000000  0.4180140000000 1.0
C      1  0.5114040000000  0.4603990000000  0.4754430000000 1.0
C      1  0.4425730000000  0.5371480000000  0.4052460000000 1.0
C      1  0.5019120000000  0.4154700000000  0.4945240000000 1.0
C      1  0.5344790000000  0.4337240000000  0.5855880000000 1.0
C      1  0.5407360000000  0.4898560000000  0.3935370000000 1.0
C      1  0.4359310000000  0.4596150000000  0.4162330000000 1.0
C      1  0.6075190000000  0.5074060000000  0.4369100000000 1.0
C      1  0.4373430000000  0.4097640000000  0.5220600000000 1.0
C      1  0.5192890000000  0.5039180000000  0.3793680000000 1.0
C      1  0.4443270000000  0.4696330000000  0.5891700000000 1.0
C      1  0.5939280000000  0.4241490000000  0.5175350000000 1.0
C      1  0.4960400000000  0.4870440000000  0.3725680000000 1.0
C      1  0.5697970000000  0.5290430000000  0.4943580000000 1.0
C      1  0.5508430000000  0.4275020000000  0.5618970000000 1.0
C      1  0.4493130000000  0.4825000000000  0.5161270000000 1.0
C      1  0.4519790000000  0.5396260000000  0.4331360000000 1.0
C      1  0.4191590000000  0.4635090000000  0.5722170000000 1.0
C      1  0.4616320000000  0.4880020000000  0.6050770000000 1.0
C      1  0.4126650000000  0.5305660000000  0.4442030000000 1.0
C      1  0.4348530000000  0.5074540000000  0.4033610000000 1.0
C      1  0.5079840000000  0.5554700000000  0.4346860000000 1.0
C      1  0.5168560000000  0.5310310000000  0.3913670000000 1.0
C      1  0.4811040000000  0.4316800000000  0.5868530000000 1.0
C      1  0.5699240000000  0.4939470000000  0.5141430000000 1.0
C      1  0.6034420000000  0.5385730000000  0.5406320000000 1.0
C      1  0.4107320000000  0.5348270000000  0.5805980000000 1.0
C      1  0.4373380000000  0.4418140000000  0.4401890000000 1.0
C      1  0.5060110000000  0.4358510000000  0.5771000000000 1.0
C      1  0.6182590000000  0.5473750000000  0.4975380000000 1.0
C      1  0.3905790000000  0.4639060000000  0.5113030000000 1.0
C      1  0.4767610000000  0.4430920000000  0.5285770000000 1.0
C      1  0.4253910000000  0.5805830000000  0.4737960000000 1.0
C      1  0.5406170000000  0.6062940000000  0.4886440000000 1.0
C      1  0.4789570000000  0.5837350000000  0.4840270000000 1.0
C      1  0.5376960000000  0.4569830000000  0.6025080000000 1.0
C      1  0.4669150000000  0.5433030000000  0.3925000000000 1.0
C      1  0.4227470000000  0.4372530000000  0.5589380000000 1.0
C      1  0.4293570000000  0.5952480000000  0.5358000000000 1.0
C      1  0.5274400000000  0.5501790000000  0.4849050000000 1.0
C      1  0.4073140000000  0.5778940000000  0.4964380000000 1.0
C      1  0.4146220000000  0.5473710000000  0.5072540000000 1.0
C      1  0.5701940000000  0.4299580000000  0.4535290000000 1.0
C      1  0.4759580000000  0.3999570000000  0.4562510000000 1.0
C      1  0.4046270000000  0.5023100000000  0.4369440000000 1.0
C      1  0.4649900000000  0.4522230000000  0.4814530000000 1.0
C      1  0.4943290000000  0.6021050000000  0.4657190000000 1.0
C      1  0.4162680000000  0.4265490000000  0.5318800000000 1.0
C      1  0.5386650000000  0.4074380000000  0.5432100000000 1.0
C      1  0.4831770000000  0.4659240000000  0.5434620000000 1.0
C      1  0.4209350000000  0.4859030000000  0.4175320000000 1.0
C      1  0.5541440000000  0.3969260000000  0.5195890000000 1.0
C      1  0.5278320000000  0.4511310000000  0.5247050000000 1.0
END
