TITL C-883731-9874-104 4.52428340178182 125000 -19375.517198232 0 0 129 (C1) n - 1
REM
REM in /home/nfs/bkarasulu/CARBON/AIRSS/Generating-Clusters/ReaxFF-fromJPCA2015/Units_Real/with-SteepDescent/Only-C1/SD-CG/Try1-3A/FIRE-CG
REM
REM
REM
REM
REM
REM ./C.cell (11c1c37f851c82e70ff6c80c92926a4b)
REM
REM compiler GCC version 9.2.1 20190827 (Red Hat 9.2.1-1)
REM options -cpp -mtune=generic -march=x86-64 -g -O0 -fpre-include=/usr/include/finclude/math-vector-fortran.h
REM seed -1265067347 -554766681 -1338965719 -1723337177 1102908632 -1935709925 -235069095 1477172775 1071666791 -305256636 -924739607 337451004 1381155462 -1913357706 1380351851 -533460233 332989443 1710251901 2048611604 -1045810729 -1915766853 -1371964491 -1261591529 2088812980 1681301407 1664204804 -1367241002 1952490887 -869290515 -249165116 -778985850 -1314368880 -87854425
REM
CELL 1.54180   50.00000   50.00000   50.00000   90.00000   90.00000   90.00000
LATT -1
SFAC C  
C      1  0.5236750000000  0.5748520000000  0.5280640000000 1.0
C      1  0.5081910000000  0.5708480000000  0.4248860000000 1.0
C      1  0.5883240000000  0.4745040000000  0.4705710000000 1.0
C      1  0.4586220000000  0.4648460000000  0.4511310000000 1.0
C      1  0.5447250000000  0.4664620000000  0.5403470000000 1.0
C      1  0.5422980000000  0.5560980000000  0.5468580000000 1.0
C      1  0.4721980000000  0.5674860000000  0.5241620000000 1.0
C      1  0.5482040000000  0.4740070000000  0.4940280000000 1.0
C      1  0.4699450000000  0.4052980000000  0.5309510000000 1.0
C      1  0.5082220000000  0.4977870000000  0.5380880000000 1.0
C      1  0.4879000000000  0.4499490000000  0.5868400000000 1.0
C      1  0.5631120000000  0.4338260000000  0.4714740000000 1.0
C      1  0.5093140000000  0.4898680000000  0.4688230000000 1.0
C      1  0.5304380000000  0.5506210000000  0.4233380000000 1.0
C      1  0.5315050000000  0.4195340000000  0.5272140000000 1.0
C      1  0.5108360000000  0.4383070000000  0.5177270000000 1.0
C      1  0.4639190000000  0.5440350000000  0.4098920000000 1.0
C      1  0.4684150000000  0.4701830000000  0.5828200000000 1.0
C      1  0.4315130000000  0.5050900000000  0.5675030000000 1.0
C      1  0.4479670000000  0.4629950000000  0.5637170000000 1.0
C      1  0.5104430000000  0.4172740000000  0.4434490000000 1.0
C      1  0.4682340000000  0.5998270000000  0.4863570000000 1.0
C      1  0.4485800000000  0.4256400000000  0.5274750000000 1.0
C      1  0.5067960000000  0.4476190000000  0.4376310000000 1.0
C      1  0.4640330000000  0.5158000000000  0.5236480000000 1.0
C      1  0.5439290000000  0.5000630000000  0.5015260000000 1.0
C      1  0.4124800000000  0.4812520000000  0.5254150000000 1.0
C      1  0.4610990000000  0.5444450000000  0.5701120000000 1.0
C      1  0.5468130000000  0.4553380000000  0.5155620000000 1.0
C      1  0.4144440000000  0.4560520000000  0.4770980000000 1.0
C      1  0.5422040000000  0.4275410000000  0.5540300000000 1.0
C      1  0.5149540000000  0.4546080000000  0.5941310000000 1.0
C      1  0.5757940000000  0.4479670000000  0.5147800000000 1.0
C      1  0.5156920000000  0.5507220000000  0.5117310000000 1.0
C      1  0.5707970000000  0.5084600000000  0.4357700000000 1.0
C      1  0.5526560000000  0.5188240000000  0.4160220000000 1.0
C      1  0.5525750000000  0.5735330000000  0.4609110000000 1.0
C      1  0.4433360000000  0.5557580000000  0.4271220000000 1.0
C      1  0.5952930000000  0.4813760000000  0.5477990000000 1.0
C      1  0.4735560000000  0.5874680000000  0.4598350000000 1.0
C      1  0.4209780000000  0.5452340000000  0.4445650000000 1.0
C      1  0.5523060000000  0.5215170000000  0.4864620000000 1.0
C      1  0.5524720000000  0.5228480000000  0.4568980000000 1.0
C      1  0.4673180000000  0.4718490000000  0.5259210000000 1.0
C      1  0.4999690000000  0.4415500000000  0.4906270000000 1.0
C      1  0.4297940000000  0.5675280000000  0.4916750000000 1.0
C      1  0.4805520000000  0.4624220000000  0.4308360000000 1.0
C      1  0.4319060000000  0.4524330000000  0.4530430000000 1.0
C      1  0.5626560000000  0.5504550000000  0.5260950000000 1.0
C      1  0.5043830000000  0.5048050000000  0.5938210000000 1.0
C      1  0.5797490000000  0.5089600000000  0.5515510000000 1.0
C      1  0.5354220000000  0.4012880000000  0.5031770000000 1.0
C      1  0.5756240000000  0.4804140000000  0.4417670000000 1.0
C      1  0.4843070000000  0.4847960000000  0.4137770000000 1.0
C      1  0.4256870000000  0.5051000000000  0.4325840000000 1.0
C      1  0.4184710000000  0.5212830000000  0.5477890000000 1.0
C      1  0.5443980000000  0.4566120000000  0.4713090000000 1.0
C      1  0.4447270000000  0.4420290000000  0.5044360000000 1.0
C      1  0.4889570000000  0.4276450000000  0.5402610000000 1.0
C      1  0.5648080000000  0.5763540000000  0.5049660000000 1.0
C      1  0.4790280000000  0.5215150000000  0.4999130000000 1.0
C      1  0.4734490000000  0.5677380000000  0.5790140000000 1.0
C      1  0.4869840000000  0.6019830000000  0.5080170000000 1.0
C      1  0.5562350000000  0.5118890000000  0.5684440000000 1.0
C      1  0.4274480000000  0.4293640000000  0.4699700000000 1.0
C      1  0.5279760000000  0.5816230000000  0.4729460000000 1.0
C      1  0.4595330000000  0.5116320000000  0.4739340000000 1.0
C      1  0.4795070000000  0.4231300000000  0.4799790000000 1.0
C      1  0.5126800000000  0.5299760000000  0.4379810000000 1.0
C      1  0.4255080000000  0.5686960000000  0.4627980000000 1.0
C      1  0.5005570000000  0.5750930000000  0.4556030000000 1.0
C      1  0.4953440000000  0.4024990000000  0.4652050000000 1.0
C      1  0.4494070000000  0.5772800000000  0.4471120000000 1.0
C      1  0.5525060000000  0.5509170000000  0.4422410000000 1.0
C      1  0.4097020000000  0.5185510000000  0.4505570000000 1.0
C      1  0.4283000000000  0.4802920000000  0.5521300000000 1.0
C      1  0.5444710000000  0.4850650000000  0.5748920000000 1.0
C      1  0.4468280000000  0.4984070000000  0.4207390000000 1.0
C      1  0.5241170000000  0.5074270000000  0.4518190000000 1.0
C      1  0.5515090000000  0.4067430000000  0.4771020000000 1.0
C      1  0.4335660000000  0.5205300000000  0.4829590000000 1.0
C      1  0.4514560000000  0.5818300000000  0.5025010000000 1.0
C      1  0.4248300000000  0.5391630000000  0.5032570000000 1.0
C      1  0.5951310000000  0.4952350000000  0.4863460000000 1.0
C      1  0.5834460000000  0.4488690000000  0.4862790000000 1.0
C      1  0.5258230000000  0.4802310000000  0.5524300000000 1.0
C      1  0.6073990000000  0.4918590000000  0.5248550000000 1.0
C      1  0.4129110000000  0.4778730000000  0.4963210000000 1.0
C      1  0.5130660000000  0.3951950000000  0.4869710000000 1.0
C      1  0.5600200000000  0.4510230000000  0.5581710000000 1.0
C      1  0.5175450000000  0.5308990000000  0.5884080000000 1.0
C      1  0.6007960000000  0.5138660000000  0.5081220000000 1.0
C      1  0.4729820000000  0.5255910000000  0.4506230000000 1.0
C      1  0.4786500000000  0.4958960000000  0.5377730000000 1.0
C      1  0.4705840000000  0.5140060000000  0.4211050000000 1.0
C      1  0.5124330000000  0.4830480000000  0.4041290000000 1.0
C      1  0.4941320000000  0.5440410000000  0.4559480000000 1.0
C      1  0.4861040000000  0.5596760000000  0.4127130000000 1.0
C      1  0.4887570000000  0.5475950000000  0.5085220000000 1.0
C      1  0.4604060000000  0.4487170000000  0.5419760000000 1.0
C      1  0.5349720000000  0.4078250000000  0.4536400000000 1.0
C      1  0.4951480000000  0.4275870000000  0.5695570000000 1.0
C      1  0.4620710000000  0.4809850000000  0.4750110000000 1.0
C      1  0.5413430000000  0.5397290000000  0.5052950000000 1.0
C      1  0.5139480000000  0.4585830000000  0.4681800000000 1.0
C      1  0.4760440000000  0.4979190000000  0.5881270000000 1.0
C      1  0.5190050000000  0.5026210000000  0.5128230000000 1.0
C      1  0.3993040000000  0.5236730000000  0.5040590000000 1.0
C      1  0.5232230000000  0.4318360000000  0.5757110000000 1.0
C      1  0.5230010000000  0.4826340000000  0.5952960000000 1.0
C      1  0.4547680000000  0.5549520000000  0.5448520000000 1.0
C      1  0.4011020000000  0.5079690000000  0.5285810000000 1.0
C      1  0.4090930000000  0.5067430000000  0.4822900000000 1.0
C      1  0.5388410000000  0.5355830000000  0.5666800000000 1.0
C      1  0.5279870000000  0.4622970000000  0.4191170000000 1.0
C      1  0.4961430000000  0.5874840000000  0.5296250000000 1.0
C      1  0.4560730000000  0.5163300000000  0.5792640000000 1.0
C      1  0.4504370000000  0.4199220000000  0.4863310000000 1.0
C      1  0.5373940000000  0.5847120000000  0.4997960000000 1.0
C      1  0.4916900000000  0.5748710000000  0.5965950000000 1.0
C      1  0.5527000000000  0.4703750000000  0.4299900000000 1.0
C      1  0.4414130000000  0.5334710000000  0.5309820000000 1.0
C      1  0.5326920000000  0.5022450000000  0.4065230000000 1.0
C      1  0.5833390000000  0.5261730000000  0.5293490000000 1.0
C      1  0.5843780000000  0.4546070000000  0.5418340000000 1.0
C      1  0.5782810000000  0.5764950000000  0.4797030000000 1.0
C      1  0.5006610000000  0.5028330000000  0.4931440000000 1.0
C      1  0.5073800000000  0.5557270000000  0.5973580000000 1.0
C      1  0.4589250000000  0.4675740000000  0.5000840000000 1.0
END
