TITL C-884133-6611-383 24.1517861738194 125000 -19401.3853108945 0 0 131 (C1) n - 1
REM
REM in /home/nfs/bkarasulu/CARBON/AIRSS/Generating-Clusters/ReaxFF-fromJPCA2015/Units_Real/with-SteepDescent/Only-C1/SD-CG/Try1-3A/FIRE-CG
REM
REM
REM
REM
REM
REM ./C.cell (11c1c37f851c82e70ff6c80c92926a4b)
REM
REM compiler GCC version 9.2.1 20190827 (Red Hat 9.2.1-1)
REM options -cpp -mtune=generic -march=x86-64 -g -O0 -fpre-include=/usr/include/finclude/math-vector-fortran.h
REM seed -1896009753 -648453752 1583079070 -29283580 1791692672 283403481 2015872340 1504436773 -1551914691 -1171060341 1371184032 -1424649767 -1507042080 1697207966 -20892741 1241582086 1665247735 -522500913 -1206615613 -577449542 547621920 -1308495221 -745215977 1956516196 -1250603744 -1752743389 2146812783 1293381808 535904640 1493141312 752448839 -1532635916 1313087475
REM
CELL 1.54180   50.00000   50.00000   50.00000   90.00000   90.00000   90.00000
LATT -1
SFAC C  
C      1  0.5359290000000  0.5849150000000  0.4650550000000 1.0
C      1  0.5762900000000  0.4479730000000  0.5136440000000 1.0
C      1  0.4952190000000  0.4079200000000  0.5045160000000 1.0
C      1  0.5233290000000  0.4487760000000  0.5670250000000 1.0
C      1  0.4967680000000  0.4074530000000  0.5343100000000 1.0
C      1  0.4784960000000  0.4714580000000  0.5284620000000 1.0
C      1  0.5790070000000  0.5607790000000  0.4619440000000 1.0
C      1  0.5467450000000  0.5135410000000  0.5789830000000 1.0
C      1  0.5315280000000  0.4774770000000  0.5006010000000 1.0
C      1  0.5327300000000  0.4289470000000  0.5273080000000 1.0
C      1  0.5655970000000  0.4672740000000  0.4568510000000 1.0
C      1  0.4572300000000  0.5797460000000  0.4917590000000 1.0
C      1  0.5282850000000  0.5079670000000  0.6053150000000 1.0
C      1  0.5481780000000  0.5092810000000  0.4678290000000 1.0
C      1  0.4316450000000  0.5183430000000  0.5692190000000 1.0
C      1  0.5332360000000  0.4308030000000  0.4539910000000 1.0
C      1  0.4294300000000  0.4415380000000  0.4476800000000 1.0
C      1  0.5852820000000  0.5256510000000  0.5500990000000 1.0
C      1  0.5507510000000  0.5922760000000  0.4903930000000 1.0
C      1  0.4617340000000  0.5765400000000  0.5527280000000 1.0
C      1  0.5140540000000  0.4066080000000  0.4527220000000 1.0
C      1  0.4431800000000  0.5613520000000  0.5117280000000 1.0
C      1  0.4535150000000  0.5051150000000  0.4180150000000 1.0
C      1  0.5900390000000  0.4863650000000  0.4610730000000 1.0
C      1  0.4854000000000  0.5186650000000  0.5808050000000 1.0
C      1  0.5205850000000  0.5379520000000  0.4100880000000 1.0
C      1  0.4564110000000  0.5222220000000  0.5882980000000 1.0
C      1  0.4323600000000  0.5005080000000  0.4702560000000 1.0
C      1  0.5399570000000  0.5444960000000  0.4337950000000 1.0
C      1  0.5036710000000  0.4982760000000  0.5941800000000 1.0
C      1  0.5056960000000  0.5336410000000  0.5069600000000 1.0
C      1  0.4909770000000  0.5572480000000  0.5137450000000 1.0
C      1  0.5386070000000  0.5812390000000  0.5520170000000 1.0
C      1  0.5871540000000  0.5128230000000  0.4495280000000 1.0
C      1  0.5731230000000  0.4010220000000  0.4970080000000 1.0
C      1  0.4143820000000  0.4559370000000  0.4684430000000 1.0
C      1  0.4759810000000  0.4689160000000  0.5841660000000 1.0
C      1  0.5249810000000  0.5100950000000  0.4058980000000 1.0
C      1  0.4405000000000  0.5156070000000  0.4422340000000 1.0
C      1  0.4919290000000  0.5082860000000  0.4937620000000 1.0
C      1  0.4557920000000  0.5499050000000  0.5906330000000 1.0
C      1  0.4167780000000  0.4654940000000  0.5500690000000 1.0
C      1  0.4578990000000  0.4752180000000  0.4144680000000 1.0
C      1  0.4489310000000  0.4800220000000  0.4904260000000 1.0
C      1  0.4517770000000  0.4501940000000  0.4282630000000 1.0
C      1  0.5915560000000  0.4725160000000  0.5104920000000 1.0
C      1  0.5360750000000  0.5328660000000  0.4787020000000 1.0
C      1  0.4062390000000  0.5177130000000  0.5360900000000 1.0
C      1  0.5841460000000  0.4969390000000  0.5576990000000 1.0
C      1  0.4834570000000  0.5128070000000  0.4667860000000 1.0
C      1  0.4616820000000  0.5145900000000  0.5273200000000 1.0
C      1  0.4880320000000  0.5830000000000  0.4957910000000 1.0
C      1  0.4411130000000  0.4235970000000  0.4653670000000 1.0
C      1  0.5017410000000  0.4850830000000  0.5438640000000 1.0
C      1  0.5253410000000  0.4882830000000  0.5263150000000 1.0
C      1  0.4375120000000  0.5628140000000  0.5396660000000 1.0
C      1  0.4981220000000  0.5266320000000  0.4505610000000 1.0
C      1  0.4255970000000  0.4617130000000  0.4965320000000 1.0
C      1  0.4669190000000  0.4929270000000  0.5102390000000 1.0
C      1  0.5839690000000  0.5314670000000  0.5210850000000 1.0
C      1  0.4966950000000  0.4987820000000  0.4463710000000 1.0
C      1  0.4690340000000  0.4063520000000  0.5447830000000 1.0
C      1  0.5489280000000  0.4608230000000  0.5599230000000 1.0
C      1  0.4970920000000  0.4986160000000  0.4135320000000 1.0
C      1  0.4483420000000  0.5323150000000  0.5094560000000 1.0
C      1  0.4184280000000  0.4623470000000  0.5229860000000 1.0
C      1  0.5531380000000  0.5619230000000  0.5621050000000 1.0
C      1  0.5587360000000  0.5158560000000  0.4389080000000 1.0
C      1  0.5510700000000  0.5009540000000  0.5280640000000 1.0
C      1  0.5058690000000  0.4662020000000  0.4666110000000 1.0
C      1  0.5391110000000  0.5763900000000  0.5120390000000 1.0
C      1  0.5969520000000  0.4921790000000  0.4888960000000 1.0
C      1  0.5169130000000  0.4248820000000  0.5502360000000 1.0
C      1  0.4863370000000  0.5593040000000  0.5425970000000 1.0
C      1  0.5658790000000  0.5379360000000  0.5683210000000 1.0
C      1  0.5061550000000  0.5848180000000  0.4681310000000 1.0
C      1  0.5464840000000  0.4695730000000  0.4302560000000 1.0
C      1  0.5053640000000  0.5446170000000  0.5569540000000 1.0
C      1  0.5041900000000  0.4712560000000  0.5733690000000 1.0
C      1  0.5752880000000  0.4261470000000  0.4910710000000 1.0
C      1  0.5745470000000  0.5806780000000  0.4805210000000 1.0
C      1  0.4611710000000  0.4274760000000  0.5276370000000 1.0
C      1  0.4165220000000  0.4977220000000  0.5547680000000 1.0
C      1  0.4313260000000  0.4416870000000  0.5641010000000 1.0
C      1  0.4951180000000  0.5999250000000  0.5209010000000 1.0
C      1  0.4568090000000  0.4685000000000  0.5483680000000 1.0
C      1  0.4822590000000  0.4482020000000  0.4643630000000 1.0
C      1  0.4531150000000  0.5679170000000  0.4361010000000 1.0
C      1  0.5530210000000  0.5680300000000  0.4482420000000 1.0
C      1  0.4658940000000  0.4506590000000  0.4892490000000 1.0
C      1  0.4789400000000  0.5088000000000  0.5518020000000 1.0
C      1  0.5555250000000  0.4459340000000  0.5340150000000 1.0
C      1  0.4591450000000  0.4487730000000  0.5708690000000 1.0
C      1  0.5207450000000  0.5409540000000  0.4560040000000 1.0
C      1  0.4227840000000  0.5390950000000  0.5497760000000 1.0
C      1  0.4573700000000  0.5767410000000  0.5863240000000 1.0
C      1  0.4735020000000  0.6025620000000  0.5395680000000 1.0
C      1  0.4620110000000  0.4886880000000  0.5670860000000 1.0
C      1  0.4276030000000  0.5211280000000  0.4914100000000 1.0
C      1  0.5916820000000  0.5334240000000  0.4692240000000 1.0
C      1  0.5553570000000  0.5271100000000  0.5206640000000 1.0
C      1  0.4062750000000  0.4842680000000  0.4664060000000 1.0
C      1  0.5243780000000  0.5924410000000  0.5307540000000 1.0
C      1  0.5955550000000  0.5211220000000  0.4953500000000 1.0
C      1  0.3888380000000  0.4964320000000  0.4873590000000 1.0
C      1  0.5663140000000  0.4357110000000  0.4616880000000 1.0
C      1  0.4762960000000  0.4346140000000  0.4277790000000 1.0
C      1  0.4032570000000  0.5154480000000  0.5057160000000 1.0
C      1  0.4805640000000  0.4465450000000  0.5146380000000 1.0
C      1  0.5764050000000  0.4852530000000  0.5319960000000 1.0
C      1  0.5344740000000  0.5433390000000  0.5066220000000 1.0
C      1  0.4811460000000  0.5686530000000  0.4237910000000 1.0
C      1  0.5602350000000  0.4860180000000  0.5702460000000 1.0
C      1  0.5238390000000  0.5274920000000  0.5661460000000 1.0
C      1  0.5220350000000  0.4445810000000  0.4778360000000 1.0
C      1  0.4937820000000  0.5768210000000  0.4461950000000 1.0
C      1  0.4744180000000  0.4067270000000  0.4834610000000 1.0
C      1  0.4866150000000  0.4179240000000  0.4571630000000 1.0
C      1  0.5272430000000  0.4494360000000  0.4286580000000 1.0
C      1  0.5115730000000  0.4329810000000  0.5030190000000 1.0
C      1  0.4492960000000  0.5783030000000  0.4643620000000 1.0
C      1  0.4998820000000  0.4479350000000  0.4165990000000 1.0
C      1  0.5515270000000  0.4839970000000  0.4792700000000 1.0
C      1  0.4541480000000  0.4240490000000  0.4881290000000 1.0
C      1  0.5073290000000  0.4838500000000  0.4895020000000 1.0
C      1  0.4919640000000  0.5443000000000  0.4095290000000 1.0
C      1  0.4410810000000  0.4196670000000  0.5471670000000 1.0
C      1  0.4461500000000  0.5410970000000  0.4397670000000 1.0
C      1  0.4764130000000  0.5198590000000  0.4071070000000 1.0
C      1  0.4852170000000  0.4708390000000  0.4061630000000 1.0
C      1  0.5467150000000  0.4962160000000  0.4191750000000 1.0
END
