TITL C-883728-9229-272 -25.1364211128734 125000 -21146.6815577501 0 0 143 (C1) n - 1
REM
REM in /home/nfs/bkarasulu/CARBON/AIRSS/Generating-Clusters/ReaxFF-fromJPCA2015/Units_Real/with-SteepDescent/Only-C1/SD-CG/Try1-3A/FIRE-CG
REM
REM
REM
REM
REM
REM ./C.cell (11c1c37f851c82e70ff6c80c92926a4b)
REM
REM compiler GCC version 9.2.1 20190827 (Red Hat 9.2.1-1)
REM options -cpp -mtune=generic -march=x86-64 -g -O0 -fpre-include=/usr/include/finclude/math-vector-fortran.h
REM seed -1136703285 -1040693939 1788834942 -400109440 310801029 -273194708 -825356631 736484133 1361709835 229233690 -1710400163 1881534442 1598098228 -2070640341 -1835859915 2004021024 377948744 1703903809 -306094170 -1213545637 756442249 1311015375 26622605 804479968 -1631160190 -206902569 336674004 -63709156 -1901558372 -1167763799 -1387928498 -1890361296 1988707016
REM
CELL 1.54180   50.00000   50.00000   50.00000   90.00000   90.00000   90.00000
LATT -1
SFAC C  
C      1  0.5689590000000  0.4321120000000  0.4691130000000 1.0
C      1  0.4687450000000  0.5879780000000  0.5375670000000 1.0
C      1  0.4810290000000  0.4903650000000  0.5717210000000 1.0
C      1  0.5671180000000  0.4660130000000  0.5690630000000 1.0
C      1  0.5119910000000  0.4980520000000  0.6041410000000 1.0
C      1  0.4292910000000  0.5406730000000  0.4410300000000 1.0
C      1  0.5104220000000  0.4527890000000  0.5643760000000 1.0
C      1  0.4882440000000  0.4722190000000  0.5205420000000 1.0
C      1  0.5325080000000  0.4172730000000  0.5304210000000 1.0
C      1  0.5744170000000  0.5191360000000  0.5225440000000 1.0
C      1  0.5891600000000  0.5264880000000  0.5462700000000 1.0
C      1  0.5512200000000  0.4804610000000  0.4837170000000 1.0
C      1  0.5242950000000  0.5500520000000  0.5416110000000 1.0
C      1  0.5464410000000  0.4427280000000  0.5339020000000 1.0
C      1  0.4389460000000  0.5331890000000  0.5196390000000 1.0
C      1  0.4611280000000  0.5007790000000  0.4897410000000 1.0
C      1  0.4687670000000  0.4376170000000  0.5722680000000 1.0
C      1  0.5826030000000  0.4790320000000  0.5477250000000 1.0
C      1  0.5937890000000  0.5242680000000  0.4626580000000 1.0
C      1  0.5489120000000  0.5507740000000  0.4677650000000 1.0
C      1  0.4750900000000  0.4002520000000  0.4790810000000 1.0
C      1  0.5798740000000  0.4578480000000  0.4627480000000 1.0
C      1  0.4227270000000  0.4603160000000  0.5234230000000 1.0
C      1  0.4594880000000  0.5442930000000  0.5614290000000 1.0
C      1  0.4830180000000  0.4960300000000  0.6020250000000 1.0
C      1  0.4784830000000  0.5408620000000  0.4373150000000 1.0
C      1  0.4427590000000  0.4402380000000  0.5571060000000 1.0
C      1  0.4329720000000  0.4869750000000  0.5641820000000 1.0
C      1  0.5189940000000  0.5217670000000  0.5502410000000 1.0
C      1  0.5164790000000  0.4892210000000  0.3942620000000 1.0
C      1  0.5709570000000  0.5617360000000  0.4839120000000 1.0
C      1  0.5971190000000  0.5230230000000  0.5048650000000 1.0
C      1  0.4792840000000  0.4206390000000  0.5494590000000 1.0
C      1  0.4031860000000  0.5542770000000  0.5088380000000 1.0
C      1  0.4450020000000  0.5746620000000  0.4922440000000 1.0
C      1  0.5011540000000  0.5778360000000  0.5614820000000 1.0
C      1  0.5266680000000  0.4282590000000  0.4367370000000 1.0
C      1  0.4554800000000  0.4088440000000  0.4623400000000 1.0
C      1  0.4809260000000  0.5375100000000  0.6010860000000 1.0
C      1  0.5450980000000  0.4103800000000  0.5051560000000 1.0
C      1  0.5179670000000  0.4765780000000  0.4478000000000 1.0
C      1  0.5543710000000  0.5465470000000  0.5756520000000 1.0
C      1  0.5021000000000  0.5529090000000  0.4447400000000 1.0
C      1  0.4958530000000  0.5782050000000  0.4328870000000 1.0
C      1  0.4130850000000  0.4500650000000  0.4723180000000 1.0
C      1  0.4963530000000  0.3986210000000  0.5141210000000 1.0
C      1  0.4268020000000  0.4228370000000  0.4732570000000 1.0
C      1  0.5757580000000  0.4695150000000  0.4363130000000 1.0
C      1  0.5353350000000  0.4678750000000  0.5247420000000 1.0
C      1  0.5284200000000  0.4559730000000  0.4223350000000 1.0
C      1  0.4669500000000  0.5786380000000  0.5103760000000 1.0
C      1  0.4869390000000  0.5243790000000  0.5139500000000 1.0
C      1  0.5600160000000  0.5192200000000  0.5819630000000 1.0
C      1  0.4644840000000  0.4466260000000  0.4328370000000 1.0
C      1  0.4313040000000  0.5156300000000  0.4243400000000 1.0
C      1  0.4788530000000  0.4645160000000  0.4140000000000 1.0
C      1  0.4213250000000  0.5131070000000  0.5690660000000 1.0
C      1  0.4232010000000  0.4614440000000  0.5525110000000 1.0
C      1  0.5312570000000  0.4359600000000  0.5776750000000 1.0
C      1  0.5762350000000  0.5228900000000  0.4389350000000 1.0
C      1  0.5552240000000  0.5392380000000  0.4261680000000 1.0
C      1  0.5693630000000  0.4238580000000  0.4978400000000 1.0
C      1  0.4449340000000  0.4789680000000  0.5236620000000 1.0
C      1  0.5439710000000  0.4204570000000  0.4578440000000 1.0
C      1  0.5058500000000  0.4638490000000  0.4030870000000 1.0
C      1  0.4991080000000  0.5911760000000  0.4792360000000 1.0
C      1  0.4813990000000  0.5282150000000  0.4125670000000 1.0
C      1  0.5329120000000  0.5281790000000  0.4764720000000 1.0
C      1  0.4301540000000  0.5508820000000  0.4949060000000 1.0
C      1  0.4853670000000  0.4962510000000  0.5054270000000 1.0
C      1  0.4579980000000  0.4323430000000  0.5326480000000 1.0
C      1  0.4225140000000  0.5001010000000  0.4713300000000 1.0
C      1  0.5386590000000  0.4989520000000  0.5952890000000 1.0
C      1  0.5658610000000  0.4962550000000  0.4441950000000 1.0
C      1  0.4244320000000  0.4033720000000  0.4891630000000 1.0
C      1  0.5019250000000  0.4999410000000  0.4416680000000 1.0
C      1  0.5138430000000  0.4456360000000  0.4856440000000 1.0
C      1  0.4635260000000  0.5255820000000  0.5391920000000 1.0
C      1  0.4690600000000  0.5651550000000  0.4253740000000 1.0
C      1  0.5090590000000  0.5144780000000  0.4110470000000 1.0
C      1  0.5004220000000  0.4288690000000  0.4495780000000 1.0
C      1  0.4867510000000  0.5314280000000  0.4822220000000 1.0
C      1  0.5068390000000  0.5186660000000  0.4659740000000 1.0
C      1  0.5480900000000  0.5699910000000  0.5287580000000 1.0
C      1  0.4148560000000  0.5449020000000  0.5338140000000 1.0
C      1  0.5258800000000  0.4164160000000  0.4822530000000 1.0
C      1  0.5550200000000  0.4686430000000  0.4147860000000 1.0
C      1  0.5307130000000  0.4660160000000  0.4971830000000 1.0
C      1  0.3836360000000  0.5323610000000  0.5040580000000 1.0
C      1  0.4326230000000  0.5295610000000  0.4688550000000 1.0
C      1  0.5810520000000  0.5053990000000  0.5636670000000 1.0
C      1  0.5846130000000  0.4683310000000  0.5205280000000 1.0
C      1  0.4631890000000  0.5220070000000  0.4681360000000 1.0
C      1  0.4720490000000  0.5712540000000  0.5616960000000 1.0
C      1  0.4753030000000  0.4895170000000  0.4294280000000 1.0
C      1  0.5426600000000  0.4827170000000  0.5708160000000 1.0
C      1  0.5607570000000  0.4369050000000  0.5766080000000 1.0
C      1  0.5794660000000  0.5520080000000  0.5621120000000 1.0
C      1  0.5946400000000  0.5448890000000  0.4837900000000 1.0
C      1  0.4609430000000  0.5181620000000  0.6034800000000 1.0
C      1  0.5683350000000  0.5674090000000  0.5415520000000 1.0
C      1  0.5470800000000  0.5618390000000  0.4420760000000 1.0
C      1  0.5011280000000  0.3950400000000  0.4874120000000 1.0
C      1  0.4042340000000  0.4909860000000  0.4923750000000 1.0
C      1  0.5231010000000  0.5872600000000  0.4621030000000 1.0
C      1  0.4860410000000  0.4606180000000  0.5782160000000 1.0
C      1  0.5226230000000  0.5593570000000  0.5709940000000 1.0
C      1  0.5389040000000  0.5208150000000  0.4102010000000 1.0
C      1  0.4075910000000  0.4625270000000  0.4980480000000 1.0
C      1  0.5448210000000  0.4929410000000  0.4015150000000 1.0
C      1  0.4063650000000  0.5201440000000  0.5449760000000 1.0
C      1  0.4594410000000  0.5095240000000  0.4152550000000 1.0
C      1  0.4981070000000  0.4565610000000  0.4634490000000 1.0
C      1  0.5373700000000  0.5009020000000  0.5479210000000 1.0
C      1  0.5315700000000  0.5261260000000  0.5055080000000 1.0
C      1  0.3997930000000  0.5094640000000  0.5160550000000 1.0
C      1  0.5231320000000  0.5654020000000  0.4278680000000 1.0
C      1  0.5965250000000  0.5030270000000  0.4829860000000 1.0
C      1  0.5473510000000  0.5055430000000  0.5204580000000 1.0
C      1  0.5097370000000  0.5443470000000  0.5159360000000 1.0
C      1  0.5814720000000  0.4772990000000  0.4887090000000 1.0
C      1  0.5589360000000  0.5816500000000  0.5034630000000 1.0
C      1  0.4181750000000  0.4660370000000  0.4473080000000 1.0
C      1  0.4734710000000  0.4197640000000  0.4412880000000 1.0
C      1  0.4980920000000  0.5906560000000  0.5351380000000 1.0
C      1  0.5050190000000  0.5389630000000  0.5870080000000 1.0
C      1  0.4638460000000  0.4578130000000  0.5186140000000 1.0
C      1  0.4438710000000  0.5290610000000  0.5815600000000 1.0
C      1  0.4431070000000  0.5658180000000  0.4394300000000 1.0
C      1  0.4147430000000  0.4915800000000  0.4309750000000 1.0
C      1  0.5043990000000  0.4078060000000  0.5386610000000 1.0
C      1  0.4578020000000  0.4969230000000  0.5514550000000 1.0
C      1  0.5108420000000  0.4631120000000  0.5367450000000 1.0
C      1  0.4648770000000  0.4618090000000  0.4576990000000 1.0
C      1  0.4477370000000  0.5831400000000  0.4639400000000 1.0
C      1  0.4986190000000  0.5177340000000  0.5691730000000 1.0
C      1  0.4739910000000  0.5909390000000  0.4685040000000 1.0
C      1  0.5403770000000  0.5904230000000  0.4834100000000 1.0
C      1  0.4399380000000  0.5049860000000  0.5090340000000 1.0
C      1  0.5420160000000  0.4879770000000  0.4593430000000 1.0
C      1  0.4963900000000  0.5760330000000  0.5082960000000 1.0
C      1  0.4418120000000  0.4791270000000  0.4603720000000 1.0
C      1  0.5732070000000  0.4420900000000  0.5209100000000 1.0
END
