TITL C-883734-4173-176 -5.61777160306977 125000 -5620.49187875137 0 0 39 (C1) n - 1
REM
REM in /home/nfs/bkarasulu/CARBON/AIRSS/Generating-Clusters/ReaxFF-fromJPCA2015/Units_Real/with-SteepDescent/Only-C1/SD-CG/Try1-3A/FIRE-CG
REM
REM
REM
REM
REM
REM ./C.cell (11c1c37f851c82e70ff6c80c92926a4b)
REM
REM compiler GCC version 9.2.1 20190827 (Red Hat 9.2.1-1)
REM options -cpp -mtune=generic -march=x86-64 -g -O0 -fpre-include=/usr/include/finclude/math-vector-fortran.h
REM seed -2084171637 -1034787445 1072019186 856903868 -1378235539 998865912 -2082650534 1691164678 1923206737 -2103016122 -2066224222 2091948091 777378222 1355045120 703555680 1765669228 1862518085 -457434067 -485244388 103791355 269025907 -1739273256 1743938230 -1826989612 -127858001 -62024779 -558795239 -1394809542 559308622 1749230899 -1590056974 -4244407 -1134124922
REM
CELL 1.54180   50.00000   50.00000   50.00000   90.00000   90.00000   90.00000
LATT -1
SFAC C  
C      1  0.4772160000000  0.5378110000000  0.4495980000000 1.0
C      1  0.4901810000000  0.5012750000000  0.4981510000000 1.0
C      1  0.5035330000000  0.5081300000000  0.5585420000000 1.0
C      1  0.4897620000000  0.5305900000000  0.4966740000000 1.0
C      1  0.4422940000000  0.4940970000000  0.5126560000000 1.0
C      1  0.4629040000000  0.5361300000000  0.5356260000000 1.0
C      1  0.4453850000000  0.5045070000000  0.4510790000000 1.0
C      1  0.5279180000000  0.4671700000000  0.4730500000000 1.0
C      1  0.5121420000000  0.4426570000000  0.4774870000000 1.0
C      1  0.4682340000000  0.4830720000000  0.5041870000000 1.0
C      1  0.4556580000000  0.5464540000000  0.4660700000000 1.0
C      1  0.5495190000000  0.4650520000000  0.5232740000000 1.0
C      1  0.4939780000000  0.4878750000000  0.4408000000000 1.0
C      1  0.5364920000000  0.5137910000000  0.4558230000000 1.0
C      1  0.4820800000000  0.5481430000000  0.4758580000000 1.0
C      1  0.4287960000000  0.5165130000000  0.4991330000000 1.0
C      1  0.4811400000000  0.5411790000000  0.5156870000000 1.0
C      1  0.4824340000000  0.4462580000000  0.4739910000000 1.0
C      1  0.5577900000000  0.5490630000000  0.4933840000000 1.0
C      1  0.5359280000000  0.5438400000000  0.5411840000000 1.0
C      1  0.4837570000000  0.5293750000000  0.5555800000000 1.0
C      1  0.5133820000000  0.5362920000000  0.5583900000000 1.0
C      1  0.5593470000000  0.5404520000000  0.5241410000000 1.0
C      1  0.5280560000000  0.4640500000000  0.5418450000000 1.0
C      1  0.4728340000000  0.4540930000000  0.5014460000000 1.0
C      1  0.4898270000000  0.4381590000000  0.5189260000000 1.0
C      1  0.5659140000000  0.5135140000000  0.5265290000000 1.0
C      1  0.4726870000000  0.5103750000000  0.4410140000000 1.0
C      1  0.5365650000000  0.4783990000000  0.4988810000000 1.0
C      1  0.5169020000000  0.4407320000000  0.5317010000000 1.0
C      1  0.5148570000000  0.4933900000000  0.5113490000000 1.0
C      1  0.5131130000000  0.4878260000000  0.5399810000000 1.0
C      1  0.5135630000000  0.4303470000000  0.5041100000000 1.0
C      1  0.4395940000000  0.5198360000000  0.5260180000000 1.0
C      1  0.5652570000000  0.4885510000000  0.5262030000000 1.0
C      1  0.4366940000000  0.5249430000000  0.4715940000000 1.0
C      1  0.5478490000000  0.5329460000000  0.4730710000000 1.0
C      1  0.4850770000000  0.4657520000000  0.4541810000000 1.0
C      1  0.5213420000000  0.4873610000000  0.4527870000000 1.0
END
