TITL C-883741-3679-188 124.260747596446 125000 -23889.7351754995 0 0 163 (C1) n - 1
REM
REM in /home/nfs/bkarasulu/CARBON/AIRSS/Generating-Clusters/ReaxFF-fromJPCA2015/Units_Real/with-SteepDescent/Only-C1/SD-CG/Try1-3A/FIRE-CG
REM
REM
REM
REM
REM
REM ./C.cell (11c1c37f851c82e70ff6c80c92926a4b)
REM
REM compiler GCC version 9.2.1 20190827 (Red Hat 9.2.1-1)
REM options -cpp -mtune=generic -march=x86-64 -g -O0 -fpre-include=/usr/include/finclude/math-vector-fortran.h
REM seed -2119633942 1450821417 39229088 -1501594715 -1138163308 -892490257 812400396 -904904887 2051176654 -1677419023 1125357052 175152297 -1362178048 -1196862741 504596833 1211890928 135614032 1938266892 -1732495646 -1056698099 705220091 -2011169094 211394782 -1981463784 -814825808 1949492487 -351914682 863349878 -1990816465 1858667885 -1027890558 161971745 -740175257
REM
CELL 1.54180   50.00000   50.00000   50.00000   90.00000   90.00000   90.00000
LATT -1
SFAC C  
C      1  0.4757980000000  0.4999690000000  0.5254780000000 1.0
C      1  0.5721580000000  0.5739020000000  0.5138110000000 1.0
C      1  0.4900150000000  0.5141780000000  0.3900370000000 1.0
C      1  0.5044860000000  0.5910460000000  0.4754690000000 1.0
C      1  0.4402550000000  0.5684090000000  0.5250020000000 1.0
C      1  0.4687230000000  0.4516730000000  0.4452110000000 1.0
C      1  0.5345760000000  0.4648890000000  0.4060860000000 1.0
C      1  0.5572600000000  0.5024340000000  0.5162510000000 1.0
C      1  0.4751500000000  0.4037000000000  0.4603420000000 1.0
C      1  0.4192000000000  0.4889290000000  0.4160400000000 1.0
C      1  0.4900220000000  0.4500320000000  0.4964200000000 1.0
C      1  0.5904910000000  0.4491680000000  0.5116660000000 1.0
C      1  0.4658690000000  0.5947070000000  0.5720850000000 1.0
C      1  0.5837020000000  0.4968060000000  0.4413640000000 1.0
C      1  0.5027560000000  0.5295020000000  0.5453010000000 1.0
C      1  0.5787450000000  0.4789150000000  0.4691590000000 1.0
C      1  0.5918660000000  0.5342930000000  0.5089540000000 1.0
C      1  0.5073890000000  0.5775650000000  0.5572410000000 1.0
C      1  0.5380030000000  0.5100210000000  0.4187450000000 1.0
C      1  0.5375290000000  0.5650810000000  0.4929890000000 1.0
C      1  0.4822480000000  0.5311180000000  0.4349150000000 1.0
C      1  0.5515620000000  0.5938370000000  0.5172760000000 1.0
C      1  0.5282040000000  0.5330100000000  0.6005570000000 1.0
C      1  0.4905320000000  0.4643300000000  0.6046860000000 1.0
C      1  0.5163710000000  0.5551520000000  0.4127950000000 1.0
C      1  0.4400660000000  0.4514120000000  0.4558350000000 1.0
C      1  0.5226020000000  0.3818290000000  0.4714660000000 1.0
C      1  0.4362620000000  0.4155390000000  0.5393580000000 1.0
C      1  0.4204230000000  0.4391180000000  0.5361860000000 1.0
C      1  0.4484880000000  0.4000660000000  0.5192450000000 1.0
C      1  0.4392510000000  0.5828590000000  0.4491910000000 1.0
C      1  0.4626660000000  0.5855150000000  0.5393640000000 1.0
C      1  0.4842830000000  0.4850640000000  0.3920160000000 1.0
C      1  0.5124290000000  0.4210590000000  0.5689010000000 1.0
C      1  0.4767390000000  0.3960850000000  0.5220510000000 1.0
C      1  0.4723900000000  0.4203790000000  0.5754610000000 1.0
C      1  0.4775450000000  0.5375160000000  0.5094480000000 1.0
C      1  0.4018320000000  0.4851470000000  0.4592890000000 1.0
C      1  0.5410060000000  0.4261990000000  0.5618900000000 1.0
C      1  0.4349620000000  0.4033400000000  0.4943270000000 1.0
C      1  0.5189140000000  0.4480390000000  0.4906650000000 1.0
C      1  0.4750770000000  0.6049180000000  0.5223850000000 1.0
C      1  0.4403690000000  0.5776720000000  0.4974280000000 1.0
C      1  0.4857860000000  0.4454910000000  0.5250190000000 1.0
C      1  0.4102550000000  0.5124210000000  0.4976390000000 1.0
C      1  0.5262890000000  0.5022280000000  0.4443820000000 1.0
C      1  0.4467940000000  0.4062580000000  0.4676260000000 1.0
C      1  0.5638930000000  0.5271360000000  0.5073020000000 1.0
C      1  0.4721100000000  0.5492840000000  0.4835860000000 1.0
C      1  0.5215530000000  0.5902960000000  0.5335400000000 1.0
C      1  0.4605320000000  0.4634350000000  0.5992970000000 1.0
C      1  0.4965030000000  0.5019790000000  0.5788720000000 1.0
C      1  0.5226810000000  0.5629830000000  0.5169620000000 1.0
C      1  0.5003330000000  0.5277500000000  0.5918550000000 1.0
C      1  0.5196030000000  0.4742800000000  0.4450270000000 1.0
C      1  0.4792720000000  0.5411180000000  0.5577020000000 1.0
C      1  0.5111940000000  0.4820070000000  0.5941110000000 1.0
C      1  0.4012680000000  0.4856780000000  0.5340990000000 1.0
C      1  0.4063940000000  0.5029070000000  0.4355720000000 1.0
C      1  0.5576890000000  0.5698950000000  0.4523350000000 1.0
C      1  0.5525260000000  0.4863860000000  0.4067540000000 1.0
C      1  0.5308060000000  0.5185540000000  0.4695300000000 1.0
C      1  0.5526480000000  0.5279720000000  0.5547360000000 1.0
C      1  0.5288280000000  0.6032080000000  0.4680400000000 1.0
C      1  0.5764320000000  0.5662940000000  0.4788730000000 1.0
C      1  0.5758940000000  0.5112460000000  0.5696160000000 1.0
C      1  0.4490320000000  0.4910140000000  0.5169680000000 1.0
C      1  0.5968440000000  0.5453490000000  0.4695740000000 1.0
C      1  0.3929950000000  0.4915290000000  0.4871030000000 1.0
C      1  0.5450160000000  0.4113790000000  0.5091260000000 1.0
C      1  0.5248280000000  0.3909910000000  0.5007540000000 1.0
C      1  0.5766570000000  0.4696280000000  0.5504300000000 1.0
C      1  0.4286070000000  0.5668250000000  0.4724960000000 1.0
C      1  0.5768930000000  0.4756060000000  0.4220500000000 1.0
C      1  0.5534190000000  0.4688900000000  0.4815680000000 1.0
C      1  0.5463740000000  0.5932290000000  0.4886590000000 1.0
C      1  0.5829230000000  0.4299770000000  0.4893210000000 1.0
C      1  0.5739020000000  0.4448910000000  0.5351540000000 1.0
C      1  0.4756320000000  0.4793290000000  0.4562080000000 1.0
C      1  0.5366590000000  0.4975680000000  0.5337190000000 1.0
C      1  0.4957160000000  0.3865880000000  0.5029110000000 1.0
C      1  0.4860820000000  0.6061110000000  0.4954110000000 1.0
C      1  0.5080690000000  0.4498500000000  0.5678200000000 1.0
C      1  0.5461960000000  0.5108770000000  0.6014840000000 1.0
C      1  0.4583570000000  0.5011940000000  0.4496880000000 1.0
C      1  0.5162590000000  0.4534850000000  0.4239430000000 1.0
C      1  0.4256460000000  0.4723140000000  0.4689840000000 1.0
C      1  0.4838820000000  0.4761200000000  0.4837390000000 1.0
C      1  0.4960830000000  0.4648410000000  0.5448870000000 1.0
C      1  0.4834530000000  0.5485240000000  0.4581070000000 1.0
C      1  0.5447870000000  0.4250140000000  0.4531490000000 1.0
C      1  0.5659760000000  0.4824540000000  0.5732540000000 1.0
C      1  0.4795030000000  0.4917800000000  0.5546410000000 1.0
C      1  0.5429410000000  0.4774430000000  0.5914720000000 1.0
C      1  0.4459550000000  0.4236320000000  0.5645630000000 1.0
C      1  0.4636400000000  0.5046000000000  0.3962000000000 1.0
C      1  0.5274080000000  0.5166360000000  0.5521500000000 1.0
C      1  0.5812460000000  0.4567430000000  0.4412760000000 1.0
C      1  0.5323800000000  0.4552840000000  0.4654650000000 1.0
C      1  0.5571120000000  0.5556740000000  0.5612060000000 1.0
C      1  0.5409590000000  0.5391590000000  0.4155530000000 1.0
C      1  0.5278670000000  0.5471550000000  0.4719590000000 1.0
C      1  0.5188880000000  0.4788880000000  0.5222180000000 1.0
C      1  0.4701770000000  0.4443880000000  0.4141620000000 1.0
C      1  0.4315060000000  0.4873250000000  0.5380650000000 1.0
C      1  0.4705660000000  0.5225370000000  0.4858270000000 1.0
C      1  0.4477770000000  0.4953110000000  0.5619110000000 1.0
C      1  0.4160260000000  0.5319500000000  0.4387210000000 1.0
C      1  0.4791930000000  0.5819710000000  0.4352510000000 1.0
C      1  0.5014990000000  0.6076150000000  0.5219450000000 1.0
C      1  0.5529350000000  0.4245340000000  0.5351350000000 1.0
C      1  0.4638730000000  0.5965980000000  0.4565960000000 1.0
C      1  0.5996340000000  0.4917520000000  0.4858420000000 1.0
C      1  0.5628890000000  0.5497950000000  0.4322610000000 1.0
C      1  0.4301800000000  0.5441220000000  0.5359450000000 1.0
C      1  0.4305780000000  0.4481920000000  0.5631480000000 1.0
C      1  0.5647080000000  0.4409700000000  0.4407870000000 1.0
C      1  0.4172550000000  0.4262770000000  0.4892220000000 1.0
C      1  0.4416480000000  0.4707570000000  0.5781380000000 1.0
C      1  0.4906730000000  0.4084080000000  0.5574130000000 1.0
C      1  0.4522150000000  0.5686050000000  0.4270940000000 1.0
C      1  0.4893840000000  0.4256170000000  0.4486140000000 1.0
C      1  0.5055810000000  0.5637470000000  0.4666420000000 1.0
C      1  0.4957150000000  0.4909720000000  0.5059240000000 1.0
C      1  0.5332500000000  0.5850210000000  0.4460820000000 1.0
C      1  0.3957760000000  0.4711830000000  0.5090390000000 1.0
C      1  0.4081730000000  0.5289290000000  0.5215590000000 1.0
C      1  0.4330470000000  0.4753410000000  0.3969670000000 1.0
C      1  0.5781800000000  0.5612570000000  0.5394090000000 1.0
C      1  0.4488680000000  0.5422460000000  0.5854480000000 1.0
C      1  0.6048050000000  0.5210300000000  0.4863370000000 1.0
C      1  0.4403570000000  0.5292270000000  0.5612000000000 1.0
C      1  0.4847670000000  0.5657390000000  0.5436200000000 1.0
C      1  0.4288070000000  0.4279260000000  0.4625720000000 1.0
C      1  0.4582440000000  0.5174980000000  0.4258400000000 1.0
C      1  0.3891310000000  0.5127420000000  0.5387610000000 1.0
C      1  0.5083540000000  0.5776710000000  0.4294990000000 1.0
C      1  0.4251380000000  0.5394100000000  0.4650320000000 1.0
C      1  0.5166720000000  0.4279060000000  0.4403110000000 1.0
C      1  0.4881300000000  0.4181130000000  0.5325780000000 1.0
C      1  0.5961320000000  0.5136520000000  0.5487910000000 1.0
C      1  0.5791650000000  0.5250440000000  0.4378330000000 1.0
C      1  0.4763460000000  0.4392380000000  0.5979410000000 1.0
C      1  0.4389740000000  0.5426530000000  0.4245060000000 1.0
C      1  0.5998810000000  0.4767020000000  0.5103910000000 1.0
C      1  0.4923250000000  0.3831480000000  0.4740850000000 1.0
C      1  0.4890010000000  0.5813560000000  0.5805110000000 1.0
C      1  0.4952090000000  0.5350030000000  0.4100920000000 1.0
C      1  0.5505850000000  0.5104200000000  0.4885950000000 1.0
C      1  0.4343180000000  0.4952460000000  0.4902920000000 1.0
C      1  0.5361220000000  0.4537960000000  0.5733950000000 1.0
C      1  0.4602230000000  0.5956920000000  0.4859010000000 1.0
C      1  0.4098820000000  0.4458320000000  0.5100850000000 1.0
C      1  0.4470750000000  0.5157210000000  0.4717840000000 1.0
C      1  0.5981510000000  0.5397640000000  0.5369660000000 1.0
C      1  0.5375770000000  0.4630960000000  0.5046940000000 1.0
C      1  0.5047220000000  0.5401390000000  0.5191770000000 1.0
C      1  0.5903300000000  0.4895110000000  0.5346090000000 1.0
C      1  0.5525000000000  0.5501830000000  0.5899100000000 1.0
C      1  0.5689340000000  0.5267300000000  0.5946630000000 1.0
C      1  0.4637160000000  0.4631630000000  0.3938150000000 1.0
C      1  0.5572440000000  0.4178390000000  0.4833930000000 1.0
C      1  0.4801940000000  0.5495940000000  0.5875970000000 1.0
END
