TITL C-884127-5181-48 3072801.42801011 125000 -27498.0114509932 0 0 186 (C1) n - 1
REM
REM in /home/nfs/bkarasulu/CARBON/AIRSS/Generating-Clusters/ReaxFF-fromJPCA2015/Units_Real/with-SteepDescent/Only-C1/SD-CG/Try1-3A/FIRE-CG
REM
REM
REM
REM
REM
REM ./C.cell (11c1c37f851c82e70ff6c80c92926a4b)
REM
REM compiler GCC version 9.2.1 20190827 (Red Hat 9.2.1-1)
REM options -cpp -mtune=generic -march=x86-64 -g -O0 -fpre-include=/usr/include/finclude/math-vector-fortran.h
REM seed 1933369083 -1915135976 -1870244464 -34399728 -1508204155 756376977 -307717977 916230549 -1628380140 756633697 2107585819 1869683869 -1805833426 1323387918 730441574 1430972112 -1890811073 -1748322616 -974787661 1412902687 -761477725 -987982969 2092420318 -651952504 1531091792 -902397484 -632360027 352459948 -1007134315 -1743568391 977612964 -356460258 1463580333
REM
CELL 1.54180   50.00000   50.00000   50.00000   90.00000   90.00000   90.00000
LATT -1
SFAC C  
C      1  0.4793680000000  0.5927410000000  0.5125160000000 1.0
C      1  0.4116540000000  0.4242750000000  0.5096530000000 1.0
C      1  0.5406500000000  0.5716960000000  0.5107070000000 1.0
C      1  0.5619920000000  0.4054270000000  0.4802500000000 1.0
C      1  0.5123340000000  0.5171300000000  0.3920410000000 1.0
C      1  0.5609720000000  0.5769310000000  0.5512530000000 1.0
C      1  0.5072420000000  0.6106270000000  0.5548030000000 1.0
C      1  0.5417480000000  0.5560350000000  0.4176600000000 1.0
C      1  0.4994840000000  0.4886690000000  0.5334740000000 1.0
C      1  0.4637350000000  0.5830760000000  0.5357570000000 1.0
C      1  0.5721290000000  0.4208180000000  0.5328620000000 1.0
C      1  0.4582360000000  0.3961780000000  0.4820790000000 1.0
C      1  0.5965370000000  0.4815800000000  0.4115440000000 1.0
C      1  0.5686620000000  0.4288180000000  0.5027540000000 1.0
C      1  0.4344270000000  0.5536930000000  0.4738710000000 1.0
C      1  0.5097260000000  0.4029460000000  0.5659370000000 1.0
C      1  0.4570840000000  0.6045340000000  0.4916360000000 1.0
C      1  0.4949730000000  0.4375290000000  0.4111720000000 1.0
C      1  0.4384610000000  0.4420530000000  0.5475490000000 1.0
C      1  0.4712280000000  0.5270300000000  0.5332340000000 1.0
C      1  0.4704100000000  0.5987810000000  0.4392300000000 1.0
C      1  0.5197270000000  0.3822090000000  0.4997390000000 1.0
C      1  0.5306520000000  0.6129640000000  0.4607030000000 1.0
C      1  0.4165760000000  0.5449840000000  0.5649590000000 1.0
C      1  0.5242730000000  0.5991090000000  0.4357090000000 1.0
C      1  0.5554780000000  0.5192310000000  0.4570270000000 1.0
C      1  0.4133930000000  0.4140320000000  0.4792480000000 1.0
C      1  0.4892580000000  0.5615730000000  0.5094240000000 1.0
C      1  0.5352690000000  0.5304320000000  0.4081710000000 1.0
C      1  0.5077430000000  0.4258770000000  0.5102900000000 1.0
C      1  0.5434610000000  0.5432500000000  0.5917300000000 1.0
C      1  0.4932850000000  0.5359280000000  0.4407460000000 1.0
C      1  0.4799190000000  0.4240440000000  0.5460830000000 1.0
C      1  0.4529240000000  0.4657860000000  0.4452170000000 1.0
C      1  0.4127920000000  0.4868620000000  0.5554910000000 1.0
C      1  0.3890700000000  0.4662760000000  0.4737550000000 1.0
C      1  0.6025110000000  0.5225430000000  0.5221730000000 1.0
C      1  0.5575190000000  0.4964930000000  0.6041720000000 1.0
C      1  0.4862210000000  0.4736480000000  0.4784540000000 1.0
C      1  0.4811260000000  0.4803730000000  0.3810660000000 1.0
C      1  0.5587890000000  0.6085100000000  0.4710320000000 1.0
C      1  0.4737740000000  0.4935640000000  0.4952030000000 1.0
C      1  0.4911980000000  0.4671660000000  0.5701170000000 1.0
C      1  0.4085710000000  0.5555230000000  0.4645330000000 1.0
C      1  0.4633440000000  0.4040390000000  0.4343920000000 1.0
C      1  0.4318080000000  0.5914650000000  0.4948850000000 1.0
C      1  0.5159860000000  0.5354510000000  0.5955750000000 1.0
C      1  0.5098530000000  0.5074900000000  0.4392880000000 1.0
C      1  0.5551560000000  0.4059190000000  0.4519930000000 1.0
C      1  0.5687160000000  0.4718920000000  0.4628920000000 1.0
C      1  0.4910530000000  0.5468870000000  0.5341500000000 1.0
C      1  0.5127770000000  0.4224390000000  0.5842820000000 1.0
C      1  0.5137810000000  0.4722900000000  0.4783290000000 1.0
C      1  0.4449740000000  0.5484920000000  0.4987460000000 1.0
C      1  0.6063990000000  0.5321450000000  0.4950160000000 1.0
C      1  0.4701340000000  0.5715910000000  0.5620710000000 1.0
C      1  0.5822150000000  0.5146170000000  0.5689650000000 1.0
C      1  0.3975300000000  0.5048120000000  0.5378710000000 1.0
C      1  0.5263130000000  0.4997880000000  0.5752140000000 1.0
C      1  0.5971950000000  0.4682830000000  0.4602080000000 1.0
C      1  0.4341630000000  0.4190490000000  0.5269190000000 1.0
C      1  0.5045960000000  0.4848070000000  0.5910970000000 1.0
C      1  0.4656710000000  0.6051360000000  0.4656400000000 1.0
C      1  0.5424950000000  0.3854550000000  0.4855540000000 1.0
C      1  0.4961580000000  0.5867780000000  0.5688830000000 1.0
C      1  0.5573280000000  0.4952590000000  0.4737720000000 1.0
C      1  0.4526020000000  0.4588970000000  0.5934810000000 1.0
C      1  0.5375360000000  0.5147920000000  0.4337790000000 1.0
C      1  0.5055200000000  0.4527760000000  0.4368470000000 1.0
C      1  0.5862670000000  0.4801360000000  0.5351590000000 1.0
C      1  0.4445010000000  0.5179290000000  0.4483550000000 1.0
C      1  0.3825120000000  0.5032670000000  0.5112470000000 1.0
C      1  0.4391460000000  0.5725400000000  0.5157130000000 1.0
C      1  0.4438640000000  0.5583250000000  0.4274270000000 1.0
C      1  0.5149160000000  0.5734440000000  0.4719210000000 1.0
C      1  0.5002240000000  0.4611170000000  0.3890340000000 1.0
C      1  0.5117550000000  0.6021850000000  0.4799380000000 1.0
C      1  0.4400730000000  0.4209500000000  0.4324790000000 1.0
C      1  0.5878880000000  0.5504710000000  0.4799490000000 1.0
C      1  0.4367280000000  0.4992940000000  0.5665780000000 1.0
C      1  0.4548860000000  0.4117410000000  0.5065860000000 1.0
C      1  0.4620730000000  0.4854220000000  0.5583010000000 1.0
C      1  0.5364150000000  0.4529750000000  0.4339840000000 1.0
C      1  0.5468520000000  0.5694610000000  0.5753730000000 1.0
C      1  0.4108700000000  0.5731810000000  0.5254660000000 1.0
C      1  0.4288640000000  0.5056100000000  0.5126460000000 1.0
C      1  0.5292860000000  0.4412830000000  0.5309210000000 1.0
C      1  0.4298590000000  0.3891290000000  0.4754860000000 1.0
C      1  0.5178910000000  0.4726660000000  0.6147960000000 1.0
C      1  0.5587030000000  0.5434610000000  0.4731810000000 1.0
C      1  0.4414250000000  0.5280930000000  0.5702130000000 1.0
C      1  0.5102150000000  0.4886810000000  0.3847490000000 1.0
C      1  0.4683190000000  0.4818280000000  0.4271080000000 1.0
C      1  0.4849970000000  0.4372370000000  0.5727980000000 1.0
C      1  0.5257850000000  0.4024140000000  0.4403620000000 1.0
C      1  0.4584060000000  0.5198320000000  0.3981800000000 1.0
C      1  0.4610400000000  0.4910320000000  0.3997990000000 1.0
C      1  0.6092160000000  0.4605600000000  0.4870220000000 1.0
C      1  0.4917080000000  0.4351720000000  0.4606090000000 1.0
C      1  0.5651220000000  0.5205320000000  0.5925180000000 1.0
C      1  0.4175860000000  0.4283470000000  0.4548910000000 1.0
C      1  0.5642340000000  0.4660190000000  0.5703350000000 1.0
C      1  0.5123190000000  0.4275560000000  0.4799940000000 1.0
C      1  0.5875270000000  0.5320780000000  0.5455730000000 1.0
C      1  0.5479660000000  0.4705840000000  0.6119330000000 1.0
C      1  0.5487290000000  0.4531670000000  0.5104410000000 1.0
C      1  0.5503470000000  0.4527400000000  0.4587610000000 1.0
C      1  0.5256910000000  0.5300850000000  0.5069840000000 1.0
C      1  0.5137060000000  0.4663550000000  0.5487980000000 1.0
C      1  0.5144910000000  0.4150190000000  0.4167850000000 1.0
C      1  0.5505720000000  0.5958390000000  0.5249170000000 1.0
C      1  0.4968950000000  0.4828360000000  0.4351100000000 1.0
C      1  0.3881980000000  0.5297980000000  0.5002510000000 1.0
C      1  0.5850220000000  0.4860750000000  0.5636010000000 1.0
C      1  0.3983080000000  0.5332700000000  0.5453660000000 1.0
C      1  0.4232590000000  0.5101660000000  0.4674740000000 1.0
C      1  0.5177910000000  0.5437220000000  0.5482340000000 1.0
C      1  0.4859640000000  0.5305640000000  0.3915280000000 1.0
C      1  0.6054000000000  0.4607050000000  0.4286410000000 1.0
C      1  0.4681240000000  0.5395200000000  0.5731090000000 1.0
C      1  0.5502670000000  0.4642890000000  0.4134300000000 1.0
C      1  0.5227230000000  0.5026770000000  0.5117390000000 1.0
C      1  0.4445570000000  0.5829570000000  0.4382930000000 1.0
C      1  0.4828140000000  0.4409530000000  0.5197660000000 1.0
C      1  0.5014440000000  0.5399750000000  0.4939880000000 1.0
C      1  0.4011980000000  0.4521930000000  0.4528180000000 1.0
C      1  0.5027530000000  0.3967450000000  0.5160650000000 1.0
C      1  0.4284420000000  0.5729260000000  0.5938500000000 1.0
C      1  0.5474160000000  0.4264280000000  0.5488080000000 1.0
C      1  0.5183920000000  0.5678880000000  0.5689430000000 1.0
C      1  0.4637400000000  0.4262270000000  0.4165500000000 1.0
C      1  0.5324090000000  0.4499680000000  0.4804370000000 1.0
C      1  0.4878850000000  0.5422030000000  0.4159850000000 1.0
C      1  0.4400670000000  0.5827180000000  0.5708780000000 1.0
C      1  0.5595460000000  0.4783420000000  0.5236580000000 1.0
C      1  0.5693270000000  0.5890270000000  0.4491340000000 1.0
C      1  0.4867860000000  0.5295230000000  0.5935380000000 1.0
C      1  0.4165910000000  0.5723550000000  0.5542980000000 1.0
C      1  0.5634560000000  0.6065200000000  0.4988920000000 1.0
C      1  0.4800900000000  0.4034350000000  0.4604240000000 1.0
C      1  0.5394980000000  0.5480350000000  0.5245980000000 1.0
C      1  0.5315040000000  0.4918510000000  0.4864610000000 1.0
C      1  0.4925950000000  0.3976700000000  0.5442420000000 1.0
C      1  0.5562840000000  0.4491000000000  0.5923960000000 1.0
C      1  0.3832140000000  0.4824410000000  0.4925000000000 1.0
C      1  0.5391710000000  0.5635890000000  0.4831760000000 1.0
C      1  0.5227110000000  0.6118090000000  0.5296370000000 1.0
C      1  0.4025910000000  0.4446850000000  0.5260680000000 1.0
C      1  0.4703070000000  0.4510050000000  0.4702990000000 1.0
C      1  0.6088830000000  0.4981830000000  0.4547130000000 1.0
C      1  0.4976630000000  0.5878220000000  0.4325490000000 1.0
C      1  0.5687250000000  0.5529120000000  0.5383670000000 1.0
C      1  0.4785670000000  0.4748470000000  0.5193400000000 1.0
C      1  0.4637310000000  0.4373530000000  0.4974600000000 1.0
C      1  0.5379000000000  0.4770040000000  0.5621050000000 1.0
C      1  0.5862610000000  0.5714570000000  0.4627970000000 1.0
C      1  0.5306410000000  0.5163340000000  0.5526920000000 1.0
C      1  0.4532300000000  0.4702840000000  0.5327610000000 1.0
C      1  0.5475830000000  0.5813980000000  0.4292390000000 1.0
C      1  0.4120970000000  0.4576230000000  0.5488970000000 1.0
C      1  0.5984690000000  0.4388570000000  0.5036070000000 1.0
C      1  0.4823860000000  0.5191750000000  0.4834430000000 1.0
C      1  0.4752170000000  0.5065280000000  0.6090950000000 1.0
C      1  0.4425480000000  0.5315440000000  0.4210700000000 1.0
C      1  0.4815940000000  0.5064770000000  0.5506890000000 1.0
C      1  0.6037520000000  0.5033720000000  0.4287050000000 1.0
C      1  0.5098630000000  0.3990000000000  0.4653420000000 1.0
C      1  0.4536670000000  0.4388860000000  0.5750980000000 1.0
C      1  0.4017390000000  0.5291980000000  0.4741770000000 1.0
C      1  0.4300600000000  0.4906370000000  0.4878880000000 1.0
C      1  0.5436440000000  0.5021650000000  0.5299370000000 1.0
C      1  0.5411160000000  0.4276830000000  0.5783050000000 1.0
C      1  0.6068690000000  0.4948160000000  0.5224700000000 1.0
C      1  0.4247950000000  0.4672550000000  0.4390870000000 1.0
C      1  0.4332110000000  0.4797110000000  0.5144000000000 1.0
C      1  0.4264380000000  0.5797100000000  0.4672470000000 1.0
C      1  0.5676180000000  0.4760600000000  0.3959230000000 1.0
C      1  0.6165530000000  0.5095800000000  0.4805410000000 1.0
C      1  0.5037500000000  0.5634240000000  0.4474080000000 1.0
C      1  0.4701470000000  0.5253780000000  0.4582090000000 1.0
C      1  0.5050120000000  0.6092800000000  0.5074780000000 1.0
C      1  0.4575530000000  0.4822550000000  0.6101430000000 1.0
C      1  0.4515770000000  0.5236790000000  0.5118820000000 1.0
C      1  0.3943030000000  0.5491930000000  0.5214730000000 1.0
C      1  0.6167900000000  0.4858810000000  0.4979900000000 1.0
C      1  0.5984480000000  0.4316000000000  0.5311050000000 1.0
END
