TITL C-883732-77-329 -8.32253847115185 125000 -8942.36100738387 0 0 60 (C1) n - 1
REM
REM in /home/nfs/bkarasulu/CARBON/AIRSS/Generating-Clusters/ReaxFF-fromJPCA2015/Units_Real/with-SteepDescent/Only-C1/SD-CG/Try1-3A/FIRE-CG
REM
REM
REM
REM
REM
REM ./C.cell (11c1c37f851c82e70ff6c80c92926a4b)
REM
REM compiler GCC version 9.2.1 20190827 (Red Hat 9.2.1-1)
REM options -cpp -mtune=generic -march=x86-64 -g -O0 -fpre-include=/usr/include/finclude/math-vector-fortran.h
REM seed -1997968657 -610289938 400491325 -544790333 680859914 -389413932 1151099598 -1709642018 1383891978 2103672896 -1875015000 -1041260186 -47320485 155534912 -1210190294 -2119795319 -1398278889 -1114705250 -311421426 -333108034 467597725 160559989 -2056716662 -316753468 -1514981759 -2010331549 -216379511 -388563464 2034530479 618538214 842453458 189234392 -1366430638
REM
CELL 1.54180   50.00000   50.00000   50.00000   90.00000   90.00000   90.00000
LATT -1
SFAC C  
C      1  0.4873280000000  0.4829530000000  0.4389660000000 1.0
C      1  0.4854450000000  0.4370020000000  0.4847980000000 1.0
C      1  0.5479190000000  0.4942500000000  0.5559470000000 1.0
C      1  0.4347770000000  0.4837050000000  0.4953140000000 1.0
C      1  0.5533420000000  0.5179380000000  0.5059410000000 1.0
C      1  0.4640290000000  0.5223210000000  0.4756600000000 1.0
C      1  0.5348240000000  0.5372420000000  0.4473310000000 1.0
C      1  0.5277180000000  0.4963200000000  0.4262720000000 1.0
C      1  0.4469740000000  0.4730980000000  0.5429540000000 1.0
C      1  0.5048660000000  0.5318540000000  0.4488770000000 1.0
C      1  0.4177550000000  0.5046070000000  0.5064230000000 1.0
C      1  0.4686420000000  0.5633590000000  0.5229570000000 1.0
C      1  0.4541880000000  0.5063860000000  0.5219540000000 1.0
C      1  0.4694400000000  0.4620590000000  0.5579860000000 1.0
C      1  0.4920260000000  0.4395860000000  0.4561070000000 1.0
C      1  0.4956180000000  0.5624030000000  0.4539080000000 1.0
C      1  0.5322690000000  0.4679570000000  0.4325890000000 1.0
C      1  0.4587800000000  0.5681400000000  0.4946030000000 1.0
C      1  0.4553610000000  0.5428490000000  0.5381670000000 1.0
C      1  0.4654230000000  0.4766450000000  0.4571620000000 1.0
C      1  0.5484130000000  0.5134450000000  0.4387720000000 1.0
C      1  0.4914710000000  0.4352710000000  0.5256730000000 1.0
C      1  0.4982590000000  0.5626030000000  0.5219580000000 1.0
C      1  0.5613350000000  0.4498500000000  0.4681470000000 1.0
C      1  0.5549250000000  0.5129570000000  0.5347550000000 1.0
C      1  0.4654070000000  0.5246310000000  0.5583810000000 1.0
C      1  0.4676710000000  0.4490280000000  0.4663960000000 1.0
C      1  0.5618780000000  0.4963700000000  0.4873180000000 1.0
C      1  0.4936570000000  0.5248430000000  0.4794880000000 1.0
C      1  0.5429300000000  0.5546770000000  0.4691310000000 1.0
C      1  0.5180180000000  0.4501470000000  0.5553060000000 1.0
C      1  0.4750870000000  0.5688000000000  0.4714860000000 1.0
C      1  0.4467180000000  0.5027660000000  0.5500380000000 1.0
C      1  0.5182330000000  0.5359950000000  0.5643100000000 1.0
C      1  0.5258780000000  0.4773620000000  0.5643980000000 1.0
C      1  0.5206730000000  0.4835820000000  0.4991210000000 1.0
C      1  0.4465180000000  0.5424180000000  0.4876190000000 1.0
C      1  0.5444080000000  0.4333860000000  0.4536860000000 1.0
C      1  0.4486060000000  0.4649390000000  0.5146810000000 1.0
C      1  0.5581070000000  0.4679870000000  0.4935440000000 1.0
C      1  0.4362880000000  0.5301580000000  0.5133710000000 1.0
C      1  0.5082580000000  0.5495320000000  0.5430000000000 1.0
C      1  0.5440660000000  0.5217580000000  0.5585420000000 1.0
C      1  0.5335220000000  0.4624030000000  0.5089330000000 1.0
C      1  0.5587100000000  0.4707090000000  0.4462180000000 1.0
C      1  0.5170060000000  0.5688400000000  0.4730250000000 1.0
C      1  0.4706060000000  0.4468820000000  0.5072140000000 1.0
C      1  0.4519100000000  0.4958370000000  0.4729100000000 1.0
C      1  0.4929290000000  0.5207530000000  0.5702690000000 1.0
C      1  0.5049110000000  0.4598930000000  0.4400770000000 1.0
C      1  0.5407050000000  0.5422150000000  0.4958070000000 1.0
C      1  0.5635760000000  0.4971170000000  0.4578330000000 1.0
C      1  0.4818750000000  0.4982710000000  0.5215710000000 1.0
C      1  0.4892670000000  0.4406710000000  0.5547570000000 1.0
C      1  0.5017270000000  0.4930460000000  0.5698300000000 1.0
C      1  0.5204450000000  0.4412090000000  0.5277530000000 1.0
C      1  0.5015620000000  0.5070800000000  0.4317080000000 1.0
C      1  0.5108110000000  0.5492490000000  0.4957460000000 1.0
C      1  0.4994980000000  0.5002440000000  0.4972370000000 1.0
C      1  0.4874090000000  0.4824030000000  0.5460720000000 1.0
END
