TITL C-884140-4336-108 7.55650476317801 125000 -15904.9098767789 0 0 107 (C1) n - 1
REM
REM in /home/nfs/bkarasulu/CARBON/AIRSS/Generating-Clusters/ReaxFF-fromJPCA2015/Units_Real/with-SteepDescent/Only-C1/SD-CG/Try1-3A/FIRE-CG
REM
REM
REM
REM
REM
REM ./C.cell (11c1c37f851c82e70ff6c80c92926a4b)
REM
REM compiler GCC version 9.2.1 20190827 (Red Hat 9.2.1-1)
REM options -cpp -mtune=generic -march=x86-64 -g -O0 -fpre-include=/usr/include/finclude/math-vector-fortran.h
REM seed 170131724 -2115450775 -587039201 -135552588 1822893764 -486864147 1468351216 -1201122981 -194507951 954155610 122375138 -2111868754 -376642328 466240611 -1472654462 1127774325 2129894811 644555611 1951167504 958926030 1376957050 -327618358 -762776727 -1073048564 -804277691 790547421 241310547 -950767322 1240871178 1860230030 1304789838 1352288279 -401108432
REM
CELL 1.54180   50.00000   50.00000   50.00000   90.00000   90.00000   90.00000
LATT -1
SFAC C  
C      1  0.5036540000000  0.4159170000000  0.5140250000000 1.0
C      1  0.4613900000000  0.4230250000000  0.4519150000000 1.0
C      1  0.4813890000000  0.5216450000000  0.5146040000000 1.0
C      1  0.5659480000000  0.5613320000000  0.5399980000000 1.0
C      1  0.5722260000000  0.5137390000000  0.4610940000000 1.0
C      1  0.4204040000000  0.5084430000000  0.4332810000000 1.0
C      1  0.4699090000000  0.5462250000000  0.5642130000000 1.0
C      1  0.5632110000000  0.4863770000000  0.4500280000000 1.0
C      1  0.5434850000000  0.5745280000000  0.5567440000000 1.0
C      1  0.5245230000000  0.5612300000000  0.5736460000000 1.0
C      1  0.5016330000000  0.5426720000000  0.5077630000000 1.0
C      1  0.5427390000000  0.4792290000000  0.4986610000000 1.0
C      1  0.5363740000000  0.4766570000000  0.4692230000000 1.0
C      1  0.5834710000000  0.5167550000000  0.5321430000000 1.0
C      1  0.5496050000000  0.5376210000000  0.4624250000000 1.0
C      1  0.4969090000000  0.4517250000000  0.4566700000000 1.0
C      1  0.5686420000000  0.4556590000000  0.4549520000000 1.0
C      1  0.5349020000000  0.4359130000000  0.5492410000000 1.0
C      1  0.5436840000000  0.5804460000000  0.4814810000000 1.0
C      1  0.5074670000000  0.5394740000000  0.5791430000000 1.0
C      1  0.5736230000000  0.5583660000000  0.5122460000000 1.0
C      1  0.4470030000000  0.4422330000000  0.5045370000000 1.0
C      1  0.4687710000000  0.4262360000000  0.4806130000000 1.0
C      1  0.4414570000000  0.5418930000000  0.5700790000000 1.0
C      1  0.4569430000000  0.5108460000000  0.5033280000000 1.0
C      1  0.4215560000000  0.5386140000000  0.4959180000000 1.0
C      1  0.4800750000000  0.4580560000000  0.4796410000000 1.0
C      1  0.4110040000000  0.5114750000000  0.4986360000000 1.0
C      1  0.5244640000000  0.4642090000000  0.5149770000000 1.0
C      1  0.5585810000000  0.5696170000000  0.4602360000000 1.0
C      1  0.4809320000000  0.4666230000000  0.5087200000000 1.0
C      1  0.4552000000000  0.4676510000000  0.5186260000000 1.0
C      1  0.4299370000000  0.5048890000000  0.5537250000000 1.0
C      1  0.5041580000000  0.4983710000000  0.4281570000000 1.0
C      1  0.5241770000000  0.4208520000000  0.4779040000000 1.0
C      1  0.4554110000000  0.5634030000000  0.4670760000000 1.0
C      1  0.4589220000000  0.4652670000000  0.5663340000000 1.0
C      1  0.4597240000000  0.4376480000000  0.5567180000000 1.0
C      1  0.5284060000000  0.4353350000000  0.5186360000000 1.0
C      1  0.5447160000000  0.4980520000000  0.5714950000000 1.0
C      1  0.5304020000000  0.5104840000000  0.5017570000000 1.0
C      1  0.5071060000000  0.4724950000000  0.4128010000000 1.0
C      1  0.4585260000000  0.5656450000000  0.5189350000000 1.0
C      1  0.5278290000000  0.5369550000000  0.4420440000000 1.0
C      1  0.5482940000000  0.4923630000000  0.4244350000000 1.0
C      1  0.5358100000000  0.4669640000000  0.4174630000000 1.0
C      1  0.5058880000000  0.5856760000000  0.4477790000000 1.0
C      1  0.4804680000000  0.4619540000000  0.4164370000000 1.0
C      1  0.4914210000000  0.5440820000000  0.4807300000000 1.0
C      1  0.4263600000000  0.4594220000000  0.4875120000000 1.0
C      1  0.5831680000000  0.5204890000000  0.4835740000000 1.0
C      1  0.4781900000000  0.5613660000000  0.5409210000000 1.0
C      1  0.5761460000000  0.4893380000000  0.5324680000000 1.0
C      1  0.5598200000000  0.4501500000000  0.5524300000000 1.0
C      1  0.5887200000000  0.5332710000000  0.5074490000000 1.0
C      1  0.4958930000000  0.5047020000000  0.5348370000000 1.0
C      1  0.5744680000000  0.4681800000000  0.5059390000000 1.0
C      1  0.4809330000000  0.4748180000000  0.5838740000000 1.0
C      1  0.5773320000000  0.4473870000000  0.5278930000000 1.0
C      1  0.5467370000000  0.4293030000000  0.4935010000000 1.0
C      1  0.5387300000000  0.5365020000000  0.4910840000000 1.0
C      1  0.4847820000000  0.5172070000000  0.4718100000000 1.0
C      1  0.4467100000000  0.4803890000000  0.5445870000000 1.0
C      1  0.5209650000000  0.4876720000000  0.5850000000000 1.0
C      1  0.4636990000000  0.5346970000000  0.4253910000000 1.0
C      1  0.4971760000000  0.4145470000000  0.4869410000000 1.0
C      1  0.5459630000000  0.5265330000000  0.5638620000000 1.0
C      1  0.4904230000000  0.5923970000000  0.4907620000000 1.0
C      1  0.4321470000000  0.5008390000000  0.5140570000000 1.0
C      1  0.4289470000000  0.5344540000000  0.5448170000000 1.0
C      1  0.4656230000000  0.5765830000000  0.4923430000000 1.0
C      1  0.5067130000000  0.5559330000000  0.5344380000000 1.0
C      1  0.4862460000000  0.4244640000000  0.5572900000000 1.0
C      1  0.5300210000000  0.5153360000000  0.4239210000000 1.0
C      1  0.5012930000000  0.4767860000000  0.5257980000000 1.0
C      1  0.4152880000000  0.4827430000000  0.5007280000000 1.0
C      1  0.4184390000000  0.5352340000000  0.4464520000000 1.0
C      1  0.4753630000000  0.5084590000000  0.4221940000000 1.0
C      1  0.4817440000000  0.4143930000000  0.5312120000000 1.0
C      1  0.4327020000000  0.5141290000000  0.5819830000000 1.0
C      1  0.4606440000000  0.4838080000000  0.4213170000000 1.0
C      1  0.4813640000000  0.4392830000000  0.4358660000000 1.0
C      1  0.5253590000000  0.4458700000000  0.4584160000000 1.0
C      1  0.5710790000000  0.5348130000000  0.5517190000000 1.0
C      1  0.5150360000000  0.5932980000000  0.4740070000000 1.0
C      1  0.5471410000000  0.4481690000000  0.4372600000000 1.0
C      1  0.5027300000000  0.5539130000000  0.4517680000000 1.0
C      1  0.5668090000000  0.4474250000000  0.4830780000000 1.0
C      1  0.4590950000000  0.4757460000000  0.4689100000000 1.0
C      1  0.5071400000000  0.4614120000000  0.5829000000000 1.0
C      1  0.4556660000000  0.4273940000000  0.5292640000000 1.0
C      1  0.4347260000000  0.5488590000000  0.5199160000000 1.0
C      1  0.5479560000000  0.5601950000000  0.5034160000000 1.0
C      1  0.4342790000000  0.5321900000000  0.4225450000000 1.0
C      1  0.4304690000000  0.5484370000000  0.4699120000000 1.0
C      1  0.4891690000000  0.5210140000000  0.5662150000000 1.0
C      1  0.4336260000000  0.4651370000000  0.4597460000000 1.0
C      1  0.5076650000000  0.5032920000000  0.4817780000000 1.0
C      1  0.4945090000000  0.5009720000000  0.5867720000000 1.0
C      1  0.5114260000000  0.4379610000000  0.5655830000000 1.0
C      1  0.5619900000000  0.4802830000000  0.5556380000000 1.0
C      1  0.4345920000000  0.4831500000000  0.4359940000000 1.0
C      1  0.5258670000000  0.5349110000000  0.5426020000000 1.0
C      1  0.5218940000000  0.5109390000000  0.5287290000000 1.0
C      1  0.4728180000000  0.5549570000000  0.4448590000000 1.0
C      1  0.4601350000000  0.5034870000000  0.4763530000000 1.0
C      1  0.5137080000000  0.4904980000000  0.4591370000000 1.0
END
