TITL C-883732-77-380 39.2791050696084 125000 -25756.7576535268 0 0 174 (C1) n - 1
REM
REM in /home/nfs/bkarasulu/CARBON/AIRSS/Generating-Clusters/ReaxFF-fromJPCA2015/Units_Real/with-SteepDescent/Only-C1/SD-CG/Try1-3A/FIRE-CG
REM
REM
REM
REM
REM
REM ./C.cell (11c1c37f851c82e70ff6c80c92926a4b)
REM
REM compiler GCC version 9.2.1 20190827 (Red Hat 9.2.1-1)
REM options -cpp -mtune=generic -march=x86-64 -g -O0 -fpre-include=/usr/include/finclude/math-vector-fortran.h
REM seed 145364655 -1599208339 1608305955 -614381063 -1030200599 -462787013 -1348169924 244708249 -516054159 1736042187 2003354449 -1983316836 1617529958 1410245486 -778520409 568863816 2120143888 41496371 -397705967 1120140819 199560753 -1461453676 266541968 -451175934 1073306998 221350888 1110383569 518579966 92915015 -666109346 -1349849652 -1816674713 1748580124
REM
CELL 1.54180   50.00000   50.00000   50.00000   90.00000   90.00000   90.00000
LATT -1
SFAC C  
C      1  0.5191300000000  0.5226930000000  0.4010450000000 1.0
C      1  0.4948810000000  0.4069140000000  0.5442020000000 1.0
C      1  0.5287520000000  0.4601070000000  0.5353460000000 1.0
C      1  0.4920460000000  0.3978990000000  0.5175530000000 1.0
C      1  0.5610490000000  0.5635730000000  0.5488090000000 1.0
C      1  0.4977110000000  0.5621460000000  0.4267180000000 1.0
C      1  0.4302360000000  0.5784610000000  0.4403170000000 1.0
C      1  0.3814540000000  0.5218350000000  0.4742310000000 1.0
C      1  0.4069220000000  0.4522180000000  0.4337830000000 1.0
C      1  0.5817640000000  0.5239880000000  0.4593480000000 1.0
C      1  0.4784270000000  0.5139260000000  0.5077610000000 1.0
C      1  0.5623400000000  0.4205040000000  0.4967020000000 1.0
C      1  0.5714710000000  0.4802680000000  0.5229090000000 1.0
C      1  0.6085780000000  0.5288960000000  0.5018950000000 1.0
C      1  0.3884970000000  0.4919120000000  0.5098940000000 1.0
C      1  0.4972600000000  0.4907860000000  0.5539790000000 1.0
C      1  0.4543480000000  0.4766590000000  0.3894100000000 1.0
C      1  0.4751730000000  0.6091900000000  0.5291370000000 1.0
C      1  0.4325490000000  0.4903030000000  0.4039070000000 1.0
C      1  0.5303570000000  0.4869210000000  0.4861700000000 1.0
C      1  0.5164630000000  0.5326020000000  0.5527820000000 1.0
C      1  0.5773330000000  0.4589750000000  0.4455230000000 1.0
C      1  0.5316870000000  0.3777630000000  0.4910250000000 1.0
C      1  0.5493880000000  0.4496640000000  0.4151000000000 1.0
C      1  0.4166850000000  0.5979420000000  0.4573980000000 1.0
C      1  0.5244680000000  0.4798900000000  0.5564000000000 1.0
C      1  0.5120340000000  0.4224890000000  0.5815110000000 1.0
C      1  0.5362850000000  0.4176220000000  0.4818730000000 1.0
C      1  0.5816810000000  0.5710230000000  0.5099540000000 1.0
C      1  0.4938490000000  0.5741630000000  0.5094540000000 1.0
C      1  0.4101610000000  0.4767170000000  0.4176380000000 1.0
C      1  0.4360460000000  0.5199590000000  0.5239930000000 1.0
C      1  0.4334830000000  0.5354550000000  0.4680870000000 1.0
C      1  0.5455040000000  0.4740960000000  0.4006110000000 1.0
C      1  0.5175780000000  0.5341650000000  0.5043830000000 1.0
C      1  0.4632690000000  0.5797530000000  0.5678300000000 1.0
C      1  0.5280460000000  0.4676440000000  0.4500850000000 1.0
C      1  0.4332420000000  0.4662800000000  0.5046900000000 1.0
C      1  0.5187290000000  0.5326710000000  0.6059340000000 1.0
C      1  0.4985700000000  0.4849530000000  0.6113110000000 1.0
C      1  0.4057680000000  0.4937470000000  0.4419990000000 1.0
C      1  0.4462880000000  0.3884220000000  0.4906360000000 1.0
C      1  0.5488150000000  0.4201900000000  0.5483050000000 1.0
C      1  0.4891160000000  0.5635460000000  0.5600970000000 1.0
C      1  0.5318480000000  0.5237120000000  0.5287210000000 1.0
C      1  0.4052680000000  0.4382260000000  0.4600370000000 1.0
C      1  0.4613530000000  0.4504590000000  0.3973960000000 1.0
C      1  0.5210360000000  0.5040410000000  0.6062650000000 1.0
C      1  0.4323910000000  0.5521090000000  0.5580440000000 1.0
C      1  0.4712260000000  0.5207460000000  0.5751040000000 1.0
C      1  0.5039920000000  0.5681040000000  0.4553290000000 1.0
C      1  0.4843060000000  0.4495860000000  0.5319710000000 1.0
C      1  0.5503650000000  0.4505220000000  0.5863020000000 1.0
C      1  0.5288060000000  0.5510990000000  0.4586200000000 1.0
C      1  0.4558220000000  0.4774650000000  0.5520250000000 1.0
C      1  0.5863700000000  0.4553020000000  0.5500450000000 1.0
C      1  0.5460920000000  0.5879220000000  0.4422270000000 1.0
C      1  0.4557480000000  0.5910670000000  0.5419620000000 1.0
C      1  0.5594850000000  0.5412230000000  0.5306340000000 1.0
C      1  0.5950990000000  0.5346120000000  0.4348580000000 1.0
C      1  0.3845140000000  0.4771230000000  0.4842010000000 1.0
C      1  0.5177200000000  0.3976050000000  0.4975550000000 1.0
C      1  0.4659740000000  0.5968380000000  0.4767880000000 1.0
C      1  0.4675680000000  0.4541270000000  0.4661050000000 1.0
C      1  0.4962790000000  0.4667900000000  0.4108070000000 1.0
C      1  0.4835930000000  0.4325270000000  0.5788070000000 1.0
C      1  0.4458980000000  0.5151940000000  0.4189590000000 1.0
C      1  0.5408160000000  0.5604080000000  0.4832770000000 1.0
C      1  0.4705490000000  0.4171160000000  0.5584870000000 1.0
C      1  0.5260760000000  0.4403330000000  0.5994330000000 1.0
C      1  0.5429610000000  0.5386220000000  0.5906030000000 1.0
C      1  0.5597050000000  0.5907190000000  0.5111600000000 1.0
C      1  0.5830720000000  0.4847760000000  0.5496680000000 1.0
C      1  0.5408150000000  0.4316930000000  0.4325480000000 1.0
C      1  0.5551160000000  0.4786960000000  0.4438960000000 1.0
C      1  0.5025370000000  0.4032520000000  0.4505630000000 1.0
C      1  0.4458330000000  0.5455690000000  0.5128440000000 1.0
C      1  0.4885770000000  0.5305050000000  0.5562660000000 1.0
C      1  0.4447310000000  0.4497620000000  0.4833490000000 1.0
C      1  0.5055410000000  0.5649180000000  0.5841670000000 1.0
C      1  0.5990880000000  0.4512990000000  0.5222890000000 1.0
C      1  0.4371910000000  0.4007740000000  0.5162790000000 1.0
C      1  0.5226700000000  0.5064130000000  0.4660970000000 1.0
C      1  0.4735040000000  0.4067260000000  0.4499510000000 1.0
C      1  0.5859290000000  0.5325240000000  0.5425440000000 1.0
C      1  0.4839100000000  0.6027980000000  0.5006370000000 1.0
C      1  0.5145250000000  0.6124140000000  0.5082110000000 1.0
C      1  0.5866440000000  0.4410250000000  0.4692430000000 1.0
C      1  0.4437670000000  0.4287540000000  0.5511620000000 1.0
C      1  0.4595330000000  0.4977450000000  0.4941070000000 1.0
C      1  0.5659450000000  0.5506690000000  0.4961310000000 1.0
C      1  0.4336420000000  0.5367450000000  0.4371650000000 1.0
C      1  0.5305920000000  0.4133690000000  0.4528600000000 1.0
C      1  0.5650200000000  0.4390720000000  0.5636760000000 1.0
C      1  0.5403040000000  0.4777730000000  0.5808240000000 1.0
C      1  0.4428070000000  0.5604470000000  0.4245100000000 1.0
C      1  0.4551460000000  0.4968270000000  0.5756780000000 1.0
C      1  0.4815530000000  0.4711970000000  0.5133890000000 1.0
C      1  0.4953860000000  0.5144310000000  0.4629990000000 1.0
C      1  0.5731500000000  0.5835440000000  0.4418850000000 1.0
C      1  0.4719820000000  0.5552780000000  0.4148640000000 1.0
C      1  0.4720800000000  0.4796180000000  0.5997990000000 1.0
C      1  0.4389250000000  0.6070960000000  0.4766630000000 1.0
C      1  0.4443800000000  0.4902220000000  0.5199610000000 1.0
C      1  0.4652250000000  0.3887420000000  0.5129410000000 1.0
C      1  0.5669490000000  0.4991240000000  0.5013340000000 1.0
C      1  0.5907640000000  0.5651960000000  0.4283440000000 1.0
C      1  0.5475220000000  0.4990040000000  0.5977200000000 1.0
C      1  0.5901100000000  0.5392560000000  0.4824770000000 1.0
C      1  0.4551070000000  0.5511740000000  0.4850660000000 1.0
C      1  0.4411570000000  0.5662980000000  0.5338310000000 1.0
C      1  0.4245430000000  0.5240460000000  0.5501400000000 1.0
C      1  0.4838560000000  0.4943990000000  0.4469940000000 1.0
C      1  0.6025940000000  0.4635140000000  0.4592420000000 1.0
C      1  0.5266770000000  0.5928150000000  0.4636730000000 1.0
C      1  0.6169750000000  0.4991080000000  0.4997230000000 1.0
C      1  0.5287170000000  0.5548960000000  0.5708720000000 1.0
C      1  0.4808240000000  0.4655990000000  0.5559150000000 1.0
C      1  0.5813220000000  0.5113830000000  0.5624310000000 1.0
C      1  0.4252590000000  0.5002500000000  0.5667810000000 1.0
C      1  0.4358460000000  0.4568090000000  0.5547780000000 1.0
C      1  0.5196280000000  0.5623500000000  0.5026940000000 1.0
C      1  0.4753840000000  0.4355420000000  0.4443820000000 1.0
C      1  0.4095410000000  0.4500070000000  0.5133710000000 1.0
C      1  0.4759930000000  0.4509740000000  0.6020710000000 1.0
C      1  0.5438380000000  0.5824960000000  0.5578720000000 1.0
C      1  0.5795460000000  0.4998550000000  0.4751550000000 1.0
C      1  0.5096660000000  0.4441320000000  0.5198250000000 1.0
C      1  0.5046290000000  0.6076790000000  0.5362210000000 1.0
C      1  0.4948150000000  0.5258600000000  0.4890990000000 1.0
C      1  0.4934990000000  0.5478630000000  0.6036740000000 1.0
C      1  0.5432070000000  0.5973000000000  0.5330840000000 1.0
C      1  0.4307780000000  0.4265280000000  0.4708020000000 1.0
C      1  0.4281490000000  0.4253870000000  0.5280480000000 1.0
C      1  0.4748780000000  0.5690440000000  0.4732950000000 1.0
C      1  0.5038260000000  0.4556080000000  0.6121360000000 1.0
C      1  0.5019550000000  0.5781820000000  0.5369190000000 1.0
C      1  0.5694130000000  0.5564310000000  0.4124170000000 1.0
C      1  0.5866820000000  0.4364390000000  0.4976850000000 1.0
C      1  0.5535680000000  0.4574630000000  0.5221420000000 1.0
C      1  0.5348970000000  0.6001980000000  0.4916470000000 1.0
C      1  0.3957010000000  0.4507950000000  0.4846910000000 1.0
C      1  0.4331420000000  0.4908700000000  0.4527590000000 1.0
C      1  0.4044070000000  0.5362150000000  0.4828360000000 1.0
C      1  0.3837710000000  0.4954720000000  0.4611590000000 1.0
C      1  0.5562660000000  0.4295420000000  0.5229670000000 1.0
C      1  0.5399450000000  0.5244310000000  0.4513480000000 1.0
C      1  0.4853070000000  0.4684980000000  0.4846000000000 1.0
C      1  0.4566910000000  0.4939040000000  0.4369170000000 1.0
C      1  0.5198820000000  0.5503180000000  0.4112590000000 1.0
C      1  0.5411240000000  0.5037630000000  0.4064790000000 1.0
C      1  0.4810120000000  0.4419940000000  0.4153510000000 1.0
C      1  0.4668570000000  0.5394640000000  0.5947230000000 1.0
C      1  0.6069190000000  0.4893860000000  0.4735770000000 1.0
C      1  0.5437830000000  0.5663610000000  0.4174990000000 1.0
C      1  0.5069770000000  0.4497730000000  0.4918760000000 1.0
C      1  0.5218080000000  0.4123920000000  0.5566610000000 1.0
C      1  0.3907870000000  0.5206130000000  0.5029410000000 1.0
C      1  0.4902490000000  0.4951340000000  0.5257690000000 1.0
C      1  0.4487770000000  0.5586990000000  0.5814430000000 1.0
C      1  0.4477310000000  0.4031920000000  0.4657890000000 1.0
C      1  0.5997490000000  0.5488940000000  0.5211140000000 1.0
C      1  0.5301820000000  0.4585360000000  0.4776540000000 1.0
C      1  0.4422300000000  0.5076580000000  0.4736560000000 1.0
C      1  0.5038990000000  0.4770310000000  0.4361780000000 1.0
C      1  0.4135790000000  0.4764830000000  0.5551400000000 1.0
C      1  0.5395540000000  0.5003590000000  0.5094810000000 1.0
C      1  0.5534430000000  0.5064630000000  0.4324780000000 1.0
C      1  0.4835490000000  0.4848560000000  0.3932110000000 1.0
C      1  0.5625230000000  0.5185080000000  0.5839840000000 1.0
C      1  0.3986960000000  0.4736570000000  0.5298830000000 1.0
C      1  0.4700290000000  0.5292460000000  0.4041010000000 1.0
C      1  0.6099480000000  0.4752100000000  0.5125990000000 1.0
C      1  0.4919610000000  0.5128730000000  0.3953820000000 1.0
END
