TITL C-883731-9874-305 -1.06569694524409 125000 -3995.81888522411 0 0 29 (C1) n - 1
REM
REM in /home/nfs/bkarasulu/CARBON/AIRSS/Generating-Clusters/ReaxFF-fromJPCA2015/Units_Real/with-SteepDescent/Only-C1/SD-CG/Try1-3A/FIRE-CG
REM
REM
REM
REM
REM
REM ./C.cell (11c1c37f851c82e70ff6c80c92926a4b)
REM
REM compiler GCC version 9.2.1 20190827 (Red Hat 9.2.1-1)
REM options -cpp -mtune=generic -march=x86-64 -g -O0 -fpre-include=/usr/include/finclude/math-vector-fortran.h
REM seed 1951299634 1577241344 -1662384019 1865636143 -1320474641 -2057086337 515194640 12920333 -310423948 -700162680 -1553127116 -390111028 -1314251389 -538876745 -602950374 434344596 338202101 -495280422 1405152511 1860346942 -361001821 2029578695 -594698892 -2074822720 -1293929865 1631891436 1682446681 -1502463702 -698186707 1012971443 1060946997 860810801 1191378189
REM
CELL 1.54180   50.00000   50.00000   50.00000   90.00000   90.00000   90.00000
LATT -1
SFAC C  
C      1  0.4996460000000  0.4872900000000  0.4762150000000 1.0
C      1  0.4848960000000  0.5190820000000  0.4394450000000 1.0
C      1  0.4853810000000  0.4446400000000  0.5262930000000 1.0
C      1  0.5114940000000  0.4430280000000  0.5268890000000 1.0
C      1  0.4988300000000  0.4613410000000  0.4710730000000 1.0
C      1  0.5605270000000  0.5174500000000  0.5019180000000 1.0
C      1  0.4520060000000  0.5200120000000  0.5006120000000 1.0
C      1  0.5253200000000  0.5210390000000  0.4489880000000 1.0
C      1  0.5395780000000  0.4964500000000  0.5059340000000 1.0
C      1  0.5450650000000  0.5109760000000  0.5450920000000 1.0
C      1  0.4515940000000  0.4936420000000  0.5130570000000 1.0
C      1  0.4646710000000  0.5362710000000  0.4792780000000 1.0
C      1  0.4727890000000  0.4616500000000  0.5447070000000 1.0
C      1  0.4900720000000  0.5452120000000  0.4769170000000 1.0
C      1  0.5086900000000  0.5034250000000  0.5022410000000 1.0
C      1  0.4982290000000  0.4779120000000  0.5482110000000 1.0
C      1  0.4563780000000  0.4717450000000  0.5246570000000 1.0
C      1  0.5014550000000  0.5332600000000  0.4992190000000 1.0
C      1  0.4566030000000  0.5232560000000  0.4516370000000 1.0
C      1  0.5037780000000  0.4983680000000  0.4490690000000 1.0
C      1  0.5015450000000  0.5401070000000  0.4509270000000 1.0
C      1  0.4344390000000  0.5099490000000  0.4459280000000 1.0
C      1  0.5657720000000  0.5269770000000  0.5302500000000 1.0
C      1  0.4998780000000  0.5024390000000  0.5324940000000 1.0
C      1  0.5169770000000  0.5229630000000  0.5439100000000 1.0
C      1  0.5434900000000  0.4846450000000  0.5321120000000 1.0
C      1  0.4980730000000  0.4372660000000  0.4663020000000 1.0
C      1  0.5239440000000  0.4640560000000  0.5411650000000 1.0
C      1  0.5088790000000  0.5455450000000  0.5254600000000 1.0
END
