TITL C-884142-5251-25 493079.972578748 125000 -20255.6608100978 0 0 135 (C1) n - 1
REM
REM in /home/nfs/bkarasulu/CARBON/AIRSS/Generating-Clusters/ReaxFF-fromJPCA2015/Units_Real/with-SteepDescent/Only-C1/SD-CG/Try1-3A/FIRE-CG
REM
REM
REM
REM
REM
REM ./C.cell (11c1c37f851c82e70ff6c80c92926a4b)
REM
REM compiler GCC version 9.2.1 20190827 (Red Hat 9.2.1-1)
REM options -cpp -mtune=generic -march=x86-64 -g -O0 -fpre-include=/usr/include/finclude/math-vector-fortran.h
REM seed 298670132 -1503169652 2035974444 267356071 251429424 -1134168248 466521285 -779743645 854192117 -1925283669 -918394686 -217760438 1559687724 1339635536 -439055521 -823723288 457715763 -2138015196 -2028380693 608794814 -1996117540 1315913145 -295357324 -734004365 -1891371473 -1189272160 -1253257628 -902592183 1316400239 -1281024971 1502368053 1634305754 -942720475
REM
CELL 1.54180   50.00000   50.00000   50.00000   90.00000   90.00000   90.00000
LATT -1
SFAC C  
C      1  0.4758490000000  0.5903500000000  0.4715770000000 1.0
C      1  0.4487410000000  0.5823770000000  0.5078650000000 1.0
C      1  0.4960830000000  0.5168690000000  0.4337510000000 1.0
C      1  0.5569610000000  0.4842640000000  0.4342990000000 1.0
C      1  0.5113340000000  0.5432320000000  0.5757300000000 1.0
C      1  0.5007520000000  0.5840270000000  0.4580960000000 1.0
C      1  0.4481550000000  0.5700850000000  0.5334380000000 1.0
C      1  0.4775970000000  0.4028740000000  0.5124130000000 1.0
C      1  0.4130230000000  0.5315770000000  0.4401090000000 1.0
C      1  0.5480620000000  0.4366960000000  0.5297410000000 1.0
C      1  0.5076690000000  0.5272240000000  0.5043850000000 1.0
C      1  0.4406350000000  0.4240820000000  0.4905660000000 1.0
C      1  0.4615760000000  0.5170280000000  0.4885570000000 1.0
C      1  0.4527110000000  0.4593980000000  0.4242670000000 1.0
C      1  0.5504330000000  0.5005460000000  0.4545790000000 1.0
C      1  0.4357080000000  0.4817680000000  0.4316590000000 1.0
C      1  0.4918720000000  0.4921740000000  0.6077970000000 1.0
C      1  0.5282650000000  0.4415650000000  0.4248380000000 1.0
C      1  0.4108620000000  0.4971910000000  0.5154580000000 1.0
C      1  0.4626490000000  0.5580350000000  0.4408330000000 1.0
C      1  0.4682360000000  0.5375580000000  0.5820390000000 1.0
C      1  0.5760500000000  0.4525010000000  0.5360280000000 1.0
C      1  0.5929150000000  0.4678980000000  0.5163790000000 1.0
C      1  0.4782960000000  0.4788180000000  0.5179890000000 1.0
C      1  0.4153550000000  0.5114870000000  0.4613000000000 1.0
C      1  0.5433230000000  0.4217820000000  0.5044720000000 1.0
C      1  0.5093220000000  0.4116450000000  0.5549740000000 1.0
C      1  0.5117960000000  0.5217330000000  0.5533790000000 1.0
C      1  0.4445340000000  0.5292130000000  0.5592340000000 1.0
C      1  0.5185120000000  0.4071090000000  0.5058430000000 1.0
C      1  0.5349970000000  0.5444780000000  0.4160390000000 1.0
C      1  0.4781850000000  0.5108340000000  0.5862660000000 1.0
C      1  0.4915160000000  0.5276670000000  0.4071630000000 1.0
C      1  0.5743590000000  0.4648020000000  0.4443700000000 1.0
C      1  0.5039780000000  0.4207710000000  0.4537300000000 1.0
C      1  0.5050770000000  0.5524690000000  0.4141590000000 1.0
C      1  0.5003280000000  0.5318850000000  0.4585480000000 1.0
C      1  0.4659530000000  0.4387210000000  0.5743670000000 1.0
C      1  0.5404580000000  0.4841650000000  0.5287560000000 1.0
C      1  0.5040430000000  0.5344890000000  0.5296760000000 1.0
C      1  0.4094000000000  0.4950150000000  0.5440340000000 1.0
C      1  0.5325410000000  0.5301320000000  0.4912430000000 1.0
C      1  0.4894600000000  0.5031060000000  0.3907520000000 1.0
C      1  0.5856880000000  0.5343930000000  0.4669540000000 1.0
C      1  0.4494030000000  0.4110640000000  0.5134310000000 1.0
C      1  0.4563840000000  0.4488970000000  0.5490380000000 1.0
C      1  0.4532360000000  0.5733140000000  0.4629900000000 1.0
C      1  0.5064490000000  0.4194140000000  0.4239520000000 1.0
C      1  0.6003730000000  0.4960270000000  0.5095560000000 1.0
C      1  0.4869230000000  0.4800080000000  0.4671390000000 1.0
C      1  0.4310910000000  0.5498570000000  0.5413430000000 1.0
C      1  0.5015400000000  0.4003690000000  0.5291440000000 1.0
C      1  0.4110740000000  0.5449150000000  0.5219020000000 1.0
C      1  0.5390450000000  0.4621260000000  0.5985520000000 1.0
C      1  0.4936370000000  0.4146230000000  0.4918130000000 1.0
C      1  0.4903540000000  0.5660100000000  0.4358970000000 1.0
C      1  0.5087820000000  0.4835000000000  0.4844410000000 1.0
C      1  0.4734110000000  0.4546280000000  0.4703090000000 1.0
C      1  0.4151630000000  0.5496670000000  0.4945420000000 1.0
C      1  0.5540060000000  0.4244480000000  0.4775730000000 1.0
C      1  0.5523550000000  0.4822520000000  0.5024680000000 1.0
C      1  0.5233880000000  0.4633590000000  0.4051980000000 1.0
C      1  0.5358790000000  0.5471740000000  0.5912890000000 1.0
C      1  0.5418240000000  0.5207290000000  0.4032050000000 1.0
C      1  0.4221410000000  0.4547980000000  0.5277750000000 1.0
C      1  0.4431460000000  0.5206820000000  0.4672280000000 1.0
C      1  0.5435070000000  0.5518620000000  0.4449620000000 1.0
C      1  0.4166130000000  0.4713470000000  0.5047060000000 1.0
C      1  0.4752490000000  0.4702270000000  0.6010050000000 1.0
C      1  0.4731010000000  0.5679850000000  0.5442540000000 1.0
C      1  0.4615840000000  0.4963670000000  0.3969670000000 1.0
C      1  0.5767020000000  0.5556490000000  0.5108150000000 1.0
C      1  0.4519890000000  0.4607380000000  0.5892410000000 1.0
C      1  0.5717140000000  0.5184600000000  0.4492580000000 1.0
C      1  0.4925840000000  0.6031760000000  0.5455460000000 1.0
C      1  0.5217490000000  0.5777410000000  0.5338860000000 1.0
C      1  0.5955220000000  0.5045970000000  0.4799430000000 1.0
C      1  0.5638980000000  0.4758760000000  0.5840970000000 1.0
C      1  0.6033790000000  0.5173720000000  0.5296040000000 1.0
C      1  0.5395990000000  0.4419220000000  0.5784830000000 1.0
C      1  0.5732550000000  0.4626540000000  0.4958780000000 1.0
C      1  0.4881480000000  0.5273250000000  0.4839430000000 1.0
C      1  0.5384450000000  0.4902500000000  0.4130680000000 1.0
C      1  0.4781890000000  0.4701690000000  0.5443230000000 1.0
C      1  0.5528680000000  0.5784590000000  0.4765760000000 1.0
C      1  0.4878740000000  0.4426510000000  0.4905190000000 1.0
C      1  0.4337990000000  0.4380250000000  0.4688290000000 1.0
C      1  0.5749250000000  0.4402410000000  0.4766160000000 1.0
C      1  0.5636020000000  0.5805130000000  0.5033230000000 1.0
C      1  0.4206220000000  0.4633140000000  0.4769320000000 1.0
C      1  0.4719330000000  0.5975420000000  0.4993550000000 1.0
C      1  0.4259220000000  0.5050870000000  0.5659880000000 1.0
C      1  0.4621010000000  0.5020190000000  0.5147460000000 1.0
C      1  0.4820600000000  0.5857950000000  0.5657550000000 1.0
C      1  0.4073000000000  0.5233910000000  0.5046590000000 1.0
C      1  0.5132820000000  0.4941060000000  0.4299200000000 1.0
C      1  0.4803110000000  0.4194310000000  0.4369970000000 1.0
C      1  0.4844950000000  0.5028440000000  0.5583530000000 1.0
C      1  0.4360930000000  0.5680250000000  0.4865470000000 1.0
C      1  0.5036550000000  0.4733460000000  0.4448700000000 1.0
C      1  0.5594430000000  0.4406290000000  0.4524950000000 1.0
C      1  0.5580170000000  0.5265250000000  0.5930390000000 1.0
C      1  0.5005830000000  0.4653670000000  0.5048360000000 1.0
C      1  0.4150900000000  0.4684320000000  0.5514540000000 1.0
C      1  0.4401560000000  0.4333570000000  0.5309860000000 1.0
C      1  0.5912930000000  0.4819520000000  0.4627520000000 1.0
C      1  0.5410230000000  0.5926420000000  0.5191620000000 1.0
C      1  0.4184450000000  0.4824050000000  0.4556250000000 1.0
C      1  0.5356370000000  0.4961360000000  0.4807650000000 1.0
C      1  0.5157960000000  0.4773490000000  0.6042410000000 1.0
C      1  0.5535570000000  0.5376050000000  0.5095080000000 1.0
C      1  0.5260120000000  0.5418130000000  0.4646630000000 1.0
C      1  0.5176120000000  0.4481860000000  0.4511690000000 1.0
C      1  0.4944500000000  0.6062400000000  0.5163720000000 1.0
C      1  0.5677890000000  0.5581100000000  0.4602100000000 1.0
C      1  0.4872210000000  0.5589640000000  0.5812300000000 1.0
C      1  0.5202290000000  0.6026720000000  0.5004310000000 1.0
C      1  0.5579770000000  0.5279090000000  0.5347130000000 1.0
C      1  0.5849630000000  0.5402430000000  0.5355420000000 1.0
C      1  0.5028420000000  0.4569380000000  0.5513440000000 1.0
C      1  0.4463590000000  0.5311550000000  0.4378460000000 1.0
C      1  0.4978260000000  0.4745170000000  0.3963200000000 1.0
C      1  0.4689980000000  0.4677950000000  0.4016550000000 1.0
C      1  0.5358410000000  0.4246650000000  0.5565440000000 1.0
C      1  0.5424500000000  0.5078110000000  0.5485010000000 1.0
C      1  0.5578490000000  0.5032870000000  0.5750740000000 1.0
C      1  0.4464660000000  0.5062110000000  0.4199600000000 1.0
C      1  0.4310980000000  0.4776900000000  0.5743280000000 1.0
C      1  0.4984230000000  0.5613890000000  0.5318780000000 1.0
C      1  0.4588860000000  0.4400850000000  0.4466910000000 1.0
C      1  0.5714540000000  0.4644120000000  0.5601340000000 1.0
C      1  0.5244880000000  0.5890500000000  0.4747680000000 1.0
C      1  0.5238630000000  0.4598500000000  0.5307410000000 1.0
C      1  0.4636310000000  0.5139340000000  0.5410890000000 1.0
C      1  0.4953010000000  0.4342720000000  0.5675360000000 1.0
END
