TITL C-884131-4643-271 8.41354495789516 125000 -21375.6052489653 0 0 142 (C1) n - 1
REM
REM in /home/nfs/bkarasulu/CARBON/AIRSS/Generating-Clusters/ReaxFF-fromJPCA2015/Units_Real/with-SteepDescent/Only-C1/SD-CG/Try1-3A/FIRE-CG
REM
REM
REM
REM
REM
REM ./C.cell (11c1c37f851c82e70ff6c80c92926a4b)
REM
REM compiler GCC version 9.2.1 20190827 (Red Hat 9.2.1-1)
REM options -cpp -mtune=generic -march=x86-64 -g -O0 -fpre-include=/usr/include/finclude/math-vector-fortran.h
REM seed -288602355 505672507 1288155539 1708665324 325240694 -1153527475 -456909474 -1311311397 -307671327 264446963 2138314955 1960010798 -1750010315 742437851 859465165 1047441683 -527131012 180227217 -845239212 1794834077 -383600567 -118146596 938955791 426298644 -433867309 -317215967 -2035302681 518693151 1798300075 -1431488654 460667188 41095822 -1638807261
REM
CELL 1.54180   50.00000   50.00000   50.00000   90.00000   90.00000   90.00000
LATT -1
SFAC C  
C      1  0.5403370000000  0.4487590000000  0.4649260000000 1.0
C      1  0.4987530000000  0.5837980000000  0.4550650000000 1.0
C      1  0.4494070000000  0.5021950000000  0.5946270000000 1.0
C      1  0.5452740000000  0.4826460000000  0.5879800000000 1.0
C      1  0.5792380000000  0.4982690000000  0.4534150000000 1.0
C      1  0.4606670000000  0.5205230000000  0.5498510000000 1.0
C      1  0.5277280000000  0.4652360000000  0.5427910000000 1.0
C      1  0.5514910000000  0.5453900000000  0.5453720000000 1.0
C      1  0.5976080000000  0.4915560000000  0.5528820000000 1.0
C      1  0.5463930000000  0.4587780000000  0.5646810000000 1.0
C      1  0.4589690000000  0.4907580000000  0.5091310000000 1.0
C      1  0.5797050000000  0.4455760000000  0.5078560000000 1.0
C      1  0.4530870000000  0.5756280000000  0.4273700000000 1.0
C      1  0.4398400000000  0.4260550000000  0.4420590000000 1.0
C      1  0.5038730000000  0.3958840000000  0.5025660000000 1.0
C      1  0.5703620000000  0.4615150000000  0.4247570000000 1.0
C      1  0.5566660000000  0.5867780000000  0.4769240000000 1.0
C      1  0.4021790000000  0.5650960000000  0.5246990000000 1.0
C      1  0.5318830000000  0.4036830000000  0.5036280000000 1.0
C      1  0.5741560000000  0.5554080000000  0.5274310000000 1.0
C      1  0.4732670000000  0.4366160000000  0.5580960000000 1.0
C      1  0.5452820000000  0.5074230000000  0.5288230000000 1.0
C      1  0.4333210000000  0.5532640000000  0.4332410000000 1.0
C      1  0.4758400000000  0.5733280000000  0.5713320000000 1.0
C      1  0.4868990000000  0.4859160000000  0.5646200000000 1.0
C      1  0.5046050000000  0.5404600000000  0.4858630000000 1.0
C      1  0.4208910000000  0.5475110000000  0.5435670000000 1.0
C      1  0.5518250000000  0.5360230000000  0.4690540000000 1.0
C      1  0.4540360000000  0.5238600000000  0.5029780000000 1.0
C      1  0.4909540000000  0.4032100000000  0.4775900000000 1.0
C      1  0.5402530000000  0.5590110000000  0.4298400000000 1.0
C      1  0.5390420000000  0.4221200000000  0.5266310000000 1.0
C      1  0.4989630000000  0.4540850000000  0.4045160000000 1.0
C      1  0.4279500000000  0.4542600000000  0.4813310000000 1.0
C      1  0.5219640000000  0.4918490000000  0.5345810000000 1.0
C      1  0.4355230000000  0.4511340000000  0.5363860000000 1.0
C      1  0.4391150000000  0.5519670000000  0.4633860000000 1.0
C      1  0.5451150000000  0.5104140000000  0.5809870000000 1.0
C      1  0.5294460000000  0.5091730000000  0.4241840000000 1.0
C      1  0.5620740000000  0.5868080000000  0.5026220000000 1.0
C      1  0.5588820000000  0.5172270000000  0.5531060000000 1.0
C      1  0.5471660000000  0.4774160000000  0.4626430000000 1.0
C      1  0.5038790000000  0.4593560000000  0.4973060000000 1.0
C      1  0.4444110000000  0.5810640000000  0.5023080000000 1.0
C      1  0.5913470000000  0.4675500000000  0.5537530000000 1.0
C      1  0.5210730000000  0.5455950000000  0.5340270000000 1.0
C      1  0.4808530000000  0.4938910000000  0.4470790000000 1.0
C      1  0.5067040000000  0.4494250000000  0.5912430000000 1.0
C      1  0.5117560000000  0.5589420000000  0.4647710000000 1.0
C      1  0.6096580000000  0.4941330000000  0.4982410000000 1.0
C      1  0.6072360000000  0.4703860000000  0.4882450000000 1.0
C      1  0.4428490000000  0.4700960000000  0.4155410000000 1.0
C      1  0.4208390000000  0.4784150000000  0.4339920000000 1.0
C      1  0.4990880000000  0.5969740000000  0.5347180000000 1.0
C      1  0.4932880000000  0.4158190000000  0.5499810000000 1.0
C      1  0.4324950000000  0.4811610000000  0.4977610000000 1.0
C      1  0.4434890000000  0.4302180000000  0.4721400000000 1.0
C      1  0.4025340000000  0.4859900000000  0.5409990000000 1.0
C      1  0.4280160000000  0.5535080000000  0.5729920000000 1.0
C      1  0.5217690000000  0.4192170000000  0.5525510000000 1.0
C      1  0.5019560000000  0.5516410000000  0.4136400000000 1.0
C      1  0.4763790000000  0.5311090000000  0.4863120000000 1.0
C      1  0.4631200000000  0.4140970000000  0.5146990000000 1.0
C      1  0.4428650000000  0.4990350000000  0.4691220000000 1.0
C      1  0.6004770000000  0.4562650000000  0.4652210000000 1.0
C      1  0.5476600000000  0.5645690000000  0.5698110000000 1.0
C      1  0.4976400000000  0.5139170000000  0.5727670000000 1.0
C      1  0.4742800000000  0.5844840000000  0.5435800000000 1.0
C      1  0.5859710000000  0.4358690000000  0.4799640000000 1.0
C      1  0.4614190000000  0.5265840000000  0.4636650000000 1.0
C      1  0.4863120000000  0.4013240000000  0.5257000000000 1.0
C      1  0.5148520000000  0.5721760000000  0.4259820000000 1.0
C      1  0.5892970000000  0.4735370000000  0.4424350000000 1.0
C      1  0.5181030000000  0.5926800000000  0.5563160000000 1.0
C      1  0.4208070000000  0.4612560000000  0.4559770000000 1.0
C      1  0.6108600000000  0.5204790000000  0.5091880000000 1.0
C      1  0.5679510000000  0.5238060000000  0.4476290000000 1.0
C      1  0.4948390000000  0.4540480000000  0.4502100000000 1.0
C      1  0.5597020000000  0.4276650000000  0.4685900000000 1.0
C      1  0.5235710000000  0.4381500000000  0.4119510000000 1.0
C      1  0.4832820000000  0.4411830000000  0.4254090000000 1.0
C      1  0.4494320000000  0.5788210000000  0.4735110000000 1.0
C      1  0.4097190000000  0.5313560000000  0.5664500000000 1.0
C      1  0.5275330000000  0.4963320000000  0.4530610000000 1.0
C      1  0.4747660000000  0.5207210000000  0.4394440000000 1.0
C      1  0.5026060000000  0.5268110000000  0.5455200000000 1.0
C      1  0.4906810000000  0.4817990000000  0.4008040000000 1.0
C      1  0.4531660000000  0.4429440000000  0.4215840000000 1.0
C      1  0.5242990000000  0.5552060000000  0.5848870000000 1.0
C      1  0.5682520000000  0.4303740000000  0.5303660000000 1.0
C      1  0.4216900000000  0.5068360000000  0.4452900000000 1.0
C      1  0.4658960000000  0.4158230000000  0.4857420000000 1.0
C      1  0.4662160000000  0.4822190000000  0.4683000000000 1.0
C      1  0.4626150000000  0.4881200000000  0.4053790000000 1.0
C      1  0.5077390000000  0.5061880000000  0.4051190000000 1.0
C      1  0.4076600000000  0.4909440000000  0.5122820000000 1.0
C      1  0.4712130000000  0.4953910000000  0.5411380000000 1.0
C      1  0.5044700000000  0.5751450000000  0.5766030000000 1.0
C      1  0.5496640000000  0.4507610000000  0.4152940000000 1.0
C      1  0.4964780000000  0.5043390000000  0.5294460000000 1.0
C      1  0.5479270000000  0.5311400000000  0.4255030000000 1.0
C      1  0.4599290000000  0.5175240000000  0.4134920000000 1.0
C      1  0.4109050000000  0.5024540000000  0.5635190000000 1.0
C      1  0.5663580000000  0.5835350000000  0.5300390000000 1.0
C      1  0.4135270000000  0.4602300000000  0.5496950000000 1.0
C      1  0.5302280000000  0.5187410000000  0.4790820000000 1.0
C      1  0.4322360000000  0.4864340000000  0.5781820000000 1.0
C      1  0.5568650000000  0.4635150000000  0.5058590000000 1.0
C      1  0.5146020000000  0.4063300000000  0.4585430000000 1.0
C      1  0.4554410000000  0.4329490000000  0.5356220000000 1.0
C      1  0.5902510000000  0.5177960000000  0.5512020000000 1.0
C      1  0.4898840000000  0.5296880000000  0.4025940000000 1.0
C      1  0.4185630000000  0.5654620000000  0.5010140000000 1.0
C      1  0.5487180000000  0.5090110000000  0.5002520000000 1.0
C      1  0.5215710000000  0.5257270000000  0.5870170000000 1.0
C      1  0.4670270000000  0.5857800000000  0.4513300000000 1.0
C      1  0.5405520000000  0.5612760000000  0.4607770000000 1.0
C      1  0.5277390000000  0.4364180000000  0.5743580000000 1.0
C      1  0.3905850000000  0.5055550000000  0.4919600000000 1.0
C      1  0.4331000000000  0.5260790000000  0.4251170000000 1.0
C      1  0.4068620000000  0.5201060000000  0.4720210000000 1.0
C      1  0.5182750000000  0.4204170000000  0.4345370000000 1.0
C      1  0.4797350000000  0.4754760000000  0.4940660000000 1.0
C      1  0.4648060000000  0.5251660000000  0.5786730000000 1.0
C      1  0.5735670000000  0.4464710000000  0.5539110000000 1.0
C      1  0.5241270000000  0.4697720000000  0.6000360000000 1.0
C      1  0.4845100000000  0.4591450000000  0.5737250000000 1.0
C      1  0.4260470000000  0.5373430000000  0.4871210000000 1.0
C      1  0.4588140000000  0.5692930000000  0.5244010000000 1.0
C      1  0.5049770000000  0.5996120000000  0.4809350000000 1.0
C      1  0.4557610000000  0.5543740000000  0.5811320000000 1.0
C      1  0.5042400000000  0.4807210000000  0.4484520000000 1.0
C      1  0.5081820000000  0.5878680000000  0.5070790000000 1.0
C      1  0.5399390000000  0.4073650000000  0.4761140000000 1.0
C      1  0.4520760000000  0.5393270000000  0.5293520000000 1.0
C      1  0.5289780000000  0.4541140000000  0.5163010000000 1.0
C      1  0.5471400000000  0.5878320000000  0.5532280000000 1.0
C      1  0.5967150000000  0.5370850000000  0.5305900000000 1.0
C      1  0.5111710000000  0.4466170000000  0.4728880000000 1.0
C      1  0.5595970000000  0.4856930000000  0.4870630000000 1.0
C      1  0.4387470000000  0.4599310000000  0.5639950000000 1.0
C      1  0.5129710000000  0.5582780000000  0.5098040000000 1.0
END
