TITL C-883732-77-43 358523.557720752 125000 -5552.12189434902 0 0 39 (C1) n - 1
REM
REM in /home/nfs/bkarasulu/CARBON/AIRSS/Generating-Clusters/ReaxFF-fromJPCA2015/Units_Real/with-SteepDescent/Only-C1/SD-CG/Try1-3A/FIRE-CG
REM
REM
REM
REM
REM
REM ./C.cell (11c1c37f851c82e70ff6c80c92926a4b)
REM
REM compiler GCC version 9.2.1 20190827 (Red Hat 9.2.1-1)
REM options -cpp -mtune=generic -march=x86-64 -g -O0 -fpre-include=/usr/include/finclude/math-vector-fortran.h
REM seed -1258503815 1026197827 -810761003 -1015005935 -1628374865 -715411271 -1431335463 -1534323811 -1263948541 811404761 1956529452 771794342 -1402840603 1637484568 -801633771 838561393 459652267 -818533246 843103020 -1760933592 1161121628 -465492681 -1647369988 -1017168901 -128186113 680001986 -538343599 -1316546179 -2134820178 -748473918 1867095327 742518319 437195307
REM
CELL 1.54180   50.00000   50.00000   50.00000   90.00000   90.00000   90.00000
LATT -1
SFAC C  
C      1  0.4936700000000  0.4760210000000  0.4859200000000 1.0
C      1  0.5119720000000  0.5348150000000  0.5752660000000 1.0
C      1  0.4987240000000  0.4725630000000  0.4382750000000 1.0
C      1  0.4616640000000  0.5266420000000  0.5522700000000 1.0
C      1  0.5211350000000  0.5522780000000  0.4597460000000 1.0
C      1  0.4944760000000  0.5528220000000  0.4744790000000 1.0
C      1  0.5503220000000  0.4403360000000  0.4647610000000 1.0
C      1  0.5290220000000  0.5496260000000  0.5084090000000 1.0
C      1  0.5218470000000  0.4789080000000  0.4937240000000 1.0
C      1  0.5252470000000  0.4446990000000  0.4525300000000 1.0
C      1  0.5204670000000  0.5293720000000  0.4428040000000 1.0
C      1  0.4865690000000  0.4981540000000  0.4372630000000 1.0
C      1  0.4997180000000  0.4614880000000  0.5438050000000 1.0
C      1  0.4505880000000  0.4568260000000  0.5027430000000 1.0
C      1  0.5009580000000  0.5450130000000  0.5012990000000 1.0
C      1  0.4832320000000  0.4501230000000  0.4776410000000 1.0
C      1  0.5414430000000  0.5555240000000  0.4817140000000 1.0
C      1  0.4723210000000  0.4972740000000  0.4855500000000 1.0
C      1  0.5178390000000  0.5096410000000  0.5658790000000 1.0
C      1  0.4451390000000  0.5501780000000  0.5427350000000 1.0
C      1  0.4586660000000  0.5392830000000  0.4947260000000 1.0
C      1  0.4437640000000  0.4819650000000  0.4946360000000 1.0
C      1  0.5128800000000  0.5094350000000  0.4336000000000 1.0
C      1  0.5258170000000  0.4439540000000  0.5438190000000 1.0
C      1  0.4800260000000  0.5110600000000  0.5357250000000 1.0
C      1  0.4840510000000  0.4496890000000  0.5253440000000 1.0
C      1  0.5398180000000  0.4550810000000  0.4918480000000 1.0
C      1  0.4719250000000  0.4378360000000  0.5025000000000 1.0
C      1  0.5039110000000  0.4930060000000  0.5427980000000 1.0
C      1  0.5252890000000  0.4933800000000  0.5192550000000 1.0
C      1  0.5352290000000  0.5335270000000  0.5595770000000 1.0
C      1  0.4967150000000  0.4469670000000  0.4504520000000 1.0
C      1  0.4803890000000  0.5221550000000  0.5080350000000 1.0
C      1  0.4451160000000  0.5579990000000  0.5141480000000 1.0
C      1  0.4707290000000  0.5115410000000  0.4596860000000 1.0
C      1  0.5507110000000  0.5086540000000  0.5219970000000 1.0
C      1  0.5435520000000  0.5365190000000  0.5311490000000 1.0
C      1  0.4689520000000  0.5394600000000  0.4670180000000 1.0
C      1  0.5361060000000  0.4461830000000  0.5168720000000 1.0
END
