TITL C-883735-9890-7 1564692.13396748 125000 -26663.1468511671 0 0 178 (C1) n - 1
REM
REM in /home/nfs/bkarasulu/CARBON/AIRSS/Generating-Clusters/ReaxFF-fromJPCA2015/Units_Real/with-SteepDescent/Only-C1/SD-CG/Try1-3A/FIRE-CG
REM
REM
REM
REM
REM
REM ./C.cell (11c1c37f851c82e70ff6c80c92926a4b)
REM
REM compiler GCC version 9.2.1 20190827 (Red Hat 9.2.1-1)
REM options -cpp -mtune=generic -march=x86-64 -g -O0 -fpre-include=/usr/include/finclude/math-vector-fortran.h
REM seed -1164313830 -285936830 -534455464 1501475902 -1387204980 -1994967458 -1388883611 1648056774 639553953 609148010 473648232 376739560 -365891152 1111407477 1122348403 1948820327 24142473 1281157923 951561721 468196530 1488628642 1320604456 -1663616647 502660168 1611591741 670307535 966983397 -578880159 1904195199 -261505051 647535609 1525523752 159107826
REM
CELL 1.54180   50.00000   50.00000   50.00000   90.00000   90.00000   90.00000
LATT -1
SFAC C  
C      1  0.5320800000000  0.5206420000000  0.4643190000000 1.0
C      1  0.5239880000000  0.4945730000000  0.4219440000000 1.0
C      1  0.4559020000000  0.5318320000000  0.5430660000000 1.0
C      1  0.4418130000000  0.4874730000000  0.4319230000000 1.0
C      1  0.4759380000000  0.4721980000000  0.4110790000000 1.0
C      1  0.5517570000000  0.5941790000000  0.4357120000000 1.0
C      1  0.5390400000000  0.4593850000000  0.5445820000000 1.0
C      1  0.4087190000000  0.4450230000000  0.5023970000000 1.0
C      1  0.6046120000000  0.4741030000000  0.5406470000000 1.0
C      1  0.4934530000000  0.4942040000000  0.5429320000000 1.0
C      1  0.5142070000000  0.4138260000000  0.4635750000000 1.0
C      1  0.4201520000000  0.5667070000000  0.4505270000000 1.0
C      1  0.5504400000000  0.4049310000000  0.5119560000000 1.0
C      1  0.4202120000000  0.5619230000000  0.4807830000000 1.0
C      1  0.5338340000000  0.5869420000000  0.5031440000000 1.0
C      1  0.4558650000000  0.5509790000000  0.5947360000000 1.0
C      1  0.4716960000000  0.4545040000000  0.5179200000000 1.0
C      1  0.4961580000000  0.4353760000000  0.4716480000000 1.0
C      1  0.4335480000000  0.5529760000000  0.5545000000000 1.0
C      1  0.5457200000000  0.5096390000000  0.6153190000000 1.0
C      1  0.5209800000000  0.4704100000000  0.5041230000000 1.0
C      1  0.5384580000000  0.3993240000000  0.4859140000000 1.0
C      1  0.5787460000000  0.5478710000000  0.4321970000000 1.0
C      1  0.4510950000000  0.5430890000000  0.4323380000000 1.0
C      1  0.5550570000000  0.4191050000000  0.5601260000000 1.0
C      1  0.5320090000000  0.5584010000000  0.5114680000000 1.0
C      1  0.5200390000000  0.5225140000000  0.6166170000000 1.0
C      1  0.4884220000000  0.3854530000000  0.5339890000000 1.0
C      1  0.6067360000000  0.5025820000000  0.5365290000000 1.0
C      1  0.4885350000000  0.5770750000000  0.5892470000000 1.0
C      1  0.5039990000000  0.4889640000000  0.3787660000000 1.0
C      1  0.5372160000000  0.5462030000000  0.4030320000000 1.0
C      1  0.5103860000000  0.5714180000000  0.5703980000000 1.0
C      1  0.5145850000000  0.5605320000000  0.4420420000000 1.0
C      1  0.5400890000000  0.4192350000000  0.4494100000000 1.0
C      1  0.4729020000000  0.4055290000000  0.4396290000000 1.0
C      1  0.5166330000000  0.5987070000000  0.5237810000000 1.0
C      1  0.4234560000000  0.5836700000000  0.5231810000000 1.0
C      1  0.4282290000000  0.4482780000000  0.4581890000000 1.0
C      1  0.4207670000000  0.5410980000000  0.4382540000000 1.0
C      1  0.5396250000000  0.5118030000000  0.4380990000000 1.0
C      1  0.5358070000000  0.4641640000000  0.5959050000000 1.0
C      1  0.4066010000000  0.4677260000000  0.4589880000000 1.0
C      1  0.4626780000000  0.5382950000000  0.5021790000000 1.0
C      1  0.5517290000000  0.5362200000000  0.4822090000000 1.0
C      1  0.5414430000000  0.4032590000000  0.5390670000000 1.0
C      1  0.5061540000000  0.4961980000000  0.6181940000000 1.0
C      1  0.4624670000000  0.4560680000000  0.6005160000000 1.0
C      1  0.5373490000000  0.5276780000000  0.5924280000000 1.0
C      1  0.4396320000000  0.4125160000000  0.5246740000000 1.0
C      1  0.5135910000000  0.3914860000000  0.5489190000000 1.0
C      1  0.4781310000000  0.5031040000000  0.4702730000000 1.0
C      1  0.5512580000000  0.4716900000000  0.4642350000000 1.0
C      1  0.5395320000000  0.4166570000000  0.5855990000000 1.0
C      1  0.4598990000000  0.4837460000000  0.6053470000000 1.0
C      1  0.5944750000000  0.5382380000000  0.4523000000000 1.0
C      1  0.4641570000000  0.5088190000000  0.5006690000000 1.0
C      1  0.5151670000000  0.5384460000000  0.5013580000000 1.0
C      1  0.5732810000000  0.4256920000000  0.5078020000000 1.0
C      1  0.5258890000000  0.5846840000000  0.5494410000000 1.0
C      1  0.4997470000000  0.4031610000000  0.4356960000000 1.0
C      1  0.4482830000000  0.5516870000000  0.4815310000000 1.0
C      1  0.5633760000000  0.4474450000000  0.5550860000000 1.0
C      1  0.4500290000000  0.5028480000000  0.4595450000000 1.0
C      1  0.5001660000000  0.4455520000000  0.5714720000000 1.0
C      1  0.4302230000000  0.4642820000000  0.5691410000000 1.0
C      1  0.4938140000000  0.5302960000000  0.4078570000000 1.0
C      1  0.4891500000000  0.5464340000000  0.5106850000000 1.0
C      1  0.5793460000000  0.5708750000000  0.5401610000000 1.0
C      1  0.5024370000000  0.5233420000000  0.4639470000000 1.0
C      1  0.5621940000000  0.5845840000000  0.4944320000000 1.0
C      1  0.4963460000000  0.3984030000000  0.5091970000000 1.0
C      1  0.4588370000000  0.5792970000000  0.5858560000000 1.0
C      1  0.6097290000000  0.5444570000000  0.5210450000000 1.0
C      1  0.5312620000000  0.5237820000000  0.5447970000000 1.0
C      1  0.4747120000000  0.5991560000000  0.5229130000000 1.0
C      1  0.4592660000000  0.4980030000000  0.4107230000000 1.0
C      1  0.4013530000000  0.5378930000000  0.5186050000000 1.0
C      1  0.4509050000000  0.4396670000000  0.5342940000000 1.0
C      1  0.4257200000000  0.4207170000000  0.5008600000000 1.0
C      1  0.4999070000000  0.4490620000000  0.5178020000000 1.0
C      1  0.4003560000000  0.5423390000000  0.4911100000000 1.0
C      1  0.4492690000000  0.4121850000000  0.4512360000000 1.0
C      1  0.5559310000000  0.5297830000000  0.4173580000000 1.0
C      1  0.4454040000000  0.5813120000000  0.5602690000000 1.0
C      1  0.4129070000000  0.4909490000000  0.4419480000000 1.0
C      1  0.5653520000000  0.5247840000000  0.5067670000000 1.0
C      1  0.4936450000000  0.6021920000000  0.5053470000000 1.0
C      1  0.4937110000000  0.5489140000000  0.4586580000000 1.0
C      1  0.4171370000000  0.4727940000000  0.5458800000000 1.0
C      1  0.5150810000000  0.4387920000000  0.5431560000000 1.0
C      1  0.4685560000000  0.3939680000000  0.4985140000000 1.0
C      1  0.5741190000000  0.4991040000000  0.5640930000000 1.0
C      1  0.5254990000000  0.4720350000000  0.4759590000000 1.0
C      1  0.5605930000000  0.5632870000000  0.4741900000000 1.0
C      1  0.4611070000000  0.5968410000000  0.4646350000000 1.0
C      1  0.4509460000000  0.5961230000000  0.5363280000000 1.0
C      1  0.4852980000000  0.6036870000000  0.4730560000000 1.0
C      1  0.4486770000000  0.4429850000000  0.5636770000000 1.0
C      1  0.4514940000000  0.4140060000000  0.4837550000000 1.0
C      1  0.4141060000000  0.5577870000000  0.5338440000000 1.0
C      1  0.4683080000000  0.4882640000000  0.5264620000000 1.0
C      1  0.3978750000000  0.4683950000000  0.4873020000000 1.0
C      1  0.4168560000000  0.5004960000000  0.5455460000000 1.0
C      1  0.4590080000000  0.3901110000000  0.5256730000000 1.0
C      1  0.5584120000000  0.3989630000000  0.4645230000000 1.0
C      1  0.4996710000000  0.4781740000000  0.5705790000000 1.0
C      1  0.5692130000000  0.4537800000000  0.4990630000000 1.0
C      1  0.4349490000000  0.4865280000000  0.5881670000000 1.0
C      1  0.4332540000000  0.5368970000000  0.5816990000000 1.0
C      1  0.4451530000000  0.5814500000000  0.4476140000000 1.0
C      1  0.5284650000000  0.4984090000000  0.3927670000000 1.0
C      1  0.5963430000000  0.5478180000000  0.5464660000000 1.0
C      1  0.4485060000000  0.5062120000000  0.5390830000000 1.0
C      1  0.4588730000000  0.5537640000000  0.3868090000000 1.0
C      1  0.5117770000000  0.5531550000000  0.4135820000000 1.0
C      1  0.4693040000000  0.5228640000000  0.4204540000000 1.0
C      1  0.5308850000000  0.4790140000000  0.5700120000000 1.0
C      1  0.5087740000000  0.5414350000000  0.5786200000000 1.0
C      1  0.6066680000000  0.5132080000000  0.4828840000000 1.0
C      1  0.6108990000000  0.4566520000000  0.5168950000000 1.0
C      1  0.4384580000000  0.4729000000000  0.4970760000000 1.0
C      1  0.5248340000000  0.5877810000000  0.4466790000000 1.0
C      1  0.5746990000000  0.4838430000000  0.4559250000000 1.0
C      1  0.5661700000000  0.4592330000000  0.4438800000000 1.0
C      1  0.5067380000000  0.4394720000000  0.3943660000000 1.0
C      1  0.4877400000000  0.4893710000000  0.5964290000000 1.0
C      1  0.5260030000000  0.5124390000000  0.5155600000000 1.0
C      1  0.4403170000000  0.4992630000000  0.4866970000000 1.0
C      1  0.5515130000000  0.5697880000000  0.5487630000000 1.0
C      1  0.4915420000000  0.4640140000000  0.3867490000000 1.0
C      1  0.4517760000000  0.4592700000000  0.4238820000000 1.0
C      1  0.5246760000000  0.4512040000000  0.4155110000000 1.0
C      1  0.5191690000000  0.4011270000000  0.5741920000000 1.0
C      1  0.4063050000000  0.5179500000000  0.4495820000000 1.0
C      1  0.5817330000000  0.4708580000000  0.5584510000000 1.0
C      1  0.5087280000000  0.4229020000000  0.5191230000000 1.0
C      1  0.4715770000000  0.4380170000000  0.4879520000000 1.0
C      1  0.5982690000000  0.4313680000000  0.5167990000000 1.0
C      1  0.4969130000000  0.5994420000000  0.4455360000000 1.0
C      1  0.5511780000000  0.5003910000000  0.5092140000000 1.0
C      1  0.5453580000000  0.5073800000000  0.5681960000000 1.0
C      1  0.4716590000000  0.4379840000000  0.5807810000000 1.0
C      1  0.4624570000000  0.5548220000000  0.4575410000000 1.0
C      1  0.5693790000000  0.5718030000000  0.4465810000000 1.0
C      1  0.4245760000000  0.5106720000000  0.5766990000000 1.0
C      1  0.4855560000000  0.5487290000000  0.5968210000000 1.0
C      1  0.5848490000000  0.5779560000000  0.5115820000000 1.0
C      1  0.4616550000000  0.5248300000000  0.3790430000000 1.0
C      1  0.5473990000000  0.4407760000000  0.4309300000000 1.0
C      1  0.5093720000000  0.4915220000000  0.5187060000000 1.0
C      1  0.4620500000000  0.5678860000000  0.4124070000000 1.0
C      1  0.5435030000000  0.5231300000000  0.3905730000000 1.0
C      1  0.5958390000000  0.4879400000000  0.4742780000000 1.0
C      1  0.4994810000000  0.4176750000000  0.4113910000000 1.0
C      1  0.4908150000000  0.5152090000000  0.3826220000000 1.0
C      1  0.4545500000000  0.4588990000000  0.4762050000000 1.0
C      1  0.5067980000000  0.4711080000000  0.4283610000000 1.0
C      1  0.5330190000000  0.4827960000000  0.6181870000000 1.0
C      1  0.3958400000000  0.5180800000000  0.4774720000000 1.0
C      1  0.4782590000000  0.4746660000000  0.4675210000000 1.0
C      1  0.4841820000000  0.5834110000000  0.4230940000000 1.0
C      1  0.5482140000000  0.5450660000000  0.5318880000000 1.0
C      1  0.6076880000000  0.5414700000000  0.4760490000000 1.0
C      1  0.5034830000000  0.5266870000000  0.5529790000000 1.0
C      1  0.5027670000000  0.4623270000000  0.4608560000000 1.0
C      1  0.5498430000000  0.4716670000000  0.5147880000000 1.0
C      1  0.3953410000000  0.4962710000000  0.4972150000000 1.0
C      1  0.6059170000000  0.5620850000000  0.4992180000000 1.0
C      1  0.4270640000000  0.4599950000000  0.5220920000000 1.0
C      1  0.4161790000000  0.5910300000000  0.4971150000000 1.0
C      1  0.4393490000000  0.4355980000000  0.4350410000000 1.0
C      1  0.5937550000000  0.5194150000000  0.5561440000000 1.0
C      1  0.5955360000000  0.4650350000000  0.4924340000000 1.0
C      1  0.4008190000000  0.5097550000000  0.5222400000000 1.0
C      1  0.5987120000000  0.5182580000000  0.5107620000000 1.0
C      1  0.4834060000000  0.5404830000000  0.5376600000000 1.0
C      1  0.5214800000000  0.4391810000000  0.5923890000000 1.0
END
