TITL C-884139-6216-114 23.4599771574275 125000 -29506.7421555784 0 0 194 (C1) n - 1
REM
REM in /home/nfs/bkarasulu/CARBON/AIRSS/Generating-Clusters/ReaxFF-fromJPCA2015/Units_Real/with-SteepDescent/Only-C1/SD-CG/Try1-3A/FIRE-CG
REM
REM
REM
REM
REM
REM ./C.cell (11c1c37f851c82e70ff6c80c92926a4b)
REM
REM compiler GCC version 9.2.1 20190827 (Red Hat 9.2.1-1)
REM options -cpp -mtune=generic -march=x86-64 -g -O0 -fpre-include=/usr/include/finclude/math-vector-fortran.h
REM seed 1319016919 -930253793 -1443600698 1685220726 -479923405 279919277 511341327 725370895 999609281 -579836677 -995474514 194477379 1627129310 -914677020 -552931327 541766580 -603703319 -1988804742 1553461518 -1068489702 2061199237 1631234798 1821674369 -1513852733 1098632962 -11651161 185666086 1675178564 1149078897 -1496856238 -1197136524 296753717 55605623
REM
CELL 1.54180   50.00000   50.00000   50.00000   90.00000   90.00000   90.00000
LATT -1
SFAC C  
C      1  0.5710000000000  0.4643970000000  0.5812650000000 1.0
C      1  0.5225300000000  0.5204610000000  0.4379590000000 1.0
C      1  0.4200350000000  0.4405200000000  0.4573310000000 1.0
C      1  0.5385030000000  0.5004880000000  0.5533270000000 1.0
C      1  0.5313410000000  0.4390230000000  0.5186900000000 1.0
C      1  0.5632890000000  0.4963680000000  0.4209090000000 1.0
C      1  0.4852630000000  0.5031280000000  0.4581660000000 1.0
C      1  0.5767220000000  0.4626540000000  0.4509330000000 1.0
C      1  0.4391680000000  0.5928770000000  0.4632580000000 1.0
C      1  0.5856930000000  0.5383660000000  0.4411050000000 1.0
C      1  0.5735520000000  0.4238270000000  0.4408000000000 1.0
C      1  0.5938230000000  0.4277600000000  0.5155780000000 1.0
C      1  0.5001860000000  0.4099960000000  0.4211610000000 1.0
C      1  0.4397340000000  0.5816640000000  0.5437170000000 1.0
C      1  0.6094920000000  0.5293420000000  0.5198790000000 1.0
C      1  0.4615000000000  0.4292210000000  0.4498680000000 1.0
C      1  0.5578800000000  0.4024780000000  0.5366970000000 1.0
C      1  0.5286620000000  0.6034720000000  0.4654120000000 1.0
C      1  0.4700260000000  0.5470670000000  0.4849800000000 1.0
C      1  0.5453180000000  0.4150450000000  0.4414850000000 1.0
C      1  0.5623300000000  0.5380930000000  0.5747110000000 1.0
C      1  0.3970760000000  0.5182640000000  0.5492150000000 1.0
C      1  0.4516250000000  0.4050100000000  0.4364360000000 1.0
C      1  0.4175380000000  0.5085300000000  0.4153100000000 1.0
C      1  0.4070810000000  0.4323560000000  0.5088050000000 1.0
C      1  0.5936400000000  0.5514400000000  0.4694370000000 1.0
C      1  0.4547520000000  0.5004720000000  0.5460150000000 1.0
C      1  0.4259590000000  0.5439930000000  0.4541420000000 1.0
C      1  0.4231120000000  0.4686520000000  0.5212220000000 1.0
C      1  0.4877290000000  0.5032290000000  0.6077790000000 1.0
C      1  0.4400370000000  0.5930490000000  0.4900970000000 1.0
C      1  0.5158710000000  0.4035140000000  0.4810140000000 1.0
C      1  0.5338460000000  0.5229140000000  0.6022130000000 1.0
C      1  0.4679890000000  0.4610930000000  0.4802500000000 1.0
C      1  0.6178610000000  0.5070490000000  0.4799670000000 1.0
C      1  0.4811650000000  0.6024980000000  0.4865230000000 1.0
C      1  0.4088820000000  0.4829590000000  0.4279940000000 1.0
C      1  0.5109870000000  0.6126700000000  0.5384910000000 1.0
C      1  0.5457510000000  0.5433820000000  0.4072210000000 1.0
C      1  0.5240860000000  0.6136450000000  0.5119580000000 1.0
C      1  0.5142450000000  0.3918410000000  0.5092350000000 1.0
C      1  0.5621470000000  0.5513590000000  0.4311450000000 1.0
C      1  0.5232160000000  0.5721250000000  0.4272990000000 1.0
C      1  0.4005760000000  0.5470970000000  0.5484130000000 1.0
C      1  0.4408440000000  0.5872150000000  0.4349510000000 1.0
C      1  0.4276290000000  0.4790080000000  0.5735190000000 1.0
C      1  0.5288800000000  0.4554690000000  0.4142020000000 1.0
C      1  0.5427410000000  0.4023080000000  0.4676550000000 1.0
C      1  0.4855240000000  0.5228450000000  0.4144120000000 1.0
C      1  0.4667360000000  0.5870540000000  0.4203740000000 1.0
C      1  0.4595430000000  0.5467170000000  0.4571270000000 1.0
C      1  0.5065070000000  0.4748230000000  0.4150500000000 1.0
C      1  0.5319820000000  0.4081700000000  0.5251130000000 1.0
C      1  0.5978730000000  0.5517470000000  0.5399750000000 1.0
C      1  0.3906290000000  0.4988870000000  0.4758250000000 1.0
C      1  0.5260630000000  0.4592890000000  0.6094650000000 1.0
C      1  0.6200420000000  0.4822810000000  0.4977130000000 1.0
C      1  0.4934590000000  0.5471330000000  0.3994370000000 1.0
C      1  0.4828830000000  0.5717880000000  0.5723080000000 1.0
C      1  0.4758530000000  0.4100680000000  0.5379080000000 1.0
C      1  0.3811710000000  0.4778050000000  0.5173630000000 1.0
C      1  0.5546150000000  0.4566530000000  0.5136110000000 1.0
C      1  0.5532900000000  0.5737630000000  0.5191860000000 1.0
C      1  0.4873070000000  0.5247280000000  0.5517560000000 1.0
C      1  0.4248410000000  0.5013540000000  0.5525860000000 1.0
C      1  0.4311970000000  0.5834940000000  0.5144630000000 1.0
C      1  0.4825050000000  0.3958810000000  0.4406170000000 1.0
C      1  0.5572790000000  0.5958550000000  0.4767040000000 1.0
C      1  0.5208190000000  0.5582670000000  0.4018370000000 1.0
C      1  0.5913050000000  0.4471550000000  0.5381970000000 1.0
C      1  0.4451020000000  0.4108550000000  0.5433460000000 1.0
C      1  0.3803820000000  0.5051650000000  0.5296760000000 1.0
C      1  0.4032080000000  0.4477170000000  0.4848140000000 1.0
C      1  0.5308750000000  0.5735550000000  0.5928550000000 1.0
C      1  0.4776340000000  0.4540580000000  0.5971070000000 1.0
C      1  0.4465830000000  0.4550080000000  0.5324290000000 1.0
C      1  0.4480780000000  0.5241570000000  0.5903210000000 1.0
C      1  0.4861400000000  0.3910860000000  0.5160820000000 1.0
C      1  0.5541090000000  0.4564830000000  0.6061840000000 1.0
C      1  0.5393000000000  0.5299510000000  0.5567140000000 1.0
C      1  0.5766970000000  0.5643540000000  0.5296220000000 1.0
C      1  0.4767400000000  0.4760230000000  0.4571690000000 1.0
C      1  0.3785490000000  0.5296680000000  0.5127090000000 1.0
C      1  0.5748330000000  0.4065750000000  0.5127970000000 1.0
C      1  0.4018710000000  0.4991690000000  0.4513810000000 1.0
C      1  0.5030170000000  0.4689730000000  0.5560440000000 1.0
C      1  0.6113970000000  0.5036640000000  0.5390970000000 1.0
C      1  0.4218670000000  0.4973130000000  0.5219320000000 1.0
C      1  0.5858650000000  0.5102160000000  0.4363060000000 1.0
C      1  0.4699270000000  0.4847190000000  0.5935840000000 1.0
C      1  0.4655430000000  0.5895140000000  0.5563370000000 1.0
C      1  0.5490810000000  0.6004370000000  0.5050030000000 1.0
C      1  0.4943390000000  0.4170740000000  0.5642440000000 1.0
C      1  0.4502120000000  0.4152240000000  0.4966690000000 1.0
C      1  0.5758750000000  0.4486570000000  0.4252740000000 1.0
C      1  0.5142680000000  0.5002510000000  0.4558120000000 1.0
C      1  0.5818250000000  0.5193930000000  0.5094220000000 1.0
C      1  0.4769590000000  0.5951150000000  0.5146610000000 1.0
C      1  0.5057620000000  0.5139510000000  0.4990420000000 1.0
C      1  0.4424480000000  0.4955420000000  0.5913540000000 1.0
C      1  0.6111610000000  0.4791560000000  0.5250330000000 1.0
C      1  0.4627510000000  0.5410050000000  0.5428380000000 1.0
C      1  0.5415820000000  0.5154640000000  0.4161800000000 1.0
C      1  0.4374270000000  0.5177570000000  0.5067440000000 1.0
C      1  0.5450380000000  0.5507540000000  0.4549270000000 1.0
C      1  0.4083400000000  0.5481300000000  0.4794690000000 1.0
C      1  0.4256850000000  0.4602680000000  0.4308820000000 1.0
C      1  0.4792230000000  0.5815430000000  0.4655200000000 1.0
C      1  0.5160630000000  0.5977530000000  0.4396770000000 1.0
C      1  0.5265880000000  0.4537920000000  0.4699960000000 1.0
C      1  0.5154320000000  0.5004080000000  0.5980550000000 1.0
C      1  0.6009670000000  0.4343980000000  0.4879750000000 1.0
C      1  0.6154820000000  0.5337840000000  0.4900930000000 1.0
C      1  0.5200610000000  0.4878620000000  0.5715710000000 1.0
C      1  0.5099760000000  0.6116230000000  0.4859800000000 1.0
C      1  0.5078910000000  0.5637800000000  0.5012970000000 1.0
C      1  0.4751340000000  0.4452130000000  0.4321570000000 1.0
C      1  0.5743830000000  0.4917760000000  0.5097170000000 1.0
C      1  0.5732070000000  0.4426240000000  0.5614660000000 1.0
C      1  0.5246570000000  0.5947920000000  0.5573720000000 1.0
C      1  0.4796060000000  0.5219710000000  0.4934190000000 1.0
C      1  0.4248150000000  0.5616380000000  0.5585780000000 1.0
C      1  0.4691100000000  0.5628480000000  0.4033870000000 1.0
C      1  0.5137810000000  0.4371210000000  0.4903070000000 1.0
C      1  0.4766200000000  0.5004520000000  0.5637490000000 1.0
C      1  0.6054700000000  0.4983470000000  0.4544490000000 1.0
C      1  0.5230020000000  0.4247240000000  0.5656450000000 1.0
C      1  0.4310180000000  0.5603240000000  0.4286090000000 1.0
C      1  0.5188590000000  0.5493950000000  0.6004770000000 1.0
C      1  0.4425490000000  0.5160750000000  0.4032080000000 1.0
C      1  0.5321010000000  0.5537960000000  0.5121480000000 1.0
C      1  0.5608700000000  0.5156240000000  0.5932500000000 1.0
C      1  0.4299230000000  0.4149830000000  0.5184590000000 1.0
C      1  0.4523420000000  0.5405180000000  0.5159690000000 1.0
C      1  0.5671330000000  0.4035450000000  0.4838120000000 1.0
C      1  0.4583890000000  0.4806650000000  0.4971300000000 1.0
C      1  0.4915760000000  0.4784230000000  0.5306690000000 1.0
C      1  0.5329720000000  0.4931770000000  0.5258950000000 1.0
C      1  0.4936150000000  0.4647590000000  0.4389420000000 1.0
C      1  0.4935770000000  0.5736140000000  0.5227870000000 1.0
C      1  0.5165000000000  0.5500230000000  0.4480080000000 1.0
C      1  0.5765750000000  0.4694810000000  0.5282780000000 1.0
C      1  0.4714080000000  0.3933260000000  0.4914440000000 1.0
C      1  0.5745290000000  0.5336380000000  0.4853480000000 1.0
C      1  0.4129720000000  0.5216440000000  0.4402740000000 1.0
C      1  0.4254530000000  0.4114830000000  0.4485220000000 1.0
C      1  0.5126760000000  0.5394710000000  0.5540370000000 1.0
C      1  0.4450970000000  0.5423690000000  0.5667930000000 1.0
C      1  0.5853710000000  0.4192890000000  0.4681260000000 1.0
C      1  0.5083190000000  0.4938080000000  0.5170920000000 1.0
C      1  0.6021190000000  0.4711300000000  0.4576970000000 1.0
C      1  0.5533100000000  0.4208060000000  0.5593660000000 1.0
C      1  0.5327450000000  0.4813860000000  0.4734710000000 1.0
C      1  0.4738520000000  0.4305860000000  0.5799040000000 1.0
C      1  0.4470280000000  0.4374300000000  0.4730570000000 1.0
C      1  0.5249050000000  0.4275910000000  0.4241600000000 1.0
C      1  0.5522860000000  0.4632930000000  0.4647840000000 1.0
C      1  0.5044550000000  0.5689220000000  0.5509390000000 1.0
C      1  0.5780100000000  0.5772150000000  0.4717680000000 1.0
C      1  0.4897240000000  0.5528500000000  0.5940720000000 1.0
C      1  0.3907180000000  0.5264230000000  0.4860050000000 1.0
C      1  0.5371840000000  0.5949040000000  0.5813490000000 1.0
C      1  0.4815630000000  0.6091420000000  0.5399920000000 1.0
C      1  0.4737360000000  0.5261670000000  0.4420660000000 1.0
C      1  0.3911450000000  0.5544300000000  0.5219310000000 1.0
C      1  0.4463920000000  0.4637960000000  0.4112840000000 1.0
C      1  0.4745040000000  0.5288740000000  0.6018000000000 1.0
C      1  0.4875870000000  0.4950980000000  0.4038410000000 1.0
C      1  0.4587130000000  0.4913620000000  0.4040280000000 1.0
C      1  0.4864470000000  0.5950980000000  0.4400500000000 1.0
C      1  0.4633110000000  0.4800030000000  0.5255040000000 1.0
C      1  0.4367620000000  0.4542700000000  0.5612670000000 1.0
C      1  0.4563540000000  0.5061780000000  0.4867380000000 1.0
C      1  0.5302510000000  0.5292970000000  0.4984620000000 1.0
C      1  0.4770150000000  0.4160200000000  0.4053370000000 1.0
C      1  0.5963190000000  0.5078610000000  0.5637950000000 1.0
C      1  0.5003630000000  0.4633450000000  0.6100860000000 1.0
C      1  0.5560220000000  0.4680480000000  0.4158730000000 1.0
C      1  0.3877130000000  0.4728680000000  0.4893050000000 1.0
C      1  0.4458070000000  0.5456390000000  0.4079370000000 1.0
C      1  0.4465700000000  0.4277120000000  0.5673610000000 1.0
C      1  0.3974110000000  0.4549120000000  0.5265130000000 1.0
C      1  0.4891890000000  0.3933370000000  0.4683760000000 1.0
C      1  0.5187230000000  0.4458920000000  0.5466900000000 1.0
C      1  0.5480080000000  0.4833330000000  0.5048080000000 1.0
C      1  0.6134030000000  0.4597140000000  0.4808360000000 1.0
C      1  0.5487370000000  0.5338970000000  0.4769510000000 1.0
C      1  0.4652600000000  0.4416990000000  0.4034510000000 1.0
C      1  0.4961600000000  0.5591560000000  0.4749660000000 1.0
C      1  0.5896280000000  0.5363790000000  0.5638590000000 1.0
C      1  0.5765120000000  0.4932480000000  0.5804710000000 1.0
C      1  0.4097210000000  0.5664230000000  0.5020890000000 1.0
C      1  0.4690560000000  0.4338010000000  0.5174490000000 1.0
C      1  0.4867820000000  0.4450390000000  0.4977990000000 1.0
END
