TITL C-884129-4740-388 1.3546401596928 125000 -4552.23902705117 0 0 32 (C1) n - 1
REM
REM in /home/nfs/bkarasulu/CARBON/AIRSS/Generating-Clusters/ReaxFF-fromJPCA2015/Units_Real/with-SteepDescent/Only-C1/SD-CG/Try1-3A/FIRE-CG
REM
REM
REM
REM
REM
REM ./C.cell (11c1c37f851c82e70ff6c80c92926a4b)
REM
REM compiler GCC version 9.2.1 20190827 (Red Hat 9.2.1-1)
REM options -cpp -mtune=generic -march=x86-64 -g -O0 -fpre-include=/usr/include/finclude/math-vector-fortran.h
REM seed -143600811 471871511 2042617699 987292148 452258784 444083523 -1333472203 -136282451 1023904984 2056865364 1327708232 -1129799265 321479559 -850692634 2112032467 1403649628 -1565186803 1603913154 -88829387 -651681133 665555746 88824700 2133607620 1709209329 690374703 -298302198 1511427546 119081302 1535233722 337866500 1683317671 -135546316 -2064584030
REM
CELL 1.54180   50.00000   50.00000   50.00000   90.00000   90.00000   90.00000
LATT -1
SFAC C  
C      1  0.4988590000000  0.5607270000000  0.5052240000000 1.0
C      1  0.4340990000000  0.5097530000000  0.4884000000000 1.0
C      1  0.5469320000000  0.5190450000000  0.5306950000000 1.0
C      1  0.4584620000000  0.5102910000000  0.5308390000000 1.0
C      1  0.5262200000000  0.5345520000000  0.5438010000000 1.0
C      1  0.4905840000000  0.4597210000000  0.5112660000000 1.0
C      1  0.5146750000000  0.4877100000000  0.5479410000000 1.0
C      1  0.5513220000000  0.4998370000000  0.4716600000000 1.0
C      1  0.5441900000000  0.4908650000000  0.5366420000000 1.0
C      1  0.5008420000000  0.4719870000000  0.5303330000000 1.0
C      1  0.4937190000000  0.5185030000000  0.4504690000000 1.0
C      1  0.5430400000000  0.5334540000000  0.5057910000000 1.0
C      1  0.4234340000000  0.4850570000000  0.4997890000000 1.0
C      1  0.4955010000000  0.5510160000000  0.4772190000000 1.0
C      1  0.4353390000000  0.4613920000000  0.4951110000000 1.0
C      1  0.5384660000000  0.5228440000000  0.4797740000000 1.0
C      1  0.4349760000000  0.5083630000000  0.5175800000000 1.0
C      1  0.5149790000000  0.5317120000000  0.4660800000000 1.0
C      1  0.4771920000000  0.4953710000000  0.4583240000000 1.0
C      1  0.5467190000000  0.4737550000000  0.5128140000000 1.0
C      1  0.5236300000000  0.5516700000000  0.5194470000000 1.0
C      1  0.5058060000000  0.5151930000000  0.5538600000000 1.0
C      1  0.4572390000000  0.5128760000000  0.4706920000000 1.0
C      1  0.4805690000000  0.5120070000000  0.5430820000000 1.0
C      1  0.4511090000000  0.4390220000000  0.4899680000000 1.0
C      1  0.4819900000000  0.4493020000000  0.4884010000000 1.0
C      1  0.5524070000000  0.4749710000000  0.4843230000000 1.0
C      1  0.5152550000000  0.4662590000000  0.4702210000000 1.0
C      1  0.5384840000000  0.4768480000000  0.4594610000000 1.0
C      1  0.4883390000000  0.4676860000000  0.4654900000000 1.0
C      1  0.5621750000000  0.4715170000000  0.5333040000000 1.0
C      1  0.4734480000000  0.5366950000000  0.4619990000000 1.0
END
