TITL C-883733-4178-247 160.122370449723 125000 -28993.4970498898 0 0 196 (C1) n - 1
REM
REM in /home/nfs/bkarasulu/CARBON/AIRSS/Generating-Clusters/ReaxFF-fromJPCA2015/Units_Real/with-SteepDescent/Only-C1/SD-CG/Try1-3A/FIRE-CG
REM
REM
REM
REM
REM
REM ./C.cell (11c1c37f851c82e70ff6c80c92926a4b)
REM
REM compiler GCC version 9.2.1 20190827 (Red Hat 9.2.1-1)
REM options -cpp -mtune=generic -march=x86-64 -g -O0 -fpre-include=/usr/include/finclude/math-vector-fortran.h
REM seed 274459988 -1685580569 1493379126 626469229 1880099121 813843869 1198852658 -1769089690 -1008315590 -412435326 322396951 1647728512 1405389936 1854195794 -132532519 -461532408 1371696049 -1510582092 -2132790492 -858804113 500340071 -684915777 771964214 1635184712 313391684 244675369 -1482261261 -1398448575 -1044559068 -854131242 166299688 923741392 -842235860
REM
CELL 1.54180   50.00000   50.00000   50.00000   90.00000   90.00000   90.00000
LATT -1
SFAC C  
C      1  0.5240010000000  0.5999540000000  0.5611230000000 1.0
C      1  0.5159210000000  0.4209450000000  0.5660660000000 1.0
C      1  0.5540680000000  0.4506070000000  0.5523460000000 1.0
C      1  0.5577250000000  0.4021850000000  0.5307660000000 1.0
C      1  0.5227910000000  0.4075130000000  0.4260280000000 1.0
C      1  0.4438760000000  0.4023250000000  0.4860350000000 1.0
C      1  0.4117510000000  0.4442580000000  0.5161200000000 1.0
C      1  0.5867570000000  0.5690770000000  0.4632780000000 1.0
C      1  0.4823620000000  0.5132010000000  0.5193560000000 1.0
C      1  0.5149690000000  0.6087150000000  0.5131140000000 1.0
C      1  0.5810400000000  0.5602140000000  0.5685190000000 1.0
C      1  0.4670550000000  0.3938410000000  0.4978540000000 1.0
C      1  0.3785960000000  0.5221270000000  0.4536530000000 1.0
C      1  0.4918290000000  0.4509430000000  0.6017710000000 1.0
C      1  0.5905440000000  0.4756890000000  0.4666830000000 1.0
C      1  0.4195110000000  0.4435710000000  0.4853750000000 1.0
C      1  0.5567360000000  0.4577890000000  0.6046040000000 1.0
C      1  0.4773750000000  0.5603100000000  0.5055740000000 1.0
C      1  0.5439240000000  0.4729890000000  0.5363340000000 1.0
C      1  0.4366730000000  0.5546370000000  0.4776610000000 1.0
C      1  0.4828890000000  0.5061550000000  0.4876040000000 1.0
C      1  0.5907880000000  0.5005530000000  0.5684540000000 1.0
C      1  0.5818810000000  0.5177440000000  0.4672640000000 1.0
C      1  0.5076950000000  0.5368450000000  0.5803890000000 1.0
C      1  0.5411490000000  0.4817020000000  0.6100310000000 1.0
C      1  0.6111670000000  0.5124690000000  0.5508890000000 1.0
C      1  0.6119040000000  0.5236830000000  0.4697670000000 1.0
C      1  0.6125260000000  0.4884970000000  0.5329360000000 1.0
C      1  0.4704180000000  0.5083540000000  0.4389890000000 1.0
C      1  0.5736980000000  0.5791050000000  0.5458130000000 1.0
C      1  0.4804860000000  0.4040470000000  0.4551430000000 1.0
C      1  0.5032020000000  0.5530020000000  0.4038550000000 1.0
C      1  0.4487010000000  0.4508890000000  0.4806760000000 1.0
C      1  0.4951280000000  0.4059420000000  0.4294030000000 1.0
C      1  0.5032440000000  0.6091970000000  0.4858310000000 1.0
C      1  0.4688980000000  0.5268070000000  0.6068390000000 1.0
C      1  0.4595750000000  0.4196230000000  0.5685860000000 1.0
C      1  0.4289090000000  0.4268950000000  0.5304060000000 1.0
C      1  0.5773420000000  0.4493720000000  0.4276800000000 1.0
C      1  0.5460740000000  0.5485780000000  0.4586640000000 1.0
C      1  0.4652130000000  0.5546280000000  0.4782040000000 1.0
C      1  0.4992650000000  0.5219860000000  0.4684520000000 1.0
C      1  0.5580860000000  0.4535560000000  0.4972830000000 1.0
C      1  0.4456400000000  0.4863360000000  0.4628940000000 1.0
C      1  0.4469840000000  0.5401970000000  0.5923450000000 1.0
C      1  0.4847190000000  0.5446710000000  0.4567210000000 1.0
C      1  0.5221290000000  0.5299620000000  0.3972230000000 1.0
C      1  0.4564830000000  0.4326260000000  0.4229600000000 1.0
C      1  0.4381130000000  0.4818830000000  0.5070650000000 1.0
C      1  0.4987240000000  0.5462780000000  0.5526360000000 1.0
C      1  0.3963840000000  0.4662670000000  0.5296090000000 1.0
C      1  0.5349660000000  0.5862200000000  0.4527790000000 1.0
C      1  0.4654820000000  0.5855500000000  0.5208870000000 1.0
C      1  0.3966260000000  0.4678990000000  0.5591380000000 1.0
C      1  0.5193260000000  0.5932660000000  0.4287190000000 1.0
C      1  0.5158490000000  0.4913560000000  0.6236570000000 1.0
C      1  0.5372840000000  0.4817200000000  0.3936220000000 1.0
C      1  0.4041640000000  0.4662730000000  0.4741530000000 1.0
C      1  0.5294290000000  0.4610630000000  0.4301650000000 1.0
C      1  0.5693790000000  0.5158440000000  0.4424830000000 1.0
C      1  0.5238680000000  0.5157820000000  0.4218270000000 1.0
C      1  0.3892630000000  0.5211010000000  0.5432970000000 1.0
C      1  0.4467300000000  0.5850610000000  0.4340420000000 1.0
C      1  0.5243530000000  0.5412700000000  0.4946650000000 1.0
C      1  0.4262790000000  0.5064690000000  0.5008320000000 1.0
C      1  0.5301780000000  0.5107990000000  0.5306840000000 1.0
C      1  0.6013780000000  0.5524950000000  0.5099090000000 1.0
C      1  0.5200210000000  0.4683480000000  0.4911890000000 1.0
C      1  0.5208060000000  0.5835410000000  0.5850540000000 1.0
C      1  0.5148830000000  0.4707690000000  0.5410870000000 1.0
C      1  0.4530340000000  0.4634550000000  0.5896050000000 1.0
C      1  0.3914650000000  0.5418830000000  0.4984370000000 1.0
C      1  0.4309920000000  0.4978440000000  0.5734690000000 1.0
C      1  0.5361790000000  0.4931530000000  0.5821900000000 1.0
C      1  0.6026800000000  0.5512090000000  0.4808120000000 1.0
C      1  0.4723090000000  0.4551020000000  0.4976500000000 1.0
C      1  0.4887170000000  0.5379240000000  0.3749860000000 1.0
C      1  0.4025490000000  0.4909280000000  0.4902120000000 1.0
C      1  0.4161420000000  0.5369420000000  0.4308070000000 1.0
C      1  0.4002440000000  0.4719530000000  0.4454800000000 1.0
C      1  0.4397580000000  0.5354490000000  0.4148840000000 1.0
C      1  0.3930460000000  0.5207230000000  0.4291090000000 1.0
C      1  0.5513500000000  0.5337280000000  0.3980280000000 1.0
C      1  0.4749000000000  0.6124500000000  0.4748710000000 1.0
C      1  0.4584060000000  0.4622720000000  0.4559670000000 1.0
C      1  0.4566340000000  0.4834030000000  0.4005700000000 1.0
C      1  0.4187760000000  0.5524920000000  0.5010790000000 1.0
C      1  0.4315730000000  0.5281180000000  0.5678970000000 1.0
C      1  0.5981220000000  0.4375650000000  0.5265020000000 1.0
C      1  0.4688340000000  0.4047410000000  0.5486150000000 1.0
C      1  0.5054550000000  0.4020650000000  0.5237640000000 1.0
C      1  0.5127610000000  0.4453980000000  0.5814660000000 1.0
C      1  0.5505030000000  0.4481860000000  0.4147960000000 1.0
C      1  0.4112160000000  0.4445690000000  0.5710700000000 1.0
C      1  0.4952010000000  0.4044450000000  0.5531200000000 1.0
C      1  0.4366340000000  0.4833460000000  0.5526750000000 1.0
C      1  0.5564120000000  0.5027430000000  0.4002460000000 1.0
C      1  0.3815340000000  0.5195560000000  0.5179590000000 1.0
C      1  0.5137090000000  0.5198820000000  0.6179010000000 1.0
C      1  0.5300520000000  0.4283090000000  0.4650680000000 1.0
C      1  0.4734560000000  0.4983770000000  0.6040620000000 1.0
C      1  0.4529250000000  0.5085240000000  0.4152170000000 1.0
C      1  0.5559090000000  0.5001960000000  0.5368510000000 1.0
C      1  0.5733100000000  0.5082370000000  0.5137060000000 1.0
C      1  0.4846620000000  0.5111440000000  0.3793060000000 1.0
C      1  0.4595160000000  0.4146870000000  0.5221700000000 1.0
C      1  0.4929110000000  0.5989850000000  0.4362810000000 1.0
C      1  0.5011610000000  0.4464770000000  0.5325890000000 1.0
C      1  0.5060510000000  0.5627150000000  0.4937050000000 1.0
C      1  0.5144820000000  0.4458020000000  0.4488140000000 1.0
C      1  0.4743050000000  0.5839390000000  0.5755740000000 1.0
C      1  0.3860400000000  0.4896910000000  0.5144820000000 1.0
C      1  0.4967030000000  0.4484390000000  0.3992440000000 1.0
C      1  0.4306810000000  0.4171340000000  0.4666970000000 1.0
C      1  0.5418220000000  0.3938640000000  0.5088990000000 1.0
C      1  0.5208640000000  0.4276730000000  0.5216820000000 1.0
C      1  0.4946300000000  0.5419840000000  0.6069770000000 1.0
C      1  0.5610470000000  0.5814100000000  0.4996000000000 1.0
C      1  0.4732220000000  0.5385140000000  0.5315170000000 1.0
C      1  0.3850190000000  0.4972680000000  0.4406950000000 1.0
C      1  0.5268440000000  0.5135340000000  0.5029710000000 1.0
C      1  0.4812560000000  0.4845250000000  0.3842130000000 1.0
C      1  0.4700590000000  0.4896460000000  0.5776050000000 1.0
C      1  0.3907280000000  0.5426920000000  0.4702420000000 1.0
C      1  0.6155820000000  0.4965300000000  0.4764930000000 1.0
C      1  0.5094660000000  0.4699500000000  0.3886560000000 1.0
C      1  0.5695780000000  0.4543180000000  0.5769240000000 1.0
C      1  0.4901990000000  0.3950270000000  0.4809230000000 1.0
C      1  0.4648770000000  0.6019070000000  0.4981530000000 1.0
C      1  0.5867300000000  0.4752550000000  0.4359050000000 1.0
C      1  0.4563260000000  0.5587050000000  0.4213660000000 1.0
C      1  0.5364650000000  0.4909640000000  0.4828070000000 1.0
C      1  0.4571720000000  0.5639120000000  0.5832350000000 1.0
C      1  0.4289190000000  0.5303540000000  0.5183770000000 1.0
C      1  0.4857220000000  0.4909320000000  0.5329790000000 1.0
C      1  0.5512420000000  0.5496580000000  0.4865310000000 1.0
C      1  0.4155690000000  0.5551740000000  0.4548610000000 1.0
C      1  0.5414870000000  0.5241690000000  0.4455270000000 1.0
C      1  0.6007710000000  0.5046440000000  0.5131740000000 1.0
C      1  0.5153240000000  0.3891780000000  0.4995020000000 1.0
C      1  0.5921610000000  0.4710420000000  0.5674320000000 1.0
C      1  0.5154280000000  0.4900710000000  0.4321110000000 1.0
C      1  0.4642480000000  0.4753240000000  0.5164510000000 1.0
C      1  0.5583690000000  0.5675110000000  0.4440110000000 1.0
C      1  0.4777400000000  0.5942970000000  0.5460270000000 1.0
C      1  0.5473300000000  0.5936990000000  0.5438340000000 1.0
C      1  0.4926530000000  0.4742120000000  0.4847770000000 1.0
C      1  0.5482030000000  0.4185780000000  0.4218590000000 1.0
C      1  0.4216160000000  0.4649940000000  0.4283540000000 1.0
C      1  0.5418880000000  0.5989160000000  0.5154620000000 1.0
C      1  0.5264890000000  0.5713340000000  0.4092810000000 1.0
C      1  0.4595460000000  0.5102430000000  0.4672670000000 1.0
C      1  0.4680240000000  0.4387330000000  0.5901680000000 1.0
C      1  0.4247180000000  0.4617540000000  0.5890230000000 1.0
C      1  0.4776650000000  0.4384500000000  0.5190800000000 1.0
C      1  0.5795280000000  0.4313820000000  0.4515700000000 1.0
C      1  0.5205600000000  0.5372890000000  0.5350010000000 1.0
C      1  0.5249800000000  0.5605880000000  0.5490090000000 1.0
C      1  0.4820540000000  0.4272280000000  0.4109610000000 1.0
C      1  0.5032590000000  0.6056130000000  0.5410180000000 1.0
C      1  0.5827480000000  0.4150600000000  0.5327250000000 1.0
C      1  0.5630500000000  0.5107750000000  0.5686510000000 1.0
C      1  0.4952760000000  0.5745020000000  0.5939320000000 1.0
C      1  0.5196230000000  0.4710740000000  0.5694420000000 1.0
C      1  0.5638500000000  0.4758360000000  0.4813390000000 1.0
C      1  0.4022760000000  0.4922390000000  0.5752430000000 1.0
C      1  0.4690270000000  0.6042660000000  0.4456010000000 1.0
C      1  0.4873760000000  0.4848850000000  0.4375300000000 1.0
C      1  0.6037630000000  0.4624820000000  0.5424510000000 1.0
C      1  0.4884410000000  0.4641060000000  0.4564180000000 1.0
C      1  0.4430590000000  0.4583810000000  0.4130000000000 1.0
C      1  0.5771650000000  0.4982030000000  0.4214660000000 1.0
C      1  0.5610200000000  0.5400030000000  0.5756060000000 1.0
C      1  0.4781490000000  0.4969750000000  0.5570860000000 1.0
C      1  0.4201670000000  0.5858620000000  0.4430670000000 1.0
C      1  0.5335870000000  0.5560400000000  0.5772150000000 1.0
C      1  0.6094640000000  0.5288440000000  0.5256430000000 1.0
C      1  0.5233720000000  0.5062710000000  0.4608350000000 1.0
C      1  0.4315770000000  0.4269790000000  0.5582060000000 1.0
C      1  0.5933890000000  0.4452560000000  0.4730010000000 1.0
C      1  0.5515160000000  0.5584270000000  0.4141210000000 1.0
C      1  0.5836190000000  0.4379210000000  0.4994850000000 1.0
C      1  0.5404470000000  0.4239850000000  0.5489230000000 1.0
C      1  0.4835520000000  0.5516520000000  0.4283390000000 1.0
C      1  0.4419150000000  0.4697760000000  0.5332120000000 1.0
C      1  0.5163920000000  0.5845040000000  0.4759270000000 1.0
C      1  0.5676360000000  0.5247800000000  0.4916180000000 1.0
C      1  0.5819540000000  0.5722770000000  0.5193100000000 1.0
C      1  0.4538600000000  0.4171400000000  0.4477850000000 1.0
C      1  0.5312380000000  0.4418300000000  0.4932840000000 1.0
C      1  0.5537260000000  0.4169040000000  0.4518330000000 1.0
C      1  0.5191870000000  0.5148450000000  0.5912510000000 1.0
C      1  0.4452250000000  0.5348750000000  0.5419190000000 1.0
C      1  0.3986740000000  0.5205670000000  0.5684170000000 1.0
C      1  0.5790400000000  0.5935400000000  0.4759920000000 1.0
C      1  0.4917820000000  0.4781470000000  0.6146210000000 1.0
END
