TITL C-884130-5973-189 3.99115384403754 125000 -11542.6256878889 0 0 79 (C1) n - 1
REM
REM in /home/nfs/bkarasulu/CARBON/AIRSS/Generating-Clusters/ReaxFF-fromJPCA2015/Units_Real/with-SteepDescent/Only-C1/SD-CG/Try1-3A/FIRE-CG
REM
REM
REM
REM
REM
REM ./C.cell (11c1c37f851c82e70ff6c80c92926a4b)
REM
REM compiler GCC version 9.2.1 20190827 (Red Hat 9.2.1-1)
REM options -cpp -mtune=generic -march=x86-64 -g -O0 -fpre-include=/usr/include/finclude/math-vector-fortran.h
REM seed 1831478101 836572112 867885599 1302421728 -1328810927 -97307684 2138594158 1456289034 -1783124249 -1095205958 -1405151145 -616531500 -1099472426 -875570695 1455689983 -423190885 -467637675 1727611261 671867230 860074768 -2005899440 738809903 -1979104871 1734773557 -433102138 -418507232 -750476094 -772682094 2107386209 -1274967560 1630335231 -1580380989 -1983406548
REM
CELL 1.54180   50.00000   50.00000   50.00000   90.00000   90.00000   90.00000
LATT -1
SFAC C  
C      1  0.5661380000000  0.5358500000000  0.4916500000000 1.0
C      1  0.5481650000000  0.4745170000000  0.4653780000000 1.0
C      1  0.5341440000000  0.4819700000000  0.4888810000000 1.0
C      1  0.4670540000000  0.4596750000000  0.4918230000000 1.0
C      1  0.4899630000000  0.5103880000000  0.4134070000000 1.0
C      1  0.4809760000000  0.4954960000000  0.5824010000000 1.0
C      1  0.4476490000000  0.5278280000000  0.5355550000000 1.0
C      1  0.5859540000000  0.4774680000000  0.5220280000000 1.0
C      1  0.4757840000000  0.5372460000000  0.5458150000000 1.0
C      1  0.4404050000000  0.4451980000000  0.4973420000000 1.0
C      1  0.5262560000000  0.5371720000000  0.4514420000000 1.0
C      1  0.4850680000000  0.5819280000000  0.4900980000000 1.0
C      1  0.4904500000000  0.4305680000000  0.4520830000000 1.0
C      1  0.4991010000000  0.4897290000000  0.4667460000000 1.0
C      1  0.4325670000000  0.5046960000000  0.4602990000000 1.0
C      1  0.4705690000000  0.5118480000000  0.4875170000000 1.0
C      1  0.5795950000000  0.5050270000000  0.5521690000000 1.0
C      1  0.5025610000000  0.5503580000000  0.4375730000000 1.0
C      1  0.5374690000000  0.5492210000000  0.4989240000000 1.0
C      1  0.4552940000000  0.4679540000000  0.4374910000000 1.0
C      1  0.5091390000000  0.5863370000000  0.4741030000000 1.0
C      1  0.4918650000000  0.5076350000000  0.5068130000000 1.0
C      1  0.4979650000000  0.4712040000000  0.5893160000000 1.0
C      1  0.4946530000000  0.4402770000000  0.4824750000000 1.0
C      1  0.4676470000000  0.5362810000000  0.4698380000000 1.0
C      1  0.5890220000000  0.5166940000000  0.4470070000000 1.0
C      1  0.4750280000000  0.5368800000000  0.4414350000000 1.0
C      1  0.5939660000000  0.5047230000000  0.5245150000000 1.0
C      1  0.4363240000000  0.5036730000000  0.5537590000000 1.0
C      1  0.4190540000000  0.4552230000000  0.5324140000000 1.0
C      1  0.5393820000000  0.4754540000000  0.4358320000000 1.0
C      1  0.5096540000000  0.5900380000000  0.5340260000000 1.0
C      1  0.5161360000000  0.4778830000000  0.5333590000000 1.0
C      1  0.5219640000000  0.4427960000000  0.4971560000000 1.0
C      1  0.5303450000000  0.4907850000000  0.5537040000000 1.0
C      1  0.5708870000000  0.5277060000000  0.4607360000000 1.0
C      1  0.4772500000000  0.4363160000000  0.5630190000000 1.0
C      1  0.5624280000000  0.4647940000000  0.5293150000000 1.0
C      1  0.4565700000000  0.4939390000000  0.5699070000000 1.0
C      1  0.5256770000000  0.5932470000000  0.5123300000000 1.0
C      1  0.5602340000000  0.5249690000000  0.5534630000000 1.0
C      1  0.5085590000000  0.4485640000000  0.4397260000000 1.0
C      1  0.5246980000000  0.5323840000000  0.4796940000000 1.0
C      1  0.4667700000000  0.4425590000000  0.5357290000000 1.0
C      1  0.5333950000000  0.5798090000000  0.4893040000000 1.0
C      1  0.5214800000000  0.4136610000000  0.5376580000000 1.0
C      1  0.4156820000000  0.4854760000000  0.4922960000000 1.0
C      1  0.4451720000000  0.4953030000000  0.4369340000000 1.0
C      1  0.4650940000000  0.5155030000000  0.4244200000000 1.0
C      1  0.5054390000000  0.5783160000000  0.4444960000000 1.0
C      1  0.5103790000000  0.4758460000000  0.4435630000000 1.0
C      1  0.5151550000000  0.5058180000000  0.4135580000000 1.0
C      1  0.4973310000000  0.4121850000000  0.4879990000000 1.0
C      1  0.4995670000000  0.4435940000000  0.5811360000000 1.0
C      1  0.5150860000000  0.5055950000000  0.4873660000000 1.0
C      1  0.4479930000000  0.5527010000000  0.5029380000000 1.0
C      1  0.4913540000000  0.4862290000000  0.5248000000000 1.0
C      1  0.5244640000000  0.5478200000000  0.5256460000000 1.0
C      1  0.5416640000000  0.5020160000000  0.4219610000000 1.0
C      1  0.5337860000000  0.4644830000000  0.5123870000000 1.0
C      1  0.5494330000000  0.5254600000000  0.4383430000000 1.0
C      1  0.4334120000000  0.5309730000000  0.5102660000000 1.0
C      1  0.4219970000000  0.5113240000000  0.4859410000000 1.0
C      1  0.4865390000000  0.5810830000000  0.5193170000000 1.0
C      1  0.5794320000000  0.5209800000000  0.5073500000000 1.0
C      1  0.5362770000000  0.5392880000000  0.5505060000000 1.0
C      1  0.4996320000000  0.5589560000000  0.5330770000000 1.0
C      1  0.5202150000000  0.5167810000000  0.5638390000000 1.0
C      1  0.4146730000000  0.4591300000000  0.5012820000000 1.0
C      1  0.4402350000000  0.4352490000000  0.5244570000000 1.0
C      1  0.4686100000000  0.4461200000000  0.4405810000000 1.0
C      1  0.5187920000000  0.4268700000000  0.5620790000000 1.0
C      1  0.4634890000000  0.5633610000000  0.4821500000000 1.0
C      1  0.5187810000000  0.4157740000000  0.5067090000000 1.0
C      1  0.5587270000000  0.4820650000000  0.5525960000000 1.0
C      1  0.4275010000000  0.4783180000000  0.5456550000000 1.0
C      1  0.4725610000000  0.4851380000000  0.4755640000000 1.0
C      1  0.4748540000000  0.4650030000000  0.5193910000000 1.0
C      1  0.4914160000000  0.5192740000000  0.5661410000000 1.0
END
