TITL C-884139-6216-203 4.36995761933308 125000 -28386.6269625725 0 0 191 (C1) n - 1
REM
REM in /home/nfs/bkarasulu/CARBON/AIRSS/Generating-Clusters/ReaxFF-fromJPCA2015/Units_Real/with-SteepDescent/Only-C1/SD-CG/Try1-3A/FIRE-CG
REM
REM
REM
REM
REM
REM ./C.cell (11c1c37f851c82e70ff6c80c92926a4b)
REM
REM compiler GCC version 9.2.1 20190827 (Red Hat 9.2.1-1)
REM options -cpp -mtune=generic -march=x86-64 -g -O0 -fpre-include=/usr/include/finclude/math-vector-fortran.h
REM seed 1610853814 -1969823142 228557406 -489121812 -1914153640 -1488455377 297442609 -2040221640 -1667536044 -1872277908 -1001267376 1861095689 -1858654987 -1397144828 1062966903 -401641999 -754675527 1820793579 -1767243980 1683371080 43672001 -2138076744 -1108632379 113629652 240976294 -2010622999 912924242 2016522831 -355457033 1624250901 792245476 -1568348490 115240886
REM
CELL 1.54180   50.00000   50.00000   50.00000   90.00000   90.00000   90.00000
LATT -1
SFAC C  
C      1  0.4535230000000  0.4811600000000  0.5868990000000 1.0
C      1  0.5082840000000  0.5619960000000  0.4421050000000 1.0
C      1  0.5238450000000  0.5260550000000  0.4792630000000 1.0
C      1  0.5158220000000  0.5962630000000  0.5552360000000 1.0
C      1  0.5286450000000  0.4689480000000  0.5181320000000 1.0
C      1  0.5085820000000  0.5684470000000  0.6001540000000 1.0
C      1  0.4857440000000  0.4944570000000  0.4631980000000 1.0
C      1  0.5024600000000  0.4807990000000  0.6180130000000 1.0
C      1  0.5318590000000  0.4827690000000  0.4674500000000 1.0
C      1  0.4212810000000  0.4273020000000  0.4661000000000 1.0
C      1  0.5159030000000  0.4347250000000  0.4653840000000 1.0
C      1  0.4492360000000  0.5366930000000  0.4775550000000 1.0
C      1  0.4904220000000  0.4343060000000  0.4809620000000 1.0
C      1  0.4519740000000  0.5091020000000  0.3887590000000 1.0
C      1  0.5887040000000  0.4323860000000  0.5187390000000 1.0
C      1  0.4418980000000  0.5803030000000  0.5633080000000 1.0
C      1  0.4199460000000  0.4762130000000  0.4957720000000 1.0
C      1  0.4329690000000  0.5862880000000  0.4614350000000 1.0
C      1  0.5210190000000  0.4477700000000  0.5360110000000 1.0
C      1  0.4694400000000  0.5053900000000  0.5461540000000 1.0
C      1  0.4370210000000  0.5521320000000  0.5657580000000 1.0
C      1  0.5066490000000  0.4358860000000  0.5912090000000 1.0
C      1  0.4790510000000  0.4355970000000  0.5824760000000 1.0
C      1  0.5287230000000  0.3974860000000  0.5253480000000 1.0
C      1  0.4865150000000  0.5266470000000  0.6137250000000 1.0
C      1  0.5237570000000  0.4162810000000  0.5775480000000 1.0
C      1  0.5635600000000  0.4445010000000  0.5256580000000 1.0
C      1  0.5301890000000  0.5948740000000  0.5039790000000 1.0
C      1  0.4960770000000  0.5205030000000  0.5088810000000 1.0
C      1  0.5323230000000  0.4893630000000  0.4383600000000 1.0
C      1  0.6098910000000  0.5632620000000  0.4535500000000 1.0
C      1  0.4686510000000  0.4517990000000  0.4802120000000 1.0
C      1  0.4843760000000  0.5635670000000  0.4078130000000 1.0
C      1  0.4812290000000  0.5148740000000  0.3858970000000 1.0
C      1  0.4481700000000  0.5447360000000  0.4195860000000 1.0
C      1  0.5613540000000  0.5614490000000  0.4512940000000 1.0
C      1  0.4699370000000  0.5935450000000  0.5289240000000 1.0
C      1  0.4801950000000  0.5687380000000  0.5916460000000 1.0
C      1  0.5088750000000  0.6114900000000  0.4640800000000 1.0
C      1  0.4732860000000  0.5847770000000  0.4779860000000 1.0
C      1  0.4074500000000  0.4299610000000  0.4905990000000 1.0
C      1  0.5649270000000  0.5333530000000  0.4461100000000 1.0
C      1  0.5610850000000  0.5178720000000  0.5080820000000 1.0
C      1  0.5487170000000  0.5115780000000  0.4822610000000 1.0
C      1  0.4596490000000  0.5864150000000  0.4497380000000 1.0
C      1  0.4507790000000  0.4248250000000  0.5497530000000 1.0
C      1  0.5678170000000  0.4130790000000  0.4488110000000 1.0
C      1  0.5875460000000  0.5332730000000  0.5478190000000 1.0
C      1  0.5491410000000  0.4608510000000  0.4764720000000 1.0
C      1  0.5600830000000  0.5731920000000  0.5375980000000 1.0
C      1  0.4934800000000  0.5648300000000  0.4855100000000 1.0
C      1  0.3917540000000  0.5256310000000  0.5657150000000 1.0
C      1  0.4822100000000  0.4679450000000  0.5210890000000 1.0
C      1  0.4544110000000  0.4509710000000  0.5872630000000 1.0
C      1  0.5008250000000  0.4036630000000  0.5304320000000 1.0
C      1  0.4352250000000  0.5472590000000  0.5152960000000 1.0
C      1  0.5020250000000  0.5197570000000  0.4617650000000 1.0
C      1  0.4532040000000  0.4211420000000  0.4422830000000 1.0
C      1  0.3967440000000  0.5174590000000  0.4996360000000 1.0
C      1  0.4821340000000  0.4842300000000  0.4361570000000 1.0
C      1  0.5863010000000  0.5717270000000  0.4497610000000 1.0
C      1  0.5167810000000  0.4569360000000  0.6097970000000 1.0
C      1  0.4789240000000  0.4262660000000  0.5541770000000 1.0
C      1  0.4244440000000  0.4926780000000  0.5867350000000 1.0
C      1  0.4586000000000  0.4804690000000  0.5567940000000 1.0
C      1  0.4437590000000  0.4287600000000  0.5240620000000 1.0
C      1  0.4164110000000  0.4227950000000  0.5186120000000 1.0
C      1  0.5164560000000  0.5692280000000  0.4683720000000 1.0
C      1  0.5740450000000  0.4147740000000  0.4993220000000 1.0
C      1  0.5000720000000  0.3906840000000  0.4783690000000 1.0
C      1  0.5684600000000  0.5116170000000  0.4625840000000 1.0
C      1  0.4820220000000  0.4994980000000  0.5218130000000 1.0
C      1  0.5448720000000  0.4349050000000  0.5438640000000 1.0
C      1  0.5381860000000  0.4887200000000  0.5355000000000 1.0
C      1  0.5275180000000  0.4087150000000  0.4532700000000 1.0
C      1  0.5337830000000  0.5864430000000  0.5318900000000 1.0
C      1  0.5869500000000  0.5044400000000  0.5515060000000 1.0
C      1  0.5107400000000  0.4846610000000  0.3969040000000 1.0
C      1  0.4846160000000  0.5249100000000  0.5625810000000 1.0
C      1  0.3959810000000  0.5011740000000  0.5510130000000 1.0
C      1  0.4863830000000  0.4390310000000  0.4130380000000 1.0
C      1  0.4688660000000  0.5890350000000  0.5738950000000 1.0
C      1  0.4731910000000  0.4628910000000  0.4016240000000 1.0
C      1  0.5076750000000  0.4865210000000  0.4242370000000 1.0
C      1  0.3912890000000  0.5419290000000  0.5428790000000 1.0
C      1  0.4054050000000  0.4795640000000  0.5683460000000 1.0
C      1  0.5850480000000  0.4514750000000  0.4418170000000 1.0
C      1  0.5198100000000  0.5329360000000  0.5251760000000 1.0
C      1  0.5392590000000  0.4842260000000  0.5622630000000 1.0
C      1  0.3884530000000  0.5443100000000  0.4934870000000 1.0
C      1  0.6082230000000  0.5349970000000  0.4504450000000 1.0
C      1  0.3986060000000  0.4562580000000  0.5030540000000 1.0
C      1  0.5517090000000  0.4238120000000  0.5711570000000 1.0
C      1  0.4212470000000  0.5720800000000  0.5201770000000 1.0
C      1  0.4950800000000  0.5053430000000  0.5801700000000 1.0
C      1  0.4800000000000  0.6023440000000  0.5001110000000 1.0
C      1  0.5254390000000  0.5461220000000  0.5001250000000 1.0
C      1  0.6014440000000  0.4596880000000  0.5206320000000 1.0
C      1  0.5296530000000  0.3939210000000  0.4794020000000 1.0
C      1  0.6032880000000  0.4688190000000  0.4564220000000 1.0
C      1  0.5653490000000  0.4925880000000  0.5758180000000 1.0
C      1  0.5258590000000  0.5398640000000  0.3987740000000 1.0
C      1  0.4506670000000  0.4645570000000  0.5328440000000 1.0
C      1  0.5362190000000  0.5297600000000  0.5942900000000 1.0
C      1  0.5528410000000  0.5693550000000  0.4291480000000 1.0
C      1  0.5178950000000  0.4001110000000  0.5535770000000 1.0
C      1  0.4858790000000  0.4856000000000  0.3860840000000 1.0
C      1  0.5154030000000  0.4406900000000  0.4164740000000 1.0
C      1  0.4170120000000  0.5207810000000  0.5839310000000 1.0
C      1  0.5360390000000  0.4905710000000  0.3882670000000 1.0
C      1  0.5413990000000  0.5143490000000  0.5279610000000 1.0
C      1  0.5559190000000  0.4549730000000  0.4499910000000 1.0
C      1  0.4571470000000  0.4063320000000  0.5054750000000 1.0
C      1  0.5467190000000  0.4025190000000  0.5019590000000 1.0
C      1  0.5349900000000  0.5656160000000  0.4101140000000 1.0
C      1  0.5279550000000  0.4478090000000  0.4423600000000 1.0
C      1  0.4135210000000  0.4809210000000  0.4421450000000 1.0
C      1  0.5516770000000  0.4689980000000  0.4004710000000 1.0
C      1  0.5054090000000  0.4797420000000  0.4791890000000 1.0
C      1  0.5477760000000  0.5029730000000  0.5977990000000 1.0
C      1  0.4487170000000  0.4701540000000  0.4789080000000 1.0
C      1  0.5686590000000  0.5119400000000  0.4130080000000 1.0
C      1  0.4213530000000  0.5220070000000  0.5139440000000 1.0
C      1  0.4016510000000  0.5472700000000  0.4673750000000 1.0
C      1  0.4287720000000  0.4339130000000  0.4404610000000 1.0
C      1  0.5858310000000  0.5293780000000  0.4295640000000 1.0
C      1  0.5086860000000  0.5816740000000  0.4184150000000 1.0
C      1  0.4634610000000  0.5469570000000  0.5178480000000 1.0
C      1  0.4324410000000  0.4835460000000  0.5215060000000 1.0
C      1  0.6034680000000  0.4790690000000  0.5433620000000 1.0
C      1  0.4448850000000  0.3845900000000  0.4995150000000 1.0
C      1  0.4291230000000  0.5569960000000  0.4723100000000 1.0
C      1  0.5965320000000  0.5442090000000  0.5216060000000 1.0
C      1  0.5234640000000  0.5874010000000  0.5823280000000 1.0
C      1  0.5405530000000  0.5451050000000  0.5690250000000 1.0
C      1  0.4360880000000  0.5253950000000  0.5626530000000 1.0
C      1  0.4587650000000  0.4965720000000  0.4748350000000 1.0
C      1  0.5533220000000  0.5564700000000  0.4958510000000 1.0
C      1  0.4659840000000  0.5293640000000  0.4360760000000 1.0
C      1  0.5969650000000  0.4597110000000  0.5616100000000 1.0
C      1  0.4663640000000  0.5469060000000  0.6095940000000 1.0
C      1  0.4790170000000  0.4177870000000  0.4341910000000 1.0
C      1  0.5048300000000  0.4714830000000  0.5039730000000 1.0
C      1  0.6068660000000  0.5241120000000  0.5032080000000 1.0
C      1  0.4348330000000  0.4399460000000  0.5681940000000 1.0
C      1  0.4779180000000  0.5641760000000  0.5355530000000 1.0
C      1  0.4389970000000  0.5886080000000  0.5356760000000 1.0
C      1  0.4613890000000  0.5707400000000  0.4234420000000 1.0
C      1  0.4924030000000  0.5519710000000  0.5568560000000 1.0
C      1  0.4863740000000  0.6008530000000  0.5540430000000 1.0
C      1  0.4292550000000  0.4645710000000  0.4293240000000 1.0
C      1  0.5840150000000  0.4181430000000  0.4719960000000 1.0
C      1  0.5943660000000  0.4933060000000  0.4717870000000 1.0
C      1  0.4339460000000  0.5023140000000  0.4116770000000 1.0
C      1  0.4809670000000  0.4969070000000  0.6050240000000 1.0
C      1  0.4568070000000  0.4779910000000  0.4217250000000 1.0
C      1  0.5547910000000  0.4198150000000  0.4244780000000 1.0
C      1  0.4238910000000  0.5268720000000  0.4246840000000 1.0
C      1  0.5092170000000  0.6026830000000  0.4398950000000 1.0
C      1  0.4990080000000  0.3993620000000  0.4500510000000 1.0
C      1  0.3986750000000  0.4932620000000  0.4845680000000 1.0
C      1  0.4044930000000  0.5268080000000  0.4464250000000 1.0
C      1  0.4880210000000  0.4088640000000  0.4990340000000 1.0
C      1  0.5750760000000  0.5632980000000  0.5148210000000 1.0
C      1  0.4013830000000  0.4446990000000  0.5303060000000 1.0
C      1  0.4112220000000  0.4531460000000  0.5569750000000 1.0
C      1  0.5661650000000  0.5520780000000  0.5569950000000 1.0
C      1  0.6022060000000  0.4399890000000  0.4626910000000 1.0
C      1  0.3936810000000  0.5580810000000  0.5197000000000 1.0
C      1  0.5425150000000  0.4413580000000  0.4054200000000 1.0
C      1  0.5195930000000  0.5518580000000  0.5500760000000 1.0
C      1  0.5577960000000  0.4859180000000  0.4237980000000 1.0
C      1  0.5072620000000  0.6105480000000  0.4932960000000 1.0
C      1  0.5598330000000  0.4640070000000  0.5030590000000 1.0
C      1  0.4779950000000  0.5399830000000  0.4941710000000 1.0
C      1  0.5817280000000  0.4663560000000  0.5846070000000 1.0
C      1  0.5419500000000  0.5793230000000  0.4806070000000 1.0
C      1  0.4937830000000  0.4475370000000  0.5396980000000 1.0
C      1  0.4231680000000  0.5061170000000  0.5367360000000 1.0
C      1  0.6107780000000  0.5181320000000  0.4751660000000 1.0
C      1  0.5445770000000  0.5173670000000  0.3964090000000 1.0
C      1  0.5312390000000  0.4830160000000  0.6123940000000 1.0
C      1  0.4494510000000  0.5169380000000  0.4567990000000 1.0
C      1  0.5129260000000  0.5404400000000  0.6079550000000 1.0
C      1  0.5873840000000  0.4786760000000  0.5023550000000 1.0
C      1  0.4930060000000  0.5371500000000  0.4431490000000 1.0
C      1  0.5148000000000  0.4970370000000  0.5665710000000 1.0
C      1  0.3975900000000  0.4990580000000  0.4556700000000 1.0
C      1  0.5695120000000  0.4414560000000  0.5835630000000 1.0
C      1  0.5867710000000  0.5051360000000  0.5161780000000 1.0
C      1  0.4961880000000  0.5391200000000  0.3962310000000 1.0
END
