TITL C-883731-9874-333 -2.19480753097115 125000 -10872.2982538897 0 0 73 (C1) n - 1
REM
REM in /home/nfs/bkarasulu/CARBON/AIRSS/Generating-Clusters/ReaxFF-fromJPCA2015/Units_Real/with-SteepDescent/Only-C1/SD-CG/Try1-3A/FIRE-CG
REM
REM
REM
REM
REM
REM ./C.cell (11c1c37f851c82e70ff6c80c92926a4b)
REM
REM compiler GCC version 9.2.1 20190827 (Red Hat 9.2.1-1)
REM options -cpp -mtune=generic -march=x86-64 -g -O0 -fpre-include=/usr/include/finclude/math-vector-fortran.h
REM seed 598771261 -1511357629 -1953319982 -2039775377 874571021 614500998 1013116249 1922715071 -1666620330 223742104 585174573 -845432829 -92074141 -605331871 -1091390948 -908622806 -659982178 -1345312483 -1435984534 -54742978 -757673291 -831658928 2053999927 -672028942 -752097895 1683619346 1242978484 1304891031 -722542531 -2099456038 -108446941 -1426062222 -715712371
REM
CELL 1.54180   50.00000   50.00000   50.00000   90.00000   90.00000   90.00000
LATT -1
SFAC C  
C      1  0.4286790000000  0.4472000000000  0.4827140000000 1.0
C      1  0.5531940000000  0.5548040000000  0.5239800000000 1.0
C      1  0.4847050000000  0.4405620000000  0.5503350000000 1.0
C      1  0.5348480000000  0.5651760000000  0.4795140000000 1.0
C      1  0.4511650000000  0.4785830000000  0.5143760000000 1.0
C      1  0.5536990000000  0.4778570000000  0.4449350000000 1.0
C      1  0.4911740000000  0.5699380000000  0.4682260000000 1.0
C      1  0.5119340000000  0.5195420000000  0.5809160000000 1.0
C      1  0.5151030000000  0.5835450000000  0.4612150000000 1.0
C      1  0.5658120000000  0.4855010000000  0.5419570000000 1.0
C      1  0.5441350000000  0.5059510000000  0.4359880000000 1.0
C      1  0.5148080000000  0.5052440000000  0.4342500000000 1.0
C      1  0.5593220000000  0.5521180000000  0.4631440000000 1.0
C      1  0.5549190000000  0.4595030000000  0.5390460000000 1.0
C      1  0.4864220000000  0.5374430000000  0.5303610000000 1.0
C      1  0.5206050000000  0.5375390000000  0.4857530000000 1.0
C      1  0.4926220000000  0.5230270000000  0.4398670000000 1.0
C      1  0.5160540000000  0.5021350000000  0.5118710000000 1.0
C      1  0.5179280000000  0.4987390000000  0.5611440000000 1.0
C      1  0.5169290000000  0.4351630000000  0.4394000000000 1.0
C      1  0.4530550000000  0.5152170000000  0.4650840000000 1.0
C      1  0.4622390000000  0.4831980000000  0.4288760000000 1.0
C      1  0.5337430000000  0.5718430000000  0.5093590000000 1.0
C      1  0.4584220000000  0.5669200000000  0.5372510000000 1.0
C      1  0.4620460000000  0.4372430000000  0.5330840000000 1.0
C      1  0.5821320000000  0.4862390000000  0.4906530000000 1.0
C      1  0.5027730000000  0.4736970000000  0.4746470000000 1.0
C      1  0.5127940000000  0.5304630000000  0.5188200000000 1.0
C      1  0.4750650000000  0.5221160000000  0.4838020000000 1.0
C      1  0.4890510000000  0.4904820000000  0.5442340000000 1.0
C      1  0.4662580000000  0.5105180000000  0.4393980000000 1.0
C      1  0.4640910000000  0.4410730000000  0.4528980000000 1.0
C      1  0.4830210000000  0.5114040000000  0.5817250000000 1.0
C      1  0.4711480000000  0.4302400000000  0.5057100000000 1.0
C      1  0.4323230000000  0.5227010000000  0.5257920000000 1.0
C      1  0.4438280000000  0.5496410000000  0.5205420000000 1.0
C      1  0.5429250000000  0.4976160000000  0.5020840000000 1.0
C      1  0.4704040000000  0.5439640000000  0.5055430000000 1.0
C      1  0.4474040000000  0.4638220000000  0.4447560000000 1.0
C      1  0.5340010000000  0.4459630000000  0.5365240000000 1.0
C      1  0.4955730000000  0.5375740000000  0.4661710000000 1.0
C      1  0.5053260000000  0.4799890000000  0.4463460000000 1.0
C      1  0.4326200000000  0.5007470000000  0.5063880000000 1.0
C      1  0.5054840000000  0.5768450000000  0.5163320000000 1.0
C      1  0.4347540000000  0.4809090000000  0.5540420000000 1.0
C      1  0.4799010000000  0.4836200000000  0.5176020000000 1.0
C      1  0.4996250000000  0.4330510000000  0.5055440000000 1.0
C      1  0.5548530000000  0.5314100000000  0.4441480000000 1.0
C      1  0.5694350000000  0.5334010000000  0.4833420000000 1.0
C      1  0.4831380000000  0.4672980000000  0.5638880000000 1.0
C      1  0.5705950000000  0.5343940000000  0.5122720000000 1.0
C      1  0.5125460000000  0.4486170000000  0.4837890000000 1.0
C      1  0.4850660000000  0.5707190000000  0.4968280000000 1.0
C      1  0.5294040000000  0.4366650000000  0.4639230000000 1.0
C      1  0.4732380000000  0.5152700000000  0.5524740000000 1.0
C      1  0.4869320000000  0.5668600000000  0.5386610000000 1.0
C      1  0.5085310000000  0.4342120000000  0.5337640000000 1.0
C      1  0.5428780000000  0.5182340000000  0.4814220000000 1.0
C      1  0.5323100000000  0.5422310000000  0.5405650000000 1.0
C      1  0.4799760000000  0.4833020000000  0.5860780000000 1.0
C      1  0.4431440000000  0.5093540000000  0.5494420000000 1.0
C      1  0.4553260000000  0.4336340000000  0.4804430000000 1.0
C      1  0.4869870000000  0.4678990000000  0.4264300000000 1.0
C      1  0.4933410000000  0.4945400000000  0.4950880000000 1.0
C      1  0.4285790000000  0.4720710000000  0.4658420000000 1.0
C      1  0.5434820000000  0.4942430000000  0.5557600000000 1.0
C      1  0.4317410000000  0.4996080000000  0.4770390000000 1.0
C      1  0.5688270000000  0.4808670000000  0.4672910000000 1.0
C      1  0.4881210000000  0.4405550000000  0.4361990000000 1.0
C      1  0.5256480000000  0.5436870000000  0.5696720000000 1.0
C      1  0.5693730000000  0.5037610000000  0.5161040000000 1.0
C      1  0.5408760000000  0.4513080000000  0.4429780000000 1.0
C      1  0.4415880000000  0.4591970000000  0.5343550000000 1.0
END
