TITL C-884135-4325-421 -0.791373015913528 125000 -25205.1797111914 0 0 171 (C1) n - 1
REM
REM in /home/nfs/bkarasulu/CARBON/AIRSS/Generating-Clusters/ReaxFF-fromJPCA2015/Units_Real/with-SteepDescent/Only-C1/SD-CG/Try1-3A/FIRE-CG
REM
REM
REM
REM
REM
REM ./C.cell (11c1c37f851c82e70ff6c80c92926a4b)
REM
REM compiler GCC version 9.2.1 20190827 (Red Hat 9.2.1-1)
REM options -cpp -mtune=generic -march=x86-64 -g -O0 -fpre-include=/usr/include/finclude/math-vector-fortran.h
REM seed -266521799 -94694975 -1926818972 -1493790795 12146872 793732252 -995205101 755159498 2110670921 991370558 -489987406 1042544410 1126127595 -179182151 -739873607 537308875 -925908379 -2023736587 547611545 863358757 307925538 -302193784 -736005905 1727678956 -431429134 -1060182674 1033453773 1489103279 -2006195462 -636229468 -2099189293 1196785017 -1385432765
REM
CELL 1.54180   50.00000   50.00000   50.00000   90.00000   90.00000   90.00000
LATT -1
SFAC C  
C      1  0.4852090000000  0.5980680000000  0.5030940000000 1.0
C      1  0.5044830000000  0.5603070000000  0.4588590000000 1.0
C      1  0.4689060000000  0.4592510000000  0.5474170000000 1.0
C      1  0.5718950000000  0.5145510000000  0.4958840000000 1.0
C      1  0.5247190000000  0.4905270000000  0.4710730000000 1.0
C      1  0.4107300000000  0.4536030000000  0.5294960000000 1.0
C      1  0.4391700000000  0.4952290000000  0.5324400000000 1.0
C      1  0.5214620000000  0.4962260000000  0.6109200000000 1.0
C      1  0.4282350000000  0.4763710000000  0.5733700000000 1.0
C      1  0.4564470000000  0.4054160000000  0.5011450000000 1.0
C      1  0.4575240000000  0.4071430000000  0.5279330000000 1.0
C      1  0.4335250000000  0.5178340000000  0.4236730000000 1.0
C      1  0.4751050000000  0.4848800000000  0.4290120000000 1.0
C      1  0.4661220000000  0.4705610000000  0.5010450000000 1.0
C      1  0.3945900000000  0.4854520000000  0.4782720000000 1.0
C      1  0.5229250000000  0.5888880000000  0.5405960000000 1.0
C      1  0.4983470000000  0.4501070000000  0.5461670000000 1.0
C      1  0.4638790000000  0.5306370000000  0.5761050000000 1.0
C      1  0.5354320000000  0.5256920000000  0.4496590000000 1.0
C      1  0.5285580000000  0.4114350000000  0.4598700000000 1.0
C      1  0.4902660000000  0.5066970000000  0.6094960000000 1.0
C      1  0.5464150000000  0.4293780000000  0.4437840000000 1.0
C      1  0.5390090000000  0.4522790000000  0.4303060000000 1.0
C      1  0.4777580000000  0.5328340000000  0.6024830000000 1.0
C      1  0.4221990000000  0.5625910000000  0.5342140000000 1.0
C      1  0.5432390000000  0.5359460000000  0.4767530000000 1.0
C      1  0.5347690000000  0.4848720000000  0.4960040000000 1.0
C      1  0.5616370000000  0.4261030000000  0.5240680000000 1.0
C      1  0.4504340000000  0.4694530000000  0.5263740000000 1.0
C      1  0.4028630000000  0.5417400000000  0.5209990000000 1.0
C      1  0.5217770000000  0.4958460000000  0.5539880000000 1.0
C      1  0.3896940000000  0.5166160000000  0.5229590000000 1.0
C      1  0.5050630000000  0.4264330000000  0.5321460000000 1.0
C      1  0.6167970000000  0.5485520000000  0.5364400000000 1.0
C      1  0.4530420000000  0.5708180000000  0.4463460000000 1.0
C      1  0.4968480000000  0.4973040000000  0.5385430000000 1.0
C      1  0.5738800000000  0.5081510000000  0.5644900000000 1.0
C      1  0.5540440000000  0.5449230000000  0.5814570000000 1.0
C      1  0.5347790000000  0.4837510000000  0.3993600000000 1.0
C      1  0.4693020000000  0.5922260000000  0.5298530000000 1.0
C      1  0.5143420000000  0.4452300000000  0.6028020000000 1.0
C      1  0.4596620000000  0.4466270000000  0.5927410000000 1.0
C      1  0.4572650000000  0.5620920000000  0.4190330000000 1.0
C      1  0.4451180000000  0.5370710000000  0.5016560000000 1.0
C      1  0.5558960000000  0.5945950000000  0.4992510000000 1.0
C      1  0.4527030000000  0.5127950000000  0.5138480000000 1.0
C      1  0.4924440000000  0.5567610000000  0.5937040000000 1.0
C      1  0.4998130000000  0.3952960000000  0.4636730000000 1.0
C      1  0.5507560000000  0.5982290000000  0.4707330000000 1.0
C      1  0.5192990000000  0.4630290000000  0.5086230000000 1.0
C      1  0.4984580000000  0.4494390000000  0.4061060000000 1.0
C      1  0.5425480000000  0.5110580000000  0.6021020000000 1.0
C      1  0.4929160000000  0.4527500000000  0.5046700000000 1.0
C      1  0.5599010000000  0.4343140000000  0.5506460000000 1.0
C      1  0.5115530000000  0.5128180000000  0.5731510000000 1.0
C      1  0.5863630000000  0.4647410000000  0.5440010000000 1.0
C      1  0.5968260000000  0.4822750000000  0.4700690000000 1.0
C      1  0.4195920000000  0.4989150000000  0.4393670000000 1.0
C      1  0.4789300000000  0.5037330000000  0.4491970000000 1.0
C      1  0.4732040000000  0.4343880000000  0.4541580000000 1.0
C      1  0.3949940000000  0.4751540000000  0.5236480000000 1.0
C      1  0.4156050000000  0.4423200000000  0.5009610000000 1.0
C      1  0.5785520000000  0.4868860000000  0.4268930000000 1.0
C      1  0.5320720000000  0.4693290000000  0.6054410000000 1.0
C      1  0.5071430000000  0.4608890000000  0.4523660000000 1.0
C      1  0.4485650000000  0.5360360000000  0.4082800000000 1.0
C      1  0.5334200000000  0.5272590000000  0.5025180000000 1.0
C      1  0.4432040000000  0.5798940000000  0.5212300000000 1.0
C      1  0.5678410000000  0.5595280000000  0.5343080000000 1.0
C      1  0.4189270000000  0.4440100000000  0.4511930000000 1.0
C      1  0.5966960000000  0.4543280000000  0.5189030000000 1.0
C      1  0.4604240000000  0.4153110000000  0.4366240000000 1.0
C      1  0.4739590000000  0.5280380000000  0.3923550000000 1.0
C      1  0.3913320000000  0.5322590000000  0.4550780000000 1.0
C      1  0.4478640000000  0.4728340000000  0.5968090000000 1.0
C      1  0.4673640000000  0.4927110000000  0.6048840000000 1.0
C      1  0.4980250000000  0.5908250000000  0.4246200000000 1.0
C      1  0.4842720000000  0.5702100000000  0.4104430000000 1.0
C      1  0.5312450000000  0.5621290000000  0.4702460000000 1.0
C      1  0.4845450000000  0.5011420000000  0.3853110000000 1.0
C      1  0.5603780000000  0.4659490000000  0.5914160000000 1.0
C      1  0.4988440000000  0.5056930000000  0.4705980000000 1.0
C      1  0.4492460000000  0.4368080000000  0.5662690000000 1.0
C      1  0.4570360000000  0.5186670000000  0.4575970000000 1.0
C      1  0.4965490000000  0.4289070000000  0.4896380000000 1.0
C      1  0.5994240000000  0.5131060000000  0.5019360000000 1.0
C      1  0.5132020000000  0.4046290000000  0.5667060000000 1.0
C      1  0.4259520000000  0.4534300000000  0.5557790000000 1.0
C      1  0.4355900000000  0.4333620000000  0.4303630000000 1.0
C      1  0.5553050000000  0.4982460000000  0.4127620000000 1.0
C      1  0.5727030000000  0.5706120000000  0.5041420000000 1.0
C      1  0.4789740000000  0.4855300000000  0.5574260000000 1.0
C      1  0.4454910000000  0.4496960000000  0.4076930000000 1.0
C      1  0.5794450000000  0.5590130000000  0.4784880000000 1.0
C      1  0.4633130000000  0.5373280000000  0.4797270000000 1.0
C      1  0.4961540000000  0.4773980000000  0.5789000000000 1.0
C      1  0.4238340000000  0.5532100000000  0.5617960000000 1.0
C      1  0.5271030000000  0.4558770000000  0.4053010000000 1.0
C      1  0.5452950000000  0.5298570000000  0.4209960000000 1.0
C      1  0.4586140000000  0.4088870000000  0.5550010000000 1.0
C      1  0.5362040000000  0.5500060000000  0.5648740000000 1.0
C      1  0.5576430000000  0.5697980000000  0.4575330000000 1.0
C      1  0.5179150000000  0.4660320000000  0.5609810000000 1.0
C      1  0.4582780000000  0.4763180000000  0.4059260000000 1.0
C      1  0.5583580000000  0.4690550000000  0.4974640000000 1.0
C      1  0.4539340000000  0.4446860000000  0.4727570000000 1.0
C      1  0.5032560000000  0.4354680000000  0.4617110000000 1.0
C      1  0.5244070000000  0.4244710000000  0.5852650000000 1.0
C      1  0.4786120000000  0.5774670000000  0.4588830000000 1.0
C      1  0.5139520000000  0.5383490000000  0.5827090000000 1.0
C      1  0.5699850000000  0.4402630000000  0.4569210000000 1.0
C      1  0.4815790000000  0.5716220000000  0.5700860000000 1.0
C      1  0.4164610000000  0.5335100000000  0.4961310000000 1.0
C      1  0.4784210000000  0.5459520000000  0.5550050000000 1.0
C      1  0.6060080000000  0.5117140000000  0.4735240000000 1.0
C      1  0.5960530000000  0.5645070000000  0.5373710000000 1.0
C      1  0.4844370000000  0.4027570000000  0.4874190000000 1.0
C      1  0.4923300000000  0.4637130000000  0.4306620000000 1.0
C      1  0.5102750000000  0.6087060000000  0.4422710000000 1.0
C      1  0.5876930000000  0.4706420000000  0.4957360000000 1.0
C      1  0.5712790000000  0.4245210000000  0.4814160000000 1.0
C      1  0.4068540000000  0.5563920000000  0.4617780000000 1.0
C      1  0.5537000000000  0.5123430000000  0.5176820000000 1.0
C      1  0.4082410000000  0.4542190000000  0.4755990000000 1.0
C      1  0.5440810000000  0.4486600000000  0.5100400000000 1.0
C      1  0.4348470000000  0.5270940000000  0.5723090000000 1.0
C      1  0.5133110000000  0.6114430000000  0.4962420000000 1.0
C      1  0.4410150000000  0.4941690000000  0.4599990000000 1.0
C      1  0.3801290000000  0.4933590000000  0.5094080000000 1.0
C      1  0.5738360000000  0.5246200000000  0.5397680000000 1.0
C      1  0.4847280000000  0.4000310000000  0.5671760000000 1.0
C      1  0.4123970000000  0.5060530000000  0.4877460000000 1.0
C      1  0.4970290000000  0.5021570000000  0.5103800000000 1.0
C      1  0.5342540000000  0.4003520000000  0.5092330000000 1.0
C      1  0.5459630000000  0.4078130000000  0.4840430000000 1.0
C      1  0.5457570000000  0.5719820000000  0.5518710000000 1.0
C      1  0.5055950000000  0.5286060000000  0.5113940000000 1.0
C      1  0.4493740000000  0.4724900000000  0.4757040000000 1.0
C      1  0.5192080000000  0.4031370000000  0.5331150000000 1.0
C      1  0.5207650000000  0.5311150000000  0.4007560000000 1.0
C      1  0.5325530000000  0.4735040000000  0.4484060000000 1.0
C      1  0.5124730000000  0.5642610000000  0.5270960000000 1.0
C      1  0.4958930000000  0.5687400000000  0.5046230000000 1.0
C      1  0.4964570000000  0.5461880000000  0.3980240000000 1.0
C      1  0.5857860000000  0.4297060000000  0.5061970000000 1.0
C      1  0.4870420000000  0.4553100000000  0.5981440000000 1.0
C      1  0.5072480000000  0.5318100000000  0.4536060000000 1.0
C      1  0.5447300000000  0.4438120000000  0.5724410000000 1.0
C      1  0.5646350000000  0.5216950000000  0.5884080000000 1.0
C      1  0.5045530000000  0.5410340000000  0.5422630000000 1.0
C      1  0.5248550000000  0.6112870000000  0.4695450000000 1.0
C      1  0.4718850000000  0.4528550000000  0.3944920000000 1.0
C      1  0.5325950000000  0.6035600000000  0.5151450000000 1.0
C      1  0.5759360000000  0.4794900000000  0.5658490000000 1.0
C      1  0.4898010000000  0.5897980000000  0.5493830000000 1.0
C      1  0.4655830000000  0.5934370000000  0.4801960000000 1.0
C      1  0.4768190000000  0.3948070000000  0.4473540000000 1.0
C      1  0.5892360000000  0.5125280000000  0.4313260000000 1.0
C      1  0.5954230000000  0.5384710000000  0.4650000000000 1.0
C      1  0.5885380000000  0.5403970000000  0.4356920000000 1.0
C      1  0.4871290000000  0.5452110000000  0.4940650000000 1.0
C      1  0.4407700000000  0.5839990000000  0.4922580000000 1.0
C      1  0.5619840000000  0.5523140000000  0.4320570000000 1.0
C      1  0.4724060000000  0.4982110000000  0.4981360000000 1.0
C      1  0.4308390000000  0.5721830000000  0.4668290000000 1.0
C      1  0.4281250000000  0.5014330000000  0.5591340000000 1.0
C      1  0.5826680000000  0.4668320000000  0.4506390000000 1.0
C      1  0.5151000000000  0.5049450000000  0.3916750000000 1.0
C      1  0.4380250000000  0.4269390000000  0.4904420000000 1.0
C      1  0.3927140000000  0.5029050000000  0.4520750000000 1.0
C      1  0.6028630000000  0.5245970000000  0.5303390000000 1.0
END
