TITL C-883726-8501-279 -17.685596109181 125000 -13208.1722523809 0 0 88 (C1) n - 1
REM
REM in /home/nfs/bkarasulu/CARBON/AIRSS/Generating-Clusters/ReaxFF-fromJPCA2015/Units_Real/with-SteepDescent/Only-C1/SD-CG/Try1-3A/FIRE-CG
REM
REM
REM
REM
REM
REM ./C.cell (11c1c37f851c82e70ff6c80c92926a4b)
REM
REM compiler GCC version 9.2.1 20190827 (Red Hat 9.2.1-1)
REM options -cpp -mtune=generic -march=x86-64 -g -O0 -fpre-include=/usr/include/finclude/math-vector-fortran.h
REM seed -1475895422 2037497856 891305538 1875745444 1081195669 -1999339157 -299120131 1495793785 1274361740 -1486990048 -21839758 635993107 1288297173 -1450721031 518248498 679633883 102841761 287253642 -1699271100 -1031454427 2007377212 -24631471 -660505075 649313643 127429683 1151262565 -607887843 1221148641 -197358494 1415501668 -973427826 68935722 -1433578737
REM
CELL 1.54180   50.00000   50.00000   50.00000   90.00000   90.00000   90.00000
LATT -1
SFAC C  
C      1  0.5213770000000  0.5393650000000  0.5252450000000 1.0
C      1  0.4309840000000  0.5022370000000  0.4465280000000 1.0
C      1  0.5881520000000  0.4915380000000  0.4875020000000 1.0
C      1  0.5696550000000  0.5056700000000  0.5503730000000 1.0
C      1  0.5311810000000  0.4331180000000  0.5427410000000 1.0
C      1  0.4217790000000  0.5144670000000  0.4713540000000 1.0
C      1  0.4553020000000  0.5099560000000  0.5618640000000 1.0
C      1  0.5183480000000  0.5502650000000  0.4468090000000 1.0
C      1  0.4819840000000  0.4668110000000  0.5127570000000 1.0
C      1  0.5186880000000  0.5612890000000  0.4860800000000 1.0
C      1  0.5417350000000  0.5048290000000  0.4376610000000 1.0
C      1  0.5047210000000  0.4454850000000  0.4413580000000 1.0
C      1  0.5033470000000  0.4710950000000  0.4947540000000 1.0
C      1  0.4777660000000  0.5889670000000  0.4976890000000 1.0
C      1  0.4659310000000  0.5067280000000  0.4133300000000 1.0
C      1  0.5086450000000  0.5167790000000  0.4096360000000 1.0
C      1  0.4921120000000  0.4331270000000  0.4643990000000 1.0
C      1  0.4769230000000  0.5794630000000  0.5371900000000 1.0
C      1  0.4304690000000  0.5487510000000  0.5412500000000 1.0
C      1  0.5252770000000  0.5281030000000  0.4296320000000 1.0
C      1  0.5592490000000  0.5015290000000  0.4600960000000 1.0
C      1  0.5315660000000  0.4565450000000  0.4475860000000 1.0
C      1  0.4886200000000  0.5157620000000  0.4859050000000 1.0
C      1  0.5544360000000  0.4383260000000  0.5249070000000 1.0
C      1  0.5003140000000  0.4505600000000  0.5659040000000 1.0
C      1  0.5733710000000  0.5370650000000  0.5094260000000 1.0
C      1  0.4384550000000  0.5383930000000  0.4725020000000 1.0
C      1  0.5227350000000  0.4864500000000  0.5435350000000 1.0
C      1  0.4554510000000  0.4608680000000  0.5478280000000 1.0
C      1  0.4569590000000  0.5854420000000  0.5187310000000 1.0
C      1  0.4803290000000  0.5174300000000  0.5130380000000 1.0
C      1  0.4290370000000  0.5462950000000  0.4991190000000 1.0
C      1  0.4574170000000  0.4522030000000  0.4465270000000 1.0
C      1  0.5577400000000  0.5497910000000  0.4881650000000 1.0
C      1  0.4646610000000  0.4390280000000  0.4719660000000 1.0
C      1  0.5106790000000  0.4884740000000  0.4108560000000 1.0
C      1  0.4357790000000  0.5668520000000  0.5185090000000 1.0
C      1  0.5212850000000  0.5336920000000  0.5726680000000 1.0
C      1  0.5508010000000  0.4348130000000  0.4943920000000 1.0
C      1  0.4607400000000  0.5409540000000  0.4529210000000 1.0
C      1  0.4765580000000  0.4683210000000  0.5660990000000 1.0
C      1  0.4776360000000  0.5524870000000  0.5471880000000 1.0
C      1  0.5701860000000  0.4761380000000  0.4701140000000 1.0
C      1  0.5034440000000  0.5113250000000  0.5812540000000 1.0
C      1  0.5237760000000  0.4918760000000  0.5709110000000 1.0
C      1  0.4611270000000  0.4842550000000  0.4725760000000 1.0
C      1  0.4536750000000  0.5385170000000  0.5562150000000 1.0
C      1  0.5404510000000  0.5590620000000  0.4666760000000 1.0
C      1  0.4804560000000  0.5721810000000  0.4745600000000 1.0
C      1  0.5299270000000  0.4464990000000  0.5685340000000 1.0
C      1  0.4409620000000  0.4754740000000  0.4523790000000 1.0
C      1  0.4618910000000  0.4484660000000  0.5003660000000 1.0
C      1  0.5523210000000  0.5089390000000  0.4894380000000 1.0
C      1  0.4511640000000  0.5200580000000  0.4340320000000 1.0
C      1  0.5025910000000  0.4425510000000  0.5375390000000 1.0
C      1  0.4979030000000  0.5860430000000  0.5198200000000 1.0
C      1  0.4807400000000  0.4574950000000  0.4294740000000 1.0
C      1  0.4209930000000  0.5010100000000  0.5243830000000 1.0
C      1  0.4582110000000  0.4378290000000  0.5280030000000 1.0
C      1  0.4781440000000  0.4977670000000  0.5733500000000 1.0
C      1  0.5641330000000  0.5315850000000  0.5387830000000 1.0
C      1  0.4824340000000  0.5226650000000  0.4084580000000 1.0
C      1  0.5900210000000  0.5148540000000  0.5006250000000 1.0
C      1  0.5526210000000  0.4873410000000  0.5093390000000 1.0
C      1  0.4482050000000  0.4884730000000  0.4962880000000 1.0
C      1  0.4841360000000  0.4230380000000  0.5252510000000 1.0
C      1  0.4432920000000  0.4888550000000  0.5428090000000 1.0
C      1  0.5539810000000  0.4914840000000  0.5714530000000 1.0
C      1  0.4181280000000  0.5294850000000  0.5228110000000 1.0
C      1  0.5502210000000  0.4542560000000  0.4708240000000 1.0
C      1  0.5176360000000  0.5660210000000  0.5145330000000 1.0
C      1  0.5732020000000  0.4843690000000  0.5302680000000 1.0
C      1  0.4665930000000  0.4917440000000  0.5182780000000 1.0
C      1  0.5035550000000  0.4195060000000  0.5024350000000 1.0
C      1  0.5317640000000  0.4144740000000  0.5006590000000 1.0
C      1  0.5690410000000  0.4576910000000  0.5414590000000 1.0
C      1  0.4208740000000  0.4960990000000  0.4958820000000 1.0
C      1  0.5316540000000  0.4791040000000  0.4288520000000 1.0
C      1  0.5088450000000  0.4430780000000  0.4857380000000 1.0
C      1  0.5251250000000  0.4816370000000  0.5177870000000 1.0
C      1  0.4825370000000  0.4815940000000  0.4132460000000 1.0
C      1  0.5550410000000  0.4626300000000  0.5670200000000 1.0
C      1  0.5291910000000  0.5199990000000  0.5013030000000 1.0
C      1  0.5127130000000  0.5316700000000  0.4811570000000 1.0
C      1  0.4931570000000  0.5368200000000  0.5292920000000 1.0
C      1  0.4895030000000  0.4892250000000  0.4748480000000 1.0
C      1  0.4863790000000  0.5560230000000  0.4538950000000 1.0
C      1  0.5398650000000  0.5414730000000  0.5510650000000 1.0
END
