TITL C-883737-113-241 39.5213612053471 125000 -19339.8793503595 0 0 131 (C1) n - 1
REM
REM in /home/nfs/bkarasulu/CARBON/AIRSS/Generating-Clusters/ReaxFF-fromJPCA2015/Units_Real/with-SteepDescent/Only-C1/SD-CG/Try1-3A/FIRE-CG
REM
REM
REM
REM
REM
REM ./C.cell (11c1c37f851c82e70ff6c80c92926a4b)
REM
REM compiler GCC version 9.2.1 20190827 (Red Hat 9.2.1-1)
REM options -cpp -mtune=generic -march=x86-64 -g -O0 -fpre-include=/usr/include/finclude/math-vector-fortran.h
REM seed 1155812126 -2042939608 1954281917 1009316388 -1987749397 126944974 181265502 722640610 -1459946229 -2051036633 -821698527 1699325957 -1282792573 -545798837 -1863763079 841465657 -773632665 -1810643624 -1232983761 -1994495308 -417498651 -312245701 -1059895050 102691859 1602790932 1329794327 1147051616 -6068170 -333443998 1456436050 -777267365 -138178931 -1109110611
REM
CELL 1.54180   50.00000   50.00000   50.00000   90.00000   90.00000   90.00000
LATT -1
SFAC C  
C      1  0.4790060000000  0.4735420000000  0.5038750000000 1.0
C      1  0.4782190000000  0.5395240000000  0.4067730000000 1.0
C      1  0.5765280000000  0.4795940000000  0.5319290000000 1.0
C      1  0.5049760000000  0.5849590000000  0.5099080000000 1.0
C      1  0.5530430000000  0.5668600000000  0.4955450000000 1.0
C      1  0.4157230000000  0.5167880000000  0.4778560000000 1.0
C      1  0.5095660000000  0.5010520000000  0.3868360000000 1.0
C      1  0.4910470000000  0.4378270000000  0.4805390000000 1.0
C      1  0.4985940000000  0.4788510000000  0.5853600000000 1.0
C      1  0.4911920000000  0.3954620000000  0.5483250000000 1.0
C      1  0.4157780000000  0.4861760000000  0.5199300000000 1.0
C      1  0.4636120000000  0.4979160000000  0.5012500000000 1.0
C      1  0.4591870000000  0.5441130000000  0.4432620000000 1.0
C      1  0.4533280000000  0.5427460000000  0.5692110000000 1.0
C      1  0.5145570000000  0.4617100000000  0.5360480000000 1.0
C      1  0.5611960000000  0.5629430000000  0.4658340000000 1.0
C      1  0.5422930000000  0.5369100000000  0.4113640000000 1.0
C      1  0.5205290000000  0.4762100000000  0.4807690000000 1.0
C      1  0.5361860000000  0.5699170000000  0.4517940000000 1.0
C      1  0.5224440000000  0.5095950000000  0.5458080000000 1.0
C      1  0.4626720000000  0.5805410000000  0.4710760000000 1.0
C      1  0.4754200000000  0.5341620000000  0.4651320000000 1.0
C      1  0.5239900000000  0.4108770000000  0.4766960000000 1.0
C      1  0.4299690000000  0.5370500000000  0.4421500000000 1.0
C      1  0.4413150000000  0.5649550000000  0.4831970000000 1.0
C      1  0.4791870000000  0.4248820000000  0.4435270000000 1.0
C      1  0.4902120000000  0.4670260000000  0.4792960000000 1.0
C      1  0.5319700000000  0.5172000000000  0.3955290000000 1.0
C      1  0.5389280000000  0.5314490000000  0.5389920000000 1.0
C      1  0.4971180000000  0.4804220000000  0.4054080000000 1.0
C      1  0.5245020000000  0.4842320000000  0.4529760000000 1.0
C      1  0.4685250000000  0.4312250000000  0.5782260000000 1.0
C      1  0.5669020000000  0.4964570000000  0.5752130000000 1.0
C      1  0.5181820000000  0.4422980000000  0.5106420000000 1.0
C      1  0.4949580000000  0.4384010000000  0.5809690000000 1.0
C      1  0.4416890000000  0.4729250000000  0.4554440000000 1.0
C      1  0.4686650000000  0.5189040000000  0.5239920000000 1.0
C      1  0.5616650000000  0.5188670000000  0.4250130000000 1.0
C      1  0.4678900000000  0.5130250000000  0.4176540000000 1.0
C      1  0.5636830000000  0.4726920000000  0.5568100000000 1.0
C      1  0.4740620000000  0.3920340000000  0.5267360000000 1.0
C      1  0.4219870000000  0.4968540000000  0.4565120000000 1.0
C      1  0.5542590000000  0.4316740000000  0.5520660000000 1.0
C      1  0.5645890000000  0.5185370000000  0.4971750000000 1.0
C      1  0.4729270000000  0.4842440000000  0.4595170000000 1.0
C      1  0.5796530000000  0.5173840000000  0.5602150000000 1.0
C      1  0.5739080000000  0.5712620000000  0.5185290000000 1.0
C      1  0.4514050000000  0.4351830000000  0.5312200000000 1.0
C      1  0.4424420000000  0.5355230000000  0.5232580000000 1.0
C      1  0.4910080000000  0.5326390000000  0.5790480000000 1.0
C      1  0.5213880000000  0.4963530000000  0.5011750000000 1.0
C      1  0.4433450000000  0.5626240000000  0.5127380000000 1.0
C      1  0.4150660000000  0.5062060000000  0.5692040000000 1.0
C      1  0.4933160000000  0.5529620000000  0.4774680000000 1.0
C      1  0.4059710000000  0.5097860000000  0.5048490000000 1.0
C      1  0.4980860000000  0.5693370000000  0.5606270000000 1.0
C      1  0.5133690000000  0.5731360000000  0.4690440000000 1.0
C      1  0.5217480000000  0.5538260000000  0.4298780000000 1.0
C      1  0.5592580000000  0.5406390000000  0.5604040000000 1.0
C      1  0.5844730000000  0.5174870000000  0.4437670000000 1.0
C      1  0.5602840000000  0.4613920000000  0.4426140000000 1.0
C      1  0.5583210000000  0.5037890000000  0.4728460000000 1.0
C      1  0.5702930000000  0.4305970000000  0.5293240000000 1.0
C      1  0.5227700000000  0.4881180000000  0.5271120000000 1.0
C      1  0.5155590000000  0.5241770000000  0.5016170000000 1.0
C      1  0.4928640000000  0.5331020000000  0.5157360000000 1.0
C      1  0.4701050000000  0.5079620000000  0.4748750000000 1.0
C      1  0.5401980000000  0.4528130000000  0.4940820000000 1.0
C      1  0.4039790000000  0.5282040000000  0.5550630000000 1.0
C      1  0.4744500000000  0.4590800000000  0.5859670000000 1.0
C      1  0.4650740000000  0.6045200000000  0.5171420000000 1.0
C      1  0.5049740000000  0.4239630000000  0.4583370000000 1.0
C      1  0.4773720000000  0.5959910000000  0.4918950000000 1.0
C      1  0.5267820000000  0.4775320000000  0.5833150000000 1.0
C      1  0.5637210000000  0.5697700000000  0.5461480000000 1.0
C      1  0.4572500000000  0.5119590000000  0.5699850000000 1.0
C      1  0.5413450000000  0.5041540000000  0.5871860000000 1.0
C      1  0.4864100000000  0.4708280000000  0.5433310000000 1.0
C      1  0.4466300000000  0.4931270000000  0.4172010000000 1.0
C      1  0.4779550000000  0.4493630000000  0.4266900000000 1.0
C      1  0.4489990000000  0.4088600000000  0.4875060000000 1.0
C      1  0.5854440000000  0.4375130000000  0.5067610000000 1.0
C      1  0.4247090000000  0.5439400000000  0.4699600000000 1.0
C      1  0.4887360000000  0.4118520000000  0.5716160000000 1.0
C      1  0.4929060000000  0.5244330000000  0.3876970000000 1.0
C      1  0.5424520000000  0.5359690000000  0.5085510000000 1.0
C      1  0.4704970000000  0.5654620000000  0.5552190000000 1.0
C      1  0.5961570000000  0.5520050000000  0.5144100000000 1.0
C      1  0.4988320000000  0.5066890000000  0.5673260000000 1.0
C      1  0.4525350000000  0.4662450000000  0.4280400000000 1.0
C      1  0.5324310000000  0.4640690000000  0.4340300000000 1.0
C      1  0.5880700000000  0.4696770000000  0.4799230000000 1.0
C      1  0.4258570000000  0.5449700000000  0.5625600000000 1.0
C      1  0.5453440000000  0.5184130000000  0.4505410000000 1.0
C      1  0.5375860000000  0.5328250000000  0.5815730000000 1.0
C      1  0.4855770000000  0.4956510000000  0.4309680000000 1.0
C      1  0.5164190000000  0.4138550000000  0.5054750000000 1.0
C      1  0.4901750000000  0.5592520000000  0.5050090000000 1.0
C      1  0.5131700000000  0.5850850000000  0.5404700000000 1.0
C      1  0.4518670000000  0.4088790000000  0.5172870000000 1.0
C      1  0.4736440000000  0.4533960000000  0.5244810000000 1.0
C      1  0.5461420000000  0.4296700000000  0.4759110000000 1.0
C      1  0.4121140000000  0.4501230000000  0.5006800000000 1.0
C      1  0.5017350000000  0.3949080000000  0.5221290000000 1.0
C      1  0.5888710000000  0.5055870000000  0.5354750000000 1.0
C      1  0.5373310000000  0.4589510000000  0.5601880000000 1.0
C      1  0.5891590000000  0.4409060000000  0.4768160000000 1.0
C      1  0.4644990000000  0.4271490000000  0.4699720000000 1.0
C      1  0.5061950000000  0.4569510000000  0.4180610000000 1.0
C      1  0.4323030000000  0.4601660000000  0.4843150000000 1.0
C      1  0.4711490000000  0.5709260000000  0.4431700000000 1.0
C      1  0.5196230000000  0.5296290000000  0.4475330000000 1.0
C      1  0.4259990000000  0.5092600000000  0.4314100000000 1.0
C      1  0.4575620000000  0.5789520000000  0.5325270000000 1.0
C      1  0.5127730000000  0.5494290000000  0.5809160000000 1.0
C      1  0.5717090000000  0.4650490000000  0.5055590000000 1.0
C      1  0.4906860000000  0.5610530000000  0.4238630000000 1.0
C      1  0.5761950000000  0.4847020000000  0.4570390000000 1.0
C      1  0.5675050000000  0.4371200000000  0.4568720000000 1.0
C      1  0.4746440000000  0.4993020000000  0.5485520000000 1.0
C      1  0.5284440000000  0.5834310000000  0.4915100000000 1.0
C      1  0.4368300000000  0.4907790000000  0.5775230000000 1.0
C      1  0.5394750000000  0.5792130000000  0.5423330000000 1.0
C      1  0.4101320000000  0.4583410000000  0.5278180000000 1.0
C      1  0.4440430000000  0.4627250000000  0.5701160000000 1.0
C      1  0.5084170000000  0.5050780000000  0.4431060000000 1.0
C      1  0.4139730000000  0.5286430000000  0.5254790000000 1.0
C      1  0.5902180000000  0.5228330000000  0.5107660000000 1.0
C      1  0.4388050000000  0.4807740000000  0.5030140000000 1.0
C      1  0.4316750000000  0.4490720000000  0.5480280000000 1.0
C      1  0.5773450000000  0.5418180000000  0.4558610000000 1.0
END
