TITL C-884133-6611-449 104.527547847362 125000 -17637.6309675373 0 0 121 (C1) n - 1
REM
REM in /home/nfs/bkarasulu/CARBON/AIRSS/Generating-Clusters/ReaxFF-fromJPCA2015/Units_Real/with-SteepDescent/Only-C1/SD-CG/Try1-3A/FIRE-CG
REM
REM
REM
REM
REM
REM ./C.cell (11c1c37f851c82e70ff6c80c92926a4b)
REM
REM compiler GCC version 9.2.1 20190827 (Red Hat 9.2.1-1)
REM options -cpp -mtune=generic -march=x86-64 -g -O0 -fpre-include=/usr/include/finclude/math-vector-fortran.h
REM seed -1615340218 -59740085 1047736170 -972179941 1659634434 1005170536 -791207874 -2067665821 1732804290 643740712 1736233140 1670995340 -578616885 1283591697 1221781095 308239509 -877265037 948381624 -2020933741 -939291516 -1285414461 -356813579 234225756 502650047 -1078497858 321880563 1440851506 2030980884 1710541293 -811081805 -1351990377 301833109 1842296965
REM
CELL 1.54180   50.00000   50.00000   50.00000   90.00000   90.00000   90.00000
LATT -1
SFAC C  
C      1  0.4983870000000  0.5741370000000  0.5786740000000 1.0
C      1  0.4227540000000  0.5254980000000  0.4415520000000 1.0
C      1  0.5890170000000  0.4914580000000  0.5263010000000 1.0
C      1  0.4760520000000  0.4145820000000  0.4868450000000 1.0
C      1  0.4120970000000  0.4849270000000  0.4767700000000 1.0
C      1  0.5539050000000  0.4930420000000  0.5650620000000 1.0
C      1  0.4918280000000  0.5137960000000  0.4862590000000 1.0
C      1  0.4898300000000  0.5417360000000  0.5287540000000 1.0
C      1  0.4435370000000  0.5257920000000  0.5102470000000 1.0
C      1  0.4537800000000  0.5669270000000  0.4412890000000 1.0
C      1  0.5547750000000  0.4258210000000  0.5420890000000 1.0
C      1  0.4930200000000  0.5894730000000  0.5560170000000 1.0
C      1  0.5032820000000  0.4789220000000  0.6071100000000 1.0
C      1  0.5540640000000  0.4370690000000  0.4558310000000 1.0
C      1  0.5066110000000  0.4177310000000  0.4808190000000 1.0
C      1  0.4740490000000  0.5009380000000  0.4034570000000 1.0
C      1  0.5383230000000  0.4166910000000  0.5190900000000 1.0
C      1  0.5291760000000  0.4187480000000  0.4610670000000 1.0
C      1  0.4909250000000  0.4330740000000  0.4261400000000 1.0
C      1  0.4178470000000  0.5292840000000  0.5263130000000 1.0
C      1  0.5260010000000  0.5650690000000  0.5694620000000 1.0
C      1  0.4947020000000  0.5192340000000  0.4365040000000 1.0
C      1  0.5470250000000  0.5241330000000  0.4867530000000 1.0
C      1  0.4594080000000  0.4992150000000  0.5156750000000 1.0
C      1  0.5015380000000  0.4351570000000  0.5746960000000 1.0
C      1  0.4202250000000  0.5113540000000  0.5487310000000 1.0
C      1  0.5728430000000  0.5613860000000  0.4983990000000 1.0
C      1  0.5795070000000  0.5429070000000  0.5215300000000 1.0
C      1  0.4281650000000  0.5555080000000  0.4454590000000 1.0
C      1  0.4349580000000  0.4416710000000  0.5031220000000 1.0
C      1  0.5551990000000  0.4568210000000  0.4332690000000 1.0
C      1  0.4314360000000  0.5946380000000  0.5129290000000 1.0
C      1  0.5678890000000  0.5390880000000  0.5463950000000 1.0
C      1  0.5687230000000  0.4487030000000  0.5045130000000 1.0
C      1  0.5885920000000  0.4712700000000  0.4660580000000 1.0
C      1  0.5438690000000  0.5074970000000  0.4347540000000 1.0
C      1  0.5881060000000  0.5143850000000  0.4816350000000 1.0
C      1  0.4171140000000  0.5585630000000  0.5259980000000 1.0
C      1  0.5381250000000  0.4422480000000  0.5059460000000 1.0
C      1  0.5143500000000  0.4450960000000  0.5522150000000 1.0
C      1  0.4508350000000  0.4495810000000  0.4547900000000 1.0
C      1  0.5897980000000  0.5163060000000  0.5106340000000 1.0
C      1  0.5080980000000  0.4936570000000  0.5502150000000 1.0
C      1  0.5760240000000  0.4882680000000  0.4863510000000 1.0
C      1  0.5078330000000  0.5403160000000  0.4543080000000 1.0
C      1  0.5124950000000  0.4072260000000  0.5073380000000 1.0
C      1  0.4523600000000  0.4786830000000  0.5418330000000 1.0
C      1  0.4516900000000  0.4297410000000  0.4817430000000 1.0
C      1  0.4767300000000  0.4308770000000  0.5591790000000 1.0
C      1  0.5275890000000  0.4956950000000  0.5719100000000 1.0
C      1  0.5006330000000  0.4562950000000  0.5952400000000 1.0
C      1  0.5767090000000  0.4427860000000  0.5337700000000 1.0
C      1  0.4159670000000  0.4678790000000  0.5168590000000 1.0
C      1  0.5399800000000  0.4420730000000  0.5614100000000 1.0
C      1  0.5743320000000  0.4464970000000  0.4722350000000 1.0
C      1  0.4898430000000  0.5131150000000  0.5149020000000 1.0
C      1  0.4577910000000  0.4862060000000  0.4900690000000 1.0
C      1  0.4847030000000  0.5562910000000  0.4678350000000 1.0
C      1  0.5410130000000  0.5411680000000  0.5783110000000 1.0
C      1  0.4847390000000  0.4942650000000  0.4489880000000 1.0
C      1  0.5158050000000  0.5005350000000  0.4793740000000 1.0
C      1  0.4686920000000  0.4137850000000  0.5370650000000 1.0
C      1  0.5024170000000  0.4635170000000  0.5343540000000 1.0
C      1  0.4699770000000  0.4543380000000  0.5413660000000 1.0
C      1  0.4699740000000  0.4694740000000  0.4062400000000 1.0
C      1  0.5814230000000  0.4692260000000  0.5460550000000 1.0
C      1  0.4383910000000  0.5261230000000  0.5667490000000 1.0
C      1  0.4809140000000  0.4458180000000  0.4520240000000 1.0
C      1  0.4600310000000  0.5082810000000  0.5769650000000 1.0
C      1  0.4438770000000  0.5662030000000  0.5363470000000 1.0
C      1  0.4476530000000  0.5536100000000  0.5628240000000 1.0
C      1  0.4515070000000  0.4347200000000  0.5262730000000 1.0
C      1  0.5248680000000  0.5178630000000  0.5890520000000 1.0
C      1  0.5686140000000  0.5420220000000  0.4763210000000 1.0
C      1  0.4291360000000  0.5579880000000  0.4745970000000 1.0
C      1  0.5762000000000  0.4763800000000  0.5074580000000 1.0
C      1  0.5316140000000  0.5164110000000  0.4626020000000 1.0
C      1  0.5154080000000  0.4597400000000  0.5074310000000 1.0
C      1  0.5088560000000  0.5800020000000  0.4322510000000 1.0
C      1  0.5279610000000  0.5730470000000  0.5416620000000 1.0
C      1  0.4915350000000  0.4508330000000  0.4024660000000 1.0
C      1  0.4643110000000  0.5529500000000  0.5159720000000 1.0
C      1  0.5234520000000  0.5720750000000  0.4977280000000 1.0
C      1  0.5525850000000  0.5657650000000  0.4617960000000 1.0
C      1  0.5135000000000  0.4731250000000  0.4814040000000 1.0
C      1  0.4136410000000  0.5128310000000  0.4672400000000 1.0
C      1  0.4561750000000  0.4828190000000  0.5663760000000 1.0
C      1  0.4967980000000  0.4696220000000  0.4587370000000 1.0
C      1  0.4853200000000  0.5110240000000  0.5625000000000 1.0
C      1  0.4489080000000  0.5135590000000  0.4427950000000 1.0
C      1  0.4185960000000  0.5741850000000  0.4992800000000 1.0
C      1  0.5616370000000  0.5235640000000  0.5671080000000 1.0
C      1  0.4755620000000  0.5558690000000  0.5726420000000 1.0
C      1  0.4803920000000  0.5744130000000  0.4449450000000 1.0
C      1  0.4294630000000  0.5304960000000  0.4837470000000 1.0
C      1  0.4693270000000  0.5041500000000  0.4712180000000 1.0
C      1  0.4992530000000  0.5869710000000  0.5029520000000 1.0
C      1  0.4232660000000  0.4821270000000  0.5410890000000 1.0
C      1  0.5187650000000  0.4596640000000  0.3922750000000 1.0
C      1  0.3937630000000  0.4785390000000  0.5007550000000 1.0
C      1  0.5356910000000  0.5246900000000  0.5135070000000 1.0
C      1  0.5243440000000  0.4878440000000  0.3922940000000 1.0
C      1  0.4992370000000  0.5162540000000  0.4079460000000 1.0
C      1  0.4787200000000  0.5681910000000  0.4941780000000 1.0
C      1  0.4506740000000  0.4585250000000  0.4255460000000 1.0
C      1  0.5294430000000  0.5098740000000  0.4089890000000 1.0
C      1  0.5883250000000  0.4946220000000  0.4496130000000 1.0
C      1  0.5282120000000  0.5625950000000  0.4447680000000 1.0
C      1  0.5176110000000  0.5052660000000  0.5243700000000 1.0
C      1  0.4836790000000  0.4039810000000  0.5135340000000 1.0
C      1  0.5075470000000  0.5926960000000  0.5318710000000 1.0
C      1  0.5217350000000  0.5516420000000  0.5203370000000 1.0
C      1  0.5590880000000  0.4656810000000  0.5633200000000 1.0
C      1  0.4532400000000  0.5112540000000  0.4190340000000 1.0
C      1  0.5131140000000  0.4225980000000  0.4391300000000 1.0
C      1  0.5508410000000  0.5779060000000  0.4880390000000 1.0
C      1  0.4369090000000  0.4685960000000  0.4797640000000 1.0
C      1  0.4879960000000  0.5369840000000  0.5561280000000 1.0
C      1  0.5649220000000  0.4879430000000  0.4349050000000 1.0
C      1  0.5114380000000  0.5033940000000  0.6076650000000 1.0
C      1  0.5374680000000  0.4552880000000  0.4133820000000 1.0
END
