TITL C-883736-9678-294 121.555980576108 125000 -29006.4421845494 0 0 196 (C1) n - 1
REM
REM in /home/nfs/bkarasulu/CARBON/AIRSS/Generating-Clusters/ReaxFF-fromJPCA2015/Units_Real/with-SteepDescent/Only-C1/SD-CG/Try1-3A/FIRE-CG
REM
REM
REM
REM
REM
REM ./C.cell (11c1c37f851c82e70ff6c80c92926a4b)
REM
REM compiler GCC version 9.2.1 20190827 (Red Hat 9.2.1-1)
REM options -cpp -mtune=generic -march=x86-64 -g -O0 -fpre-include=/usr/include/finclude/math-vector-fortran.h
REM seed 1779505565 1521324434 -1971859397 236742537 1480473932 -681572612 -1845491495 2083443131 -378554245 1184305589 261658312 1133847185 1190341567 241657774 -836224226 -480608086 -992835372 -210313269 1951869687 1807203757 -379629498 809202308 898634637 777915117 1997158110 -1808136626 -720006702 -1023288266 -1421624303 1824662967 1310199570 1562196444 535450142
REM
CELL 1.54180   50.00000   50.00000   50.00000   90.00000   90.00000   90.00000
LATT -1
SFAC C  
C      1  0.4884000000000  0.5182510000000  0.4314100000000 1.0
C      1  0.4659260000000  0.5180310000000  0.5585900000000 1.0
C      1  0.5629030000000  0.5325770000000  0.5313240000000 1.0
C      1  0.3869350000000  0.4992510000000  0.5256060000000 1.0
C      1  0.4410680000000  0.4453110000000  0.5026040000000 1.0
C      1  0.5627310000000  0.5359840000000  0.4088790000000 1.0
C      1  0.5016750000000  0.5152620000000  0.4070500000000 1.0
C      1  0.4526680000000  0.5997750000000  0.4734600000000 1.0
C      1  0.4837930000000  0.4369880000000  0.5208230000000 1.0
C      1  0.4374870000000  0.3994590000000  0.4989980000000 1.0
C      1  0.5132850000000  0.4560410000000  0.4372330000000 1.0
C      1  0.5163950000000  0.4957000000000  0.6078970000000 1.0
C      1  0.4659440000000  0.4794910000000  0.5021610000000 1.0
C      1  0.5467030000000  0.5921950000000  0.5101950000000 1.0
C      1  0.5329300000000  0.5269590000000  0.4480590000000 1.0
C      1  0.4826190000000  0.6164830000000  0.5450660000000 1.0
C      1  0.5110410000000  0.6219990000000  0.5481200000000 1.0
C      1  0.4754210000000  0.3899110000000  0.5285670000000 1.0
C      1  0.5403830000000  0.5802750000000  0.5363140000000 1.0
C      1  0.5584760000000  0.5663180000000  0.4412670000000 1.0
C      1  0.4368520000000  0.5074380000000  0.4612560000000 1.0
C      1  0.5041710000000  0.5381310000000  0.5274950000000 1.0
C      1  0.5220400000000  0.4352500000000  0.4944750000000 1.0
C      1  0.3847580000000  0.4879470000000  0.4692050000000 1.0
C      1  0.5897290000000  0.4699410000000  0.4583190000000 1.0
C      1  0.3998300000000  0.4543150000000  0.5381410000000 1.0
C      1  0.4639450000000  0.4754060000000  0.4355200000000 1.0
C      1  0.5679520000000  0.4720240000000  0.4057900000000 1.0
C      1  0.4171860000000  0.5137160000000  0.5660710000000 1.0
C      1  0.5373360000000  0.4701290000000  0.4449600000000 1.0
C      1  0.6083000000000  0.5392980000000  0.5188460000000 1.0
C      1  0.5857870000000  0.4800100000000  0.5363470000000 1.0
C      1  0.5640040000000  0.4980010000000  0.5961450000000 1.0
C      1  0.5012460000000  0.4292770000000  0.4748630000000 1.0
C      1  0.4951610000000  0.5302580000000  0.3820980000000 1.0
C      1  0.5110860000000  0.4632190000000  0.5620220000000 1.0
C      1  0.5611300000000  0.6022930000000  0.4727730000000 1.0
C      1  0.5306460000000  0.4815460000000  0.5719270000000 1.0
C      1  0.5012740000000  0.5857590000000  0.4734560000000 1.0
C      1  0.5814030000000  0.5617430000000  0.5612000000000 1.0
C      1  0.4683160000000  0.4562650000000  0.3900220000000 1.0
C      1  0.4609790000000  0.5404710000000  0.5405770000000 1.0
C      1  0.5260570000000  0.6386500000000  0.5284400000000 1.0
C      1  0.4910810000000  0.5069620000000  0.6006410000000 1.0
C      1  0.4304650000000  0.5078860000000  0.5222140000000 1.0
C      1  0.5227020000000  0.4602210000000  0.5366960000000 1.0
C      1  0.5940570000000  0.4984840000000  0.4691580000000 1.0
C      1  0.4767700000000  0.5660620000000  0.4688190000000 1.0
C      1  0.5472490000000  0.5921900000000  0.4497920000000 1.0
C      1  0.5357060000000  0.3962830000000  0.5076850000000 1.0
C      1  0.5685890000000  0.5108970000000  0.3976860000000 1.0
C      1  0.5210410000000  0.5648300000000  0.4814460000000 1.0
C      1  0.5583290000000  0.5144380000000  0.5535950000000 1.0
C      1  0.5311420000000  0.5072680000000  0.5587340000000 1.0
C      1  0.4622860000000  0.4808690000000  0.4063710000000 1.0
C      1  0.4444220000000  0.4804440000000  0.4565030000000 1.0
C      1  0.4603480000000  0.3924120000000  0.4836230000000 1.0
C      1  0.4739210000000  0.5453550000000  0.3955290000000 1.0
C      1  0.6076530000000  0.4975450000000  0.5397320000000 1.0
C      1  0.4908450000000  0.4714360000000  0.4466270000000 1.0
C      1  0.5447730000000  0.4114290000000  0.4464760000000 1.0
C      1  0.5430960000000  0.5519490000000  0.5448930000000 1.0
C      1  0.4587460000000  0.4011790000000  0.4553390000000 1.0
C      1  0.4176150000000  0.5437100000000  0.5698740000000 1.0
C      1  0.5862190000000  0.5783620000000  0.5391300000000 1.0
C      1  0.3940950000000  0.5621410000000  0.5116100000000 1.0
C      1  0.4834820000000  0.4589670000000  0.5719800000000 1.0
C      1  0.5380330000000  0.5480310000000  0.4283900000000 1.0
C      1  0.5592540000000  0.4451910000000  0.4051550000000 1.0
C      1  0.5204500000000  0.6293210000000  0.5000940000000 1.0
C      1  0.5346240000000  0.4832880000000  0.5266180000000 1.0
C      1  0.4340090000000  0.5788220000000  0.5411300000000 1.0
C      1  0.5964370000000  0.5394030000000  0.5461230000000 1.0
C      1  0.5358250000000  0.4994140000000  0.4351100000000 1.0
C      1  0.5560230000000  0.4723950000000  0.5837240000000 1.0
C      1  0.4413310000000  0.4937350000000  0.5932990000000 1.0
C      1  0.4483800000000  0.5592000000000  0.4720570000000 1.0
C      1  0.4965850000000  0.4861580000000  0.4699320000000 1.0
C      1  0.5244810000000  0.5007240000000  0.5058060000000 1.0
C      1  0.4790180000000  0.6140780000000  0.5155210000000 1.0
C      1  0.5959670000000  0.4491040000000  0.4792070000000 1.0
C      1  0.4007160000000  0.5354540000000  0.4600090000000 1.0
C      1  0.5583880000000  0.4785110000000  0.5330250000000 1.0
C      1  0.5127430000000  0.3917260000000  0.4911160000000 1.0
C      1  0.4306710000000  0.5370760000000  0.4525900000000 1.0
C      1  0.5615660000000  0.5231470000000  0.5019730000000 1.0
C      1  0.4870000000000  0.4016740000000  0.5523430000000 1.0
C      1  0.5399180000000  0.5128440000000  0.6030490000000 1.0
C      1  0.4549130000000  0.4618580000000  0.4820820000000 1.0
C      1  0.4812730000000  0.5614910000000  0.5328660000000 1.0
C      1  0.4671420000000  0.4902510000000  0.6051390000000 1.0
C      1  0.5693270000000  0.4481510000000  0.5719410000000 1.0
C      1  0.4493340000000  0.5319720000000  0.4042350000000 1.0
C      1  0.4962520000000  0.5772390000000  0.5552280000000 1.0
C      1  0.5951610000000  0.5591850000000  0.5019390000000 1.0
C      1  0.4687450000000  0.4948140000000  0.5435640000000 1.0
C      1  0.4854040000000  0.3884970000000  0.5009800000000 1.0
C      1  0.4114970000000  0.4295030000000  0.5313870000000 1.0
C      1  0.5689680000000  0.4194100000000  0.5356080000000 1.0
C      1  0.4296730000000  0.4484150000000  0.5746110000000 1.0
C      1  0.4450710000000  0.4262580000000  0.5712300000000 1.0
C      1  0.4746300000000  0.4390890000000  0.4689420000000 1.0
C      1  0.4846460000000  0.5542850000000  0.5900320000000 1.0
C      1  0.4874010000000  0.5258890000000  0.5767300000000 1.0
C      1  0.5578380000000  0.4177710000000  0.5058690000000 1.0
C      1  0.5094900000000  0.4329470000000  0.4165880000000 1.0
C      1  0.5601750000000  0.4717610000000  0.4864730000000 1.0
C      1  0.4526280000000  0.5921280000000  0.4476310000000 1.0
C      1  0.4819040000000  0.4321820000000  0.4000780000000 1.0
C      1  0.4779360000000  0.3967210000000  0.4326230000000 1.0
C      1  0.5712590000000  0.6047180000000  0.4988430000000 1.0
C      1  0.5887990000000  0.5358840000000  0.4235340000000 1.0
C      1  0.3962460000000  0.4803230000000  0.4454820000000 1.0
C      1  0.3925520000000  0.4661920000000  0.4879240000000 1.0
C      1  0.6013030000000  0.4583930000000  0.5300370000000 1.0
C      1  0.5338070000000  0.3955030000000  0.5374230000000 1.0
C      1  0.4413900000000  0.5021430000000  0.4016710000000 1.0
C      1  0.3823030000000  0.5228390000000  0.5074570000000 1.0
C      1  0.4793160000000  0.5223140000000  0.4553400000000 1.0
C      1  0.5174620000000  0.5879020000000  0.4461350000000 1.0
C      1  0.4765940000000  0.4194880000000  0.5741850000000 1.0
C      1  0.4773160000000  0.5961240000000  0.5662680000000 1.0
C      1  0.6028910000000  0.5158400000000  0.5608010000000 1.0
C      1  0.4166430000000  0.4885560000000  0.5819720000000 1.0
C      1  0.4516860000000  0.4298240000000  0.4538400000000 1.0
C      1  0.5457970000000  0.5682240000000  0.4924040000000 1.0
C      1  0.5234240000000  0.4396270000000  0.5963630000000 1.0
C      1  0.5688660000000  0.5495300000000  0.4921230000000 1.0
C      1  0.5111200000000  0.5692720000000  0.4256320000000 1.0
C      1  0.3984610000000  0.5554020000000  0.5517220000000 1.0
C      1  0.5616060000000  0.4234840000000  0.4277180000000 1.0
C      1  0.5198670000000  0.5938570000000  0.5514800000000 1.0
C      1  0.5104410000000  0.4375350000000  0.5225380000000 1.0
C      1  0.4048920000000  0.5774510000000  0.5332440000000 1.0
C      1  0.6085460000000  0.4644920000000  0.5016740000000 1.0
C      1  0.5916420000000  0.5866540000000  0.5132620000000 1.0
C      1  0.4676600000000  0.4066730000000  0.4057400000000 1.0
C      1  0.5760690000000  0.4310100000000  0.4896040000000 1.0
C      1  0.4577420000000  0.5723250000000  0.4268630000000 1.0
C      1  0.4557850000000  0.5775010000000  0.5219590000000 1.0
C      1  0.5341140000000  0.4608640000000  0.4899630000000 1.0
C      1  0.5112860000000  0.4647990000000  0.6071540000000 1.0
C      1  0.5944900000000  0.5268750000000  0.4504630000000 1.0
C      1  0.4683560000000  0.4772000000000  0.5592540000000 1.0
C      1  0.4841720000000  0.5654540000000  0.4144840000000 1.0
C      1  0.4378450000000  0.5655060000000  0.5675130000000 1.0
C      1  0.4782980000000  0.4989120000000  0.4870080000000 1.0
C      1  0.5686680000000  0.4998080000000  0.4863900000000 1.0
C      1  0.5510260000000  0.4105560000000  0.5563490000000 1.0
C      1  0.5109400000000  0.5272970000000  0.5534280000000 1.0
C      1  0.5538590000000  0.5547780000000  0.5719550000000 1.0
C      1  0.4597600000000  0.5161880000000  0.4759220000000 1.0
C      1  0.5051780000000  0.4061060000000  0.4333740000000 1.0
C      1  0.4981770000000  0.4272020000000  0.5921560000000 1.0
C      1  0.5382880000000  0.5423590000000  0.5947880000000 1.0
C      1  0.5660410000000  0.4951840000000  0.4206260000000 1.0
C      1  0.4218780000000  0.4870490000000  0.4150680000000 1.0
C      1  0.5618880000000  0.4616240000000  0.4583920000000 1.0
C      1  0.5171010000000  0.4053180000000  0.4602680000000 1.0
C      1  0.5111610000000  0.4133050000000  0.5410760000000 1.0
C      1  0.4103410000000  0.5066160000000  0.5399920000000 1.0
C      1  0.4095640000000  0.4624420000000  0.5658160000000 1.0
C      1  0.5475580000000  0.4308620000000  0.5778190000000 1.0
C      1  0.4473540000000  0.4008160000000  0.5268050000000 1.0
C      1  0.4194560000000  0.4245980000000  0.5003820000000 1.0
C      1  0.5226210000000  0.4739930000000  0.3913660000000 1.0
C      1  0.5139690000000  0.5264830000000  0.5041660000000 1.0
C      1  0.4592110000000  0.4325710000000  0.5196890000000 1.0
C      1  0.5841520000000  0.4408870000000  0.5465840000000 1.0
C      1  0.4987370000000  0.6104910000000  0.4944940000000 1.0
C      1  0.5009390000000  0.5075680000000  0.3670580000000 1.0
C      1  0.4500890000000  0.4868670000000  0.5246200000000 1.0
C      1  0.4533340000000  0.5401230000000  0.4926130000000 1.0
C      1  0.5175110000000  0.5379750000000  0.4728590000000 1.0
C      1  0.5197850000000  0.4841120000000  0.4842070000000 1.0
C      1  0.5208880000000  0.4952410000000  0.4097210000000 1.0
C      1  0.6128540000000  0.4917610000000  0.4933400000000 1.0
C      1  0.4407890000000  0.5484840000000  0.4255320000000 1.0
C      1  0.4429140000000  0.5341470000000  0.5187280000000 1.0
C      1  0.5309010000000  0.4468710000000  0.3985270000000 1.0
C      1  0.4085260000000  0.4436660000000  0.4772600000000 1.0
C      1  0.4831390000000  0.4648250000000  0.6006990000000 1.0
C      1  0.4564620000000  0.5999830000000  0.5028020000000 1.0
C      1  0.5115510000000  0.4814070000000  0.3625960000000 1.0
C      1  0.3862710000000  0.5178690000000  0.4773250000000 1.0
C      1  0.3894040000000  0.4719090000000  0.5167870000000 1.0
C      1  0.5120180000000  0.5532640000000  0.5951880000000 1.0
C      1  0.4294930000000  0.4157460000000  0.5489450000000 1.0
C      1  0.4249710000000  0.4449460000000  0.4532870000000 1.0
C      1  0.4127370000000  0.4644900000000  0.4306090000000 1.0
C      1  0.4634960000000  0.5737930000000  0.5803900000000 1.0
C      1  0.6153000000000  0.5112890000000  0.5146140000000 1.0
C      1  0.3938040000000  0.5411090000000  0.5217400000000 1.0
C      1  0.5780510000000  0.5126420000000  0.5749810000000 1.0
C      1  0.4921100000000  0.5431200000000  0.4618260000000 1.0
C      1  0.5842550000000  0.5537910000000  0.4479950000000 1.0
END
