TITL C-883732-77-472 -3.50942133620584 125000 -3188.61618905351 0 0 23 (C1) n - 1
REM
REM in /home/nfs/bkarasulu/CARBON/AIRSS/Generating-Clusters/ReaxFF-fromJPCA2015/Units_Real/with-SteepDescent/Only-C1/SD-CG/Try1-3A/FIRE-CG
REM
REM
REM
REM
REM
REM ./C.cell (11c1c37f851c82e70ff6c80c92926a4b)
REM
REM compiler GCC version 9.2.1 20190827 (Red Hat 9.2.1-1)
REM options -cpp -mtune=generic -march=x86-64 -g -O0 -fpre-include=/usr/include/finclude/math-vector-fortran.h
REM seed -743229179 1263655193 843144738 2056333569 1614966684 1643540982 1979195663 58853474 -1992374160 419399783 627745981 -933333626 -2103668332 -1595607191 1194870534 148071837 -990799426 -2064623649 203364585 -1768202047 -1466777696 -1114162686 -288669043 1181942591 1028420342 2126131870 1003591707 1126154172 -1915414872 -1271301852 1420095065 1652105028 -896904728
REM
CELL 1.54180   50.00000   50.00000   50.00000   90.00000   90.00000   90.00000
LATT -1
SFAC C  
C      1  0.4933250000000  0.5034530000000  0.4586960000000 1.0
C      1  0.4489170000000  0.4706650000000  0.5351000000000 1.0
C      1  0.4332160000000  0.4599140000000  0.5137970000000 1.0
C      1  0.5178280000000  0.5183830000000  0.4997870000000 1.0
C      1  0.4696220000000  0.4762310000000  0.5526060000000 1.0
C      1  0.5006030000000  0.5426380000000  0.4418720000000 1.0
C      1  0.5114730000000  0.5240850000000  0.4192590000000 1.0
C      1  0.4603030000000  0.4498010000000  0.5000920000000 1.0
C      1  0.5339780000000  0.5428960000000  0.5297410000000 1.0
C      1  0.5072880000000  0.4977050000000  0.4314990000000 1.0
C      1  0.5166680000000  0.4703640000000  0.5482830000000 1.0
C      1  0.5268670000000  0.5448020000000  0.4889380000000 1.0
C      1  0.5203230000000  0.5537750000000  0.4622330000000 1.0
C      1  0.5309840000000  0.4537170000000  0.4856760000000 1.0
C      1  0.5411020000000  0.5634170000000  0.5122140000000 1.0
C      1  0.5226370000000  0.5186480000000  0.5288140000000 1.0
C      1  0.4776440000000  0.5295670000000  0.4559540000000 1.0
C      1  0.5094820000000  0.4668470000000  0.4911740000000 1.0
C      1  0.4832490000000  0.5026920000000  0.5602100000000 1.0
C      1  0.4900650000000  0.4593160000000  0.5390630000000 1.0
C      1  0.5112750000000  0.4997850000000  0.5512140000000 1.0
C      1  0.4867020000000  0.4542230000000  0.5100760000000 1.0
C      1  0.5064470000000  0.4970760000000  0.4837020000000 1.0
END
