TITL C-884127-5181-438 -0.945969551661335 125000 -18757.4865584236 0 0 128 (C1) n - 1
REM
REM in /home/nfs/bkarasulu/CARBON/AIRSS/Generating-Clusters/ReaxFF-fromJPCA2015/Units_Real/with-SteepDescent/Only-C1/SD-CG/Try1-3A/FIRE-CG
REM
REM
REM
REM
REM
REM ./C.cell (11c1c37f851c82e70ff6c80c92926a4b)
REM
REM compiler GCC version 9.2.1 20190827 (Red Hat 9.2.1-1)
REM options -cpp -mtune=generic -march=x86-64 -g -O0 -fpre-include=/usr/include/finclude/math-vector-fortran.h
REM seed 1373805905 820942019 -1188660794 1967433612 317802820 -737937434 676413935 796011363 195221415 -1665180603 -987349626 1455362360 -40866855 1930086067 1539614278 2029881223 1999781785 1154593932 -1842708309 436752069 939580847 -270218119 1907979235 43148155 1530982991 873776801 -1000135238 -1642997014 -43246161 671196235 -1712272063 -1647456453 149789279
REM
CELL 1.54180   50.00000   50.00000   50.00000   90.00000   90.00000   90.00000
LATT -1
SFAC C  
C      1  0.5624480000000  0.4949000000000  0.4187260000000 1.0
C      1  0.4718650000000  0.4545060000000  0.5349940000000 1.0
C      1  0.4652560000000  0.4649050000000  0.5780200000000 1.0
C      1  0.5736710000000  0.5427640000000  0.4476590000000 1.0
C      1  0.5703960000000  0.5199110000000  0.5097970000000 1.0
C      1  0.4581420000000  0.4408670000000  0.4210390000000 1.0
C      1  0.5058780000000  0.4072900000000  0.5310260000000 1.0
C      1  0.5436110000000  0.4034360000000  0.5085250000000 1.0
C      1  0.5215730000000  0.4875710000000  0.5952840000000 1.0
C      1  0.5203410000000  0.5182380000000  0.4121450000000 1.0
C      1  0.5264180000000  0.5972770000000  0.4716000000000 1.0
C      1  0.4993390000000  0.4471040000000  0.4216280000000 1.0
C      1  0.4458180000000  0.5499090000000  0.5581630000000 1.0
C      1  0.4102460000000  0.5066600000000  0.5160500000000 1.0
C      1  0.5497360000000  0.4931770000000  0.5884700000000 1.0
C      1  0.4751780000000  0.4896630000000  0.4866210000000 1.0
C      1  0.4760820000000  0.6004640000000  0.5363320000000 1.0
C      1  0.4914400000000  0.4766900000000  0.4371360000000 1.0
C      1  0.5495910000000  0.4799960000000  0.4917400000000 1.0
C      1  0.4374400000000  0.4221260000000  0.5057880000000 1.0
C      1  0.5253170000000  0.5102510000000  0.4621480000000 1.0
C      1  0.5803060000000  0.4873140000000  0.5477480000000 1.0
C      1  0.4822020000000  0.5830320000000  0.4543280000000 1.0
C      1  0.4876980000000  0.4143240000000  0.4835260000000 1.0
C      1  0.4276890000000  0.5463710000000  0.5359500000000 1.0
C      1  0.4834900000000  0.5471200000000  0.5282400000000 1.0
C      1  0.5867900000000  0.5106450000000  0.4881930000000 1.0
C      1  0.4847050000000  0.5355970000000  0.4497750000000 1.0
C      1  0.5670530000000  0.5339750000000  0.5660770000000 1.0
C      1  0.4802830000000  0.4020650000000  0.5431330000000 1.0
C      1  0.5078560000000  0.5437180000000  0.4123890000000 1.0
C      1  0.5792660000000  0.4824840000000  0.4962980000000 1.0
C      1  0.5150310000000  0.4973830000000  0.4347220000000 1.0
C      1  0.5103350000000  0.4775210000000  0.5696730000000 1.0
C      1  0.4244820000000  0.4604830000000  0.5320040000000 1.0
C      1  0.4137240000000  0.4639400000000  0.5035770000000 1.0
C      1  0.4262430000000  0.5295790000000  0.5120860000000 1.0
C      1  0.4427990000000  0.5298040000000  0.4854240000000 1.0
C      1  0.4396400000000  0.5484280000000  0.4433420000000 1.0
C      1  0.4513830000000  0.5784690000000  0.4977130000000 1.0
C      1  0.4354000000000  0.4894590000000  0.4236460000000 1.0
C      1  0.5164480000000  0.5908350000000  0.4988350000000 1.0
C      1  0.4748780000000  0.4317900000000  0.4021750000000 1.0
C      1  0.4943200000000  0.5201570000000  0.5654670000000 1.0
C      1  0.5152230000000  0.4265090000000  0.4410390000000 1.0
C      1  0.4768060000000  0.5455240000000  0.5576770000000 1.0
C      1  0.5014010000000  0.4244030000000  0.5069240000000 1.0
C      1  0.5878900000000  0.5187350000000  0.5521760000000 1.0
C      1  0.4632270000000  0.4278540000000  0.5488820000000 1.0
C      1  0.5280590000000  0.5683620000000  0.4259040000000 1.0
C      1  0.4522750000000  0.4747660000000  0.5325380000000 1.0
C      1  0.4929510000000  0.5380410000000  0.4759300000000 1.0
C      1  0.5627180000000  0.5666330000000  0.4623170000000 1.0
C      1  0.5255560000000  0.4547960000000  0.4126050000000 1.0
C      1  0.4573090000000  0.5552080000000  0.4826720000000 1.0
C      1  0.4072230000000  0.4953950000000  0.5443410000000 1.0
C      1  0.4670580000000  0.5244760000000  0.5184740000000 1.0
C      1  0.5502540000000  0.4550910000000  0.5603310000000 1.0
C      1  0.4980330000000  0.5674950000000  0.5658020000000 1.0
C      1  0.4555070000000  0.4996040000000  0.4699440000000 1.0
C      1  0.4808920000000  0.5373240000000  0.4229110000000 1.0
C      1  0.5222180000000  0.5905700000000  0.5285370000000 1.0
C      1  0.4591280000000  0.5004470000000  0.5259110000000 1.0
C      1  0.5300670000000  0.4342270000000  0.5670600000000 1.0
C      1  0.5822620000000  0.4948040000000  0.4413550000000 1.0
C      1  0.5430740000000  0.4720790000000  0.5374130000000 1.0
C      1  0.4418710000000  0.4373020000000  0.4666060000000 1.0
C      1  0.5121200000000  0.5097540000000  0.5134940000000 1.0
C      1  0.5479180000000  0.5118870000000  0.5653320000000 1.0
C      1  0.4077940000000  0.4898290000000  0.4924800000000 1.0
C      1  0.5618920000000  0.4308530000000  0.4837950000000 1.0
C      1  0.5833560000000  0.5178620000000  0.4602440000000 1.0
C      1  0.5065010000000  0.4553520000000  0.5079830000000 1.0
C      1  0.5038120000000  0.4938950000000  0.5455290000000 1.0
C      1  0.5050260000000  0.4481130000000  0.5738240000000 1.0
C      1  0.4658580000000  0.5994050000000  0.5105270000000 1.0
C      1  0.4211000000000  0.5370850000000  0.5636560000000 1.0
C      1  0.5290470000000  0.5003850000000  0.4889620000000 1.0
C      1  0.5500340000000  0.5210680000000  0.4121510000000 1.0
C      1  0.5883050000000  0.5258230000000  0.5257470000000 1.0
C      1  0.5108630000000  0.5381020000000  0.5208130000000 1.0
C      1  0.4582340000000  0.4202450000000  0.4833290000000 1.0
C      1  0.5009880000000  0.5912760000000  0.5484810000000 1.0
C      1  0.4500090000000  0.5402270000000  0.4172010000000 1.0
C      1  0.4939880000000  0.4678630000000  0.4847440000000 1.0
C      1  0.4872660000000  0.5141440000000  0.4980880000000 1.0
C      1  0.5375770000000  0.4790550000000  0.4211860000000 1.0
C      1  0.4556240000000  0.5676410000000  0.4581310000000 1.0
C      1  0.5588880000000  0.5448640000000  0.5052170000000 1.0
C      1  0.4952950000000  0.4697070000000  0.5317240000000 1.0
C      1  0.5669520000000  0.4753550000000  0.5731410000000 1.0
C      1  0.4103510000000  0.5027810000000  0.4642780000000 1.0
C      1  0.5559460000000  0.4167980000000  0.5294240000000 1.0
C      1  0.5538190000000  0.5450290000000  0.4272990000000 1.0
C      1  0.5326500000000  0.4136870000000  0.5467570000000 1.0
C      1  0.5810170000000  0.4677710000000  0.5207540000000 1.0
C      1  0.4272580000000  0.4862330000000  0.5640930000000 1.0
C      1  0.5675350000000  0.4414990000000  0.5128810000000 1.0
C      1  0.5054940000000  0.4654960000000  0.4601140000000 1.0
C      1  0.5423780000000  0.5729130000000  0.5403480000000 1.0
C      1  0.5295060000000  0.4495770000000  0.4514510000000 1.0
C      1  0.4088380000000  0.4876040000000  0.4393990000000 1.0
C      1  0.5159070000000  0.5461890000000  0.5699440000000 1.0
C      1  0.5019140000000  0.5768010000000  0.4352880000000 1.0
C      1  0.5360080000000  0.5508830000000  0.5223940000000 1.0
C      1  0.5598480000000  0.4479660000000  0.4597190000000 1.0
C      1  0.4265920000000  0.5282780000000  0.4608970000000 1.0
C      1  0.5389320000000  0.4601300000000  0.5108930000000 1.0
C      1  0.5407850000000  0.5820050000000  0.4504610000000 1.0
C      1  0.5223280000000  0.5386710000000  0.4683150000000 1.0
C      1  0.5730910000000  0.4704280000000  0.4510560000000 1.0
C      1  0.5401140000000  0.4112550000000  0.4816800000000 1.0
C      1  0.5436660000000  0.5533820000000  0.5631380000000 1.0
C      1  0.4631130000000  0.5764010000000  0.5261170000000 1.0
C      1  0.5123580000000  0.4134600000000  0.4669170000000 1.0
C      1  0.4773940000000  0.5078230000000  0.5861990000000 1.0
C      1  0.4530660000000  0.4879920000000  0.5797660000000 1.0
C      1  0.4214010000000  0.4400010000000  0.4884410000000 1.0
C      1  0.4979770000000  0.5025950000000  0.6071160000000 1.0
C      1  0.5541860000000  0.4984760000000  0.5381300000000 1.0
C      1  0.5453010000000  0.5522830000000  0.4808470000000 1.0
C      1  0.4977340000000  0.5963280000000  0.4766340000000 1.0
C      1  0.4364240000000  0.4335780000000  0.5326360000000 1.0
C      1  0.4467130000000  0.4544470000000  0.4430370000000 1.0
C      1  0.4765080000000  0.4410170000000  0.5750890000000 1.0
C      1  0.4408320000000  0.5146700000000  0.4158750000000 1.0
C      1  0.4126390000000  0.5103380000000  0.5668470000000 1.0
C      1  0.4591170000000  0.4835840000000  0.4454290000000 1.0
END
