TITL C-884138-6203-261 23.6436140064318 125000 -19771.4261227526 0 0 134 (C1) n - 1
REM
REM in /home/nfs/bkarasulu/CARBON/AIRSS/Generating-Clusters/ReaxFF-fromJPCA2015/Units_Real/with-SteepDescent/Only-C1/SD-CG/Try1-3A/FIRE-CG
REM
REM
REM
REM
REM
REM ./C.cell (11c1c37f851c82e70ff6c80c92926a4b)
REM
REM compiler GCC version 9.2.1 20190827 (Red Hat 9.2.1-1)
REM options -cpp -mtune=generic -march=x86-64 -g -O0 -fpre-include=/usr/include/finclude/math-vector-fortran.h
REM seed 1146232819 -1713721331 1433931913 -755600888 673424813 -88341476 950334107 1010379744 -606169901 1391910317 663568386 1608710902 782734026 -584320360 -446001688 -1448879287 290581225 -1100692544 1470489400 702797874 284127480 -12360338 -141579054 -867488672 -1999260346 1392634314 1298778607 439179597 1587298121 -868475371 -1898475986 837217622 -888203589
REM
CELL 1.54180   50.00000   50.00000   50.00000   90.00000   90.00000   90.00000
LATT -1
SFAC C  
C      1  0.5121000000000  0.5064840000000  0.5949640000000 1.0
C      1  0.5399020000000  0.4502210000000  0.4236250000000 1.0
C      1  0.5002390000000  0.4588210000000  0.4539620000000 1.0
C      1  0.4723750000000  0.5391300000000  0.5460170000000 1.0
C      1  0.5777210000000  0.5044560000000  0.4240080000000 1.0
C      1  0.4496850000000  0.4949190000000  0.5499850000000 1.0
C      1  0.4297210000000  0.4345730000000  0.4968680000000 1.0
C      1  0.5906680000000  0.5105560000000  0.5523560000000 1.0
C      1  0.5929670000000  0.4847050000000  0.5386930000000 1.0
C      1  0.5641980000000  0.4401300000000  0.4669960000000 1.0
C      1  0.4851780000000  0.5812690000000  0.5099240000000 1.0
C      1  0.5322550000000  0.5317940000000  0.5174810000000 1.0
C      1  0.4973960000000  0.5644470000000  0.4276590000000 1.0
C      1  0.4499190000000  0.4829630000000  0.4143630000000 1.0
C      1  0.4730380000000  0.4684080000000  0.4041090000000 1.0
C      1  0.4193800000000  0.5393380000000  0.5412060000000 1.0
C      1  0.5507930000000  0.5670810000000  0.4650700000000 1.0
C      1  0.4946150000000  0.5984330000000  0.5371350000000 1.0
C      1  0.4219410000000  0.5532470000000  0.4480120000000 1.0
C      1  0.5179140000000  0.5177980000000  0.4237120000000 1.0
C      1  0.5142240000000  0.5175240000000  0.5350650000000 1.0
C      1  0.5795700000000  0.4593210000000  0.5440820000000 1.0
C      1  0.5676430000000  0.4558430000000  0.5707590000000 1.0
C      1  0.4653830000000  0.5120290000000  0.5309070000000 1.0
C      1  0.5670460000000  0.5309330000000  0.4186450000000 1.0
C      1  0.4371560000000  0.5222700000000  0.4826660000000 1.0
C      1  0.5324010000000  0.4973150000000  0.4042730000000 1.0
C      1  0.5684440000000  0.4946980000000  0.4703260000000 1.0
C      1  0.5705980000000  0.4809140000000  0.4959890000000 1.0
C      1  0.5065410000000  0.5760300000000  0.4514460000000 1.0
C      1  0.5201360000000  0.5482500000000  0.4177520000000 1.0
C      1  0.5238130000000  0.5826170000000  0.4714100000000 1.0
C      1  0.4222390000000  0.5652660000000  0.5531040000000 1.0
C      1  0.5528690000000  0.5175290000000  0.4681410000000 1.0
C      1  0.4832150000000  0.5340490000000  0.5722450000000 1.0
C      1  0.4648480000000  0.4564580000000  0.5729860000000 1.0
C      1  0.5198170000000  0.4914200000000  0.4940220000000 1.0
C      1  0.5295710000000  0.4045970000000  0.4993860000000 1.0
C      1  0.4890590000000  0.4852080000000  0.4510500000000 1.0
C      1  0.4296510000000  0.4764840000000  0.5466420000000 1.0
C      1  0.4202540000000  0.5411340000000  0.5701270000000 1.0
C      1  0.4908080000000  0.5073560000000  0.4325460000000 1.0
C      1  0.4857270000000  0.5063780000000  0.5823080000000 1.0
C      1  0.5685710000000  0.4418050000000  0.5223420000000 1.0
C      1  0.5437820000000  0.4177410000000  0.4650400000000 1.0
C      1  0.4406630000000  0.4320580000000  0.4700280000000 1.0
C      1  0.5071600000000  0.5508090000000  0.5776740000000 1.0
C      1  0.3921400000000  0.5009880000000  0.4916410000000 1.0
C      1  0.5462410000000  0.5490490000000  0.4324270000000 1.0
C      1  0.4015310000000  0.5004350000000  0.5182010000000 1.0
C      1  0.5565170000000  0.4789500000000  0.5860970000000 1.0
C      1  0.4488070000000  0.5848240000000  0.4693690000000 1.0
C      1  0.4156600000000  0.4601670000000  0.5018210000000 1.0
C      1  0.5468450000000  0.4365670000000  0.5647410000000 1.0
C      1  0.4380140000000  0.4267480000000  0.5491010000000 1.0
C      1  0.5375490000000  0.5755580000000  0.5538110000000 1.0
C      1  0.5253130000000  0.5322520000000  0.5916550000000 1.0
C      1  0.4374270000000  0.5898230000000  0.5088530000000 1.0
C      1  0.5699570000000  0.4495990000000  0.4940000000000 1.0
C      1  0.5210440000000  0.4269950000000  0.4267250000000 1.0
C      1  0.4695060000000  0.4513350000000  0.5232390000000 1.0
C      1  0.4474590000000  0.4811290000000  0.4860670000000 1.0
C      1  0.5199060000000  0.4206510000000  0.5358390000000 1.0
C      1  0.4515670000000  0.4298320000000  0.5761740000000 1.0
C      1  0.4701180000000  0.5527040000000  0.4318290000000 1.0
C      1  0.5265590000000  0.5490310000000  0.5554290000000 1.0
C      1  0.4984010000000  0.4582370000000  0.3985760000000 1.0
C      1  0.4995990000000  0.4710010000000  0.4965680000000 1.0
C      1  0.5106410000000  0.5853070000000  0.5552820000000 1.0
C      1  0.4931060000000  0.4665480000000  0.5258940000000 1.0
C      1  0.5479790000000  0.5426420000000  0.4818390000000 1.0
C      1  0.4352250000000  0.4999100000000  0.4604040000000 1.0
C      1  0.5052170000000  0.4448530000000  0.5411030000000 1.0
C      1  0.4783570000000  0.5176500000000  0.4836100000000 1.0
C      1  0.4086570000000  0.4849970000000  0.5712260000000 1.0
C      1  0.5067240000000  0.5707980000000  0.4918990000000 1.0
C      1  0.5173560000000  0.4132960000000  0.4519210000000 1.0
C      1  0.4407210000000  0.4196300000000  0.5206530000000 1.0
C      1  0.4948210000000  0.4337250000000  0.4148540000000 1.0
C      1  0.4030940000000  0.5288510000000  0.5199900000000 1.0
C      1  0.5198230000000  0.5417080000000  0.4928280000000 1.0
C      1  0.5510310000000  0.4959700000000  0.5625570000000 1.0
C      1  0.4099030000000  0.5302560000000  0.4914360000000 1.0
C      1  0.4933500000000  0.4985420000000  0.5338320000000 1.0
C      1  0.5494830000000  0.5773290000000  0.5268320000000 1.0
C      1  0.5492580000000  0.4252210000000  0.5381650000000 1.0
C      1  0.5666550000000  0.5212640000000  0.5611360000000 1.0
C      1  0.5920160000000  0.5597670000000  0.4957850000000 1.0
C      1  0.5235080000000  0.4575850000000  0.5576310000000 1.0
C      1  0.4265710000000  0.4503670000000  0.4498020000000 1.0
C      1  0.4873250000000  0.4071100000000  0.4978240000000 1.0
C      1  0.5266870000000  0.4693080000000  0.4061110000000 1.0
C      1  0.5973840000000  0.5306100000000  0.5347710000000 1.0
C      1  0.4624180000000  0.5935960000000  0.4941190000000 1.0
C      1  0.5378710000000  0.4837880000000  0.5397810000000 1.0
C      1  0.5539090000000  0.5506750000000  0.5204260000000 1.0
C      1  0.4493980000000  0.5054840000000  0.4348180000000 1.0
C      1  0.5618370000000  0.5950400000000  0.5053470000000 1.0
C      1  0.5425690000000  0.4874920000000  0.5117550000000 1.0
C      1  0.4506440000000  0.4537730000000  0.5446410000000 1.0
C      1  0.5615500000000  0.4564440000000  0.4425800000000 1.0
C      1  0.6049490000000  0.5369020000000  0.4878650000000 1.0
C      1  0.4679250000000  0.5638130000000  0.5318650000000 1.0
C      1  0.5588740000000  0.5086560000000  0.4013280000000 1.0
C      1  0.4251760000000  0.4823740000000  0.5198450000000 1.0
C      1  0.5473370000000  0.5406690000000  0.5735720000000 1.0
C      1  0.5127240000000  0.4530860000000  0.4798700000000 1.0
C      1  0.4664810000000  0.4226510000000  0.4590210000000 1.0
C      1  0.4915560000000  0.4107290000000  0.4686930000000 1.0
C      1  0.5215310000000  0.4588050000000  0.5868370000000 1.0
C      1  0.5731610000000  0.4834110000000  0.4445030000000 1.0
C      1  0.4397780000000  0.4603280000000  0.4274330000000 1.0
C      1  0.4003010000000  0.4753980000000  0.4809360000000 1.0
C      1  0.4662470000000  0.4861040000000  0.5722810000000 1.0
C      1  0.5063220000000  0.5166540000000  0.4902780000000 1.0
C      1  0.4686590000000  0.4241100000000  0.5136710000000 1.0
C      1  0.4573130000000  0.5198030000000  0.5019560000000 1.0
C      1  0.5720460000000  0.5796530000000  0.4823650000000 1.0
C      1  0.4808840000000  0.4404590000000  0.4402210000000 1.0
C      1  0.4492730000000  0.5663220000000  0.4461240000000 1.0
C      1  0.5295180000000  0.4303610000000  0.4880440000000 1.0
C      1  0.4111800000000  0.5128350000000  0.5752770000000 1.0
C      1  0.4152000000000  0.4770640000000  0.4561680000000 1.0
C      1  0.5370320000000  0.5249910000000  0.4464700000000 1.0
C      1  0.5294000000000  0.4818240000000  0.6002160000000 1.0
C      1  0.4763490000000  0.4880210000000  0.4788400000000 1.0
C      1  0.5086490000000  0.3996410000000  0.5173800000000 1.0
C      1  0.4689190000000  0.5242650000000  0.4305110000000 1.0
C      1  0.5814250000000  0.5518000000000  0.5228320000000 1.0
C      1  0.6068250000000  0.5173930000000  0.5084010000000 1.0
C      1  0.5958130000000  0.4907110000000  0.5110320000000 1.0
C      1  0.4425340000000  0.5768000000000  0.5351060000000 1.0
C      1  0.4253780000000  0.5788680000000  0.4848100000000 1.0
C      1  0.4128000000000  0.5552790000000  0.4761240000000 1.0
END
