TITL C-884139-6216-354 6.00994506985981 125000 -20771.9118356767 0 0 137 (C1) n - 1
REM
REM in /home/nfs/bkarasulu/CARBON/AIRSS/Generating-Clusters/ReaxFF-fromJPCA2015/Units_Real/with-SteepDescent/Only-C1/SD-CG/Try1-3A/FIRE-CG
REM
REM
REM
REM
REM
REM ./C.cell (11c1c37f851c82e70ff6c80c92926a4b)
REM
REM compiler GCC version 9.2.1 20190827 (Red Hat 9.2.1-1)
REM options -cpp -mtune=generic -march=x86-64 -g -O0 -fpre-include=/usr/include/finclude/math-vector-fortran.h
REM seed -1797837420 -1883124175 -1136203859 1288748684 1340411555 -714360740 1451934272 186549267 -289286626 -65832116 421361511 63982508 -58052967 -1254810886 1544207029 -837656991 -499177898 844363283 1570698106 -1961591356 -469698948 -1374905349 -1044623314 -1799603488 96524184 -15850719 -185042025 1540553719 1694419476 513797119 245871141 -2091560265 1990023123
REM
CELL 1.54180   50.00000   50.00000   50.00000   90.00000   90.00000   90.00000
LATT -1
SFAC C  
C      1  0.5035520000000  0.5075090000000  0.3931780000000 1.0
C      1  0.4734990000000  0.5426610000000  0.4148740000000 1.0
C      1  0.4559010000000  0.5119980000000  0.5147080000000 1.0
C      1  0.4789650000000  0.5149170000000  0.4075370000000 1.0
C      1  0.4151970000000  0.4640950000000  0.4565820000000 1.0
C      1  0.5652470000000  0.4644290000000  0.4355340000000 1.0
C      1  0.4976530000000  0.5558240000000  0.4344770000000 1.0
C      1  0.4631350000000  0.4869600000000  0.5305500000000 1.0
C      1  0.5087960000000  0.4897760000000  0.5840110000000 1.0
C      1  0.5750700000000  0.4719860000000  0.5430230000000 1.0
C      1  0.5954360000000  0.4625960000000  0.4802450000000 1.0
C      1  0.4540910000000  0.4785140000000  0.5884370000000 1.0
C      1  0.5184400000000  0.5951330000000  0.4949700000000 1.0
C      1  0.4378280000000  0.4357540000000  0.5663910000000 1.0
C      1  0.5476840000000  0.4811460000000  0.4724430000000 1.0
C      1  0.5158870000000  0.4876390000000  0.5556690000000 1.0
C      1  0.4972220000000  0.4186700000000  0.5618640000000 1.0
C      1  0.4943850000000  0.5793770000000  0.4561770000000 1.0
C      1  0.5256060000000  0.5337250000000  0.5927150000000 1.0
C      1  0.5797590000000  0.4475610000000  0.5258900000000 1.0
C      1  0.5685900000000  0.5666330000000  0.4964110000000 1.0
C      1  0.4716060000000  0.5375500000000  0.5644600000000 1.0
C      1  0.5635420000000  0.4938680000000  0.5812230000000 1.0
C      1  0.4855980000000  0.4652150000000  0.4154800000000 1.0
C      1  0.5510060000000  0.5190960000000  0.5918790000000 1.0
C      1  0.5166430000000  0.4055810000000  0.4768290000000 1.0
C      1  0.5891070000000  0.4695050000000  0.4522890000000 1.0
C      1  0.5231370000000  0.5274760000000  0.3990540000000 1.0
C      1  0.5598470000000  0.4284340000000  0.5288650000000 1.0
C      1  0.5071550000000  0.4294540000000  0.4911010000000 1.0
C      1  0.4938370000000  0.4031570000000  0.4576110000000 1.0
C      1  0.5668210000000  0.4943850000000  0.4891210000000 1.0
C      1  0.4781100000000  0.5786580000000  0.4791100000000 1.0
C      1  0.4791770000000  0.4703420000000  0.4882090000000 1.0
C      1  0.4971310000000  0.4514610000000  0.5352460000000 1.0
C      1  0.5079030000000  0.4776850000000  0.3986130000000 1.0
C      1  0.4852480000000  0.4107050000000  0.5360720000000 1.0
C      1  0.5315940000000  0.4242500000000  0.4413860000000 1.0
C      1  0.4043850000000  0.5146110000000  0.5254890000000 1.0
C      1  0.5352670000000  0.4500170000000  0.5736150000000 1.0
C      1  0.5237450000000  0.4930820000000  0.4599810000000 1.0
C      1  0.4889120000000  0.4459410000000  0.5695710000000 1.0
C      1  0.4199420000000  0.4429690000000  0.5111680000000 1.0
C      1  0.5194740000000  0.5324830000000  0.5465910000000 1.0
C      1  0.4585440000000  0.4324320000000  0.4483160000000 1.0
C      1  0.5308910000000  0.4728110000000  0.5138230000000 1.0
C      1  0.5266760000000  0.5588630000000  0.4270300000000 1.0
C      1  0.5076850000000  0.4256080000000  0.5214260000000 1.0
C      1  0.5427750000000  0.4149050000000  0.4671250000000 1.0
C      1  0.5146710000000  0.4660340000000  0.4531120000000 1.0
C      1  0.5438460000000  0.5888990000000  0.5419580000000 1.0
C      1  0.4042380000000  0.4664110000000  0.5069220000000 1.0
C      1  0.5817620000000  0.5436640000000  0.5089410000000 1.0
C      1  0.5522690000000  0.5305020000000  0.4777820000000 1.0
C      1  0.4242640000000  0.4840480000000  0.4358440000000 1.0
C      1  0.4900210000000  0.5912620000000  0.5025420000000 1.0
C      1  0.4676730000000  0.4123260000000  0.4670880000000 1.0
C      1  0.4216490000000  0.5394070000000  0.4344710000000 1.0
C      1  0.5102740000000  0.4606410000000  0.5856060000000 1.0
C      1  0.4574620000000  0.5840380000000  0.5654790000000 1.0
C      1  0.4624910000000  0.5620180000000  0.5758750000000 1.0
C      1  0.5205910000000  0.4646590000000  0.5394080000000 1.0
C      1  0.5017640000000  0.5164200000000  0.5949450000000 1.0
C      1  0.5585500000000  0.4690230000000  0.5669140000000 1.0
C      1  0.4290390000000  0.5597820000000  0.4802680000000 1.0
C      1  0.4519680000000  0.5786320000000  0.5386830000000 1.0
C      1  0.5767010000000  0.5401910000000  0.4641120000000 1.0
C      1  0.5515660000000  0.5147310000000  0.5017200000000 1.0
C      1  0.4204960000000  0.5114490000000  0.4334430000000 1.0
C      1  0.5695290000000  0.5339360000000  0.5761710000000 1.0
C      1  0.4719850000000  0.5318300000000  0.5018460000000 1.0
C      1  0.5992400000000  0.4968440000000  0.4566840000000 1.0
C      1  0.3906520000000  0.5022570000000  0.4767130000000 1.0
C      1  0.5735690000000  0.5114550000000  0.4191820000000 1.0
C      1  0.4507990000000  0.5480790000000  0.4315730000000 1.0
C      1  0.5358290000000  0.4173530000000  0.5362550000000 1.0
C      1  0.3954370000000  0.5294000000000  0.4745200000000 1.0
C      1  0.4313420000000  0.4301840000000  0.4878680000000 1.0
C      1  0.4334320000000  0.4421260000000  0.4608110000000 1.0
C      1  0.4018810000000  0.4864370000000  0.5292350000000 1.0
C      1  0.4651940000000  0.5397180000000  0.4552130000000 1.0
C      1  0.5262860000000  0.4234160000000  0.5628250000000 1.0
C      1  0.4805620000000  0.4685010000000  0.5168000000000 1.0
C      1  0.4177530000000  0.5658980000000  0.5069730000000 1.0
C      1  0.3998770000000  0.4748210000000  0.4788970000000 1.0
C      1  0.5678980000000  0.5673660000000  0.4675490000000 1.0
C      1  0.5012510000000  0.5717320000000  0.5415840000000 1.0
C      1  0.5961980000000  0.4927510000000  0.4863830000000 1.0
C      1  0.5561060000000  0.5557990000000  0.5636050000000 1.0
C      1  0.5318330000000  0.5478800000000  0.4726230000000 1.0
C      1  0.5899160000000  0.5160250000000  0.5141450000000 1.0
C      1  0.4716750000000  0.4894310000000  0.4219200000000 1.0
C      1  0.5339700000000  0.4810110000000  0.4056430000000 1.0
C      1  0.4586860000000  0.4505460000000  0.5805060000000 1.0
C      1  0.5245840000000  0.5620670000000  0.5189980000000 1.0
C      1  0.4400460000000  0.4390600000000  0.5344640000000 1.0
C      1  0.5402140000000  0.5712880000000  0.4545750000000 1.0
C      1  0.4788940000000  0.5860930000000  0.5295550000000 1.0
C      1  0.5236780000000  0.5813870000000  0.5624160000000 1.0
C      1  0.5439250000000  0.5854580000000  0.5108570000000 1.0
C      1  0.5815490000000  0.5107760000000  0.5651070000000 1.0
C      1  0.5607080000000  0.4841310000000  0.4136880000000 1.0
C      1  0.4504220000000  0.5071670000000  0.5843240000000 1.0
C      1  0.4610610000000  0.4180830000000  0.5224140000000 1.0
C      1  0.4596310000000  0.5525680000000  0.4818880000000 1.0
C      1  0.4548280000000  0.4140770000000  0.4943150000000 1.0
C      1  0.4993810000000  0.4533140000000  0.4760430000000 1.0
C      1  0.5402320000000  0.4593020000000  0.4907230000000 1.0
C      1  0.5151470000000  0.5476040000000  0.4952610000000 1.0
C      1  0.5267880000000  0.5022750000000  0.5122120000000 1.0
C      1  0.4437990000000  0.4696420000000  0.5424830000000 1.0
C      1  0.5369900000000  0.5447150000000  0.4069600000000 1.0
C      1  0.4584410000000  0.4873650000000  0.4739280000000 1.0
C      1  0.4424420000000  0.5053100000000  0.4899350000000 1.0
C      1  0.5022490000000  0.4204960000000  0.4359080000000 1.0
C      1  0.4956230000000  0.5452010000000  0.5488820000000 1.0
C      1  0.5195040000000  0.5086200000000  0.5385850000000 1.0
C      1  0.4530690000000  0.4868390000000  0.4447460000000 1.0
C      1  0.5327840000000  0.5602150000000  0.5812090000000 1.0
C      1  0.5188660000000  0.5908370000000  0.4664910000000 1.0
C      1  0.5420810000000  0.5473340000000  0.5385140000000 1.0
C      1  0.5002620000000  0.5225150000000  0.4962940000000 1.0
C      1  0.5546380000000  0.4336870000000  0.4868570000000 1.0
C      1  0.4810560000000  0.4400590000000  0.4299940000000 1.0
C      1  0.4919710000000  0.5311420000000  0.4501780000000 1.0
C      1  0.4293600000000  0.5112890000000  0.5631370000000 1.0
C      1  0.4204290000000  0.5310050000000  0.5434820000000 1.0
C      1  0.5818350000000  0.4423730000000  0.4962580000000 1.0
C      1  0.5067780000000  0.5153890000000  0.4681450000000 1.0
C      1  0.5874610000000  0.5204610000000  0.4428140000000 1.0
C      1  0.4107810000000  0.5158050000000  0.4940960000000 1.0
C      1  0.5386290000000  0.4527100000000  0.4416930000000 1.0
C      1  0.4737230000000  0.5252940000000  0.5910120000000 1.0
C      1  0.4113190000000  0.5479660000000  0.4609280000000 1.0
C      1  0.5849410000000  0.4995550000000  0.5384190000000 1.0
C      1  0.4206100000000  0.4853890000000  0.5520890000000 1.0
C      1  0.4293750000000  0.5577610000000  0.5331160000000 1.0
END
