TITL C-883729-9652-426 -9.58753915487968 125000 -16079.3643814423 0 0 110 (C1) n - 1
REM
REM in /home/nfs/bkarasulu/CARBON/AIRSS/Generating-Clusters/ReaxFF-fromJPCA2015/Units_Real/with-SteepDescent/Only-C1/SD-CG/Try1-3A/FIRE-CG
REM
REM
REM
REM
REM
REM ./C.cell (11c1c37f851c82e70ff6c80c92926a4b)
REM
REM compiler GCC version 9.2.1 20190827 (Red Hat 9.2.1-1)
REM options -cpp -mtune=generic -march=x86-64 -g -O0 -fpre-include=/usr/include/finclude/math-vector-fortran.h
REM seed 479604000 1260472778 734204453 335784582 -1499808401 -1370544227 1932248779 -675950574 -2077242462 -610053179 -1766348424 -1829699463 -845712357 361183041 351859501 -1042860547 2053510473 -310314206 711461502 -1418975742 -1599348374 1820715987 -653003149 -31546250 1690471260 887791963 1574939287 518693592 -1324664264 -417386203 -18739043 -1828493553 1319860520
REM
CELL 1.54180   50.00000   50.00000   50.00000   90.00000   90.00000   90.00000
LATT -1
SFAC C  
C      1  0.4686230000000  0.4363670000000  0.5200910000000 1.0
C      1  0.4740390000000  0.5719800000000  0.4619570000000 1.0
C      1  0.5185350000000  0.5518000000000  0.5124920000000 1.0
C      1  0.5148850000000  0.5297090000000  0.4119210000000 1.0
C      1  0.5664550000000  0.5526830000000  0.5291970000000 1.0
C      1  0.4707360000000  0.4646850000000  0.5117840000000 1.0
C      1  0.5589120000000  0.5198620000000  0.5698600000000 1.0
C      1  0.5636250000000  0.4901480000000  0.5643560000000 1.0
C      1  0.4887310000000  0.5461200000000  0.4137020000000 1.0
C      1  0.4241780000000  0.4753620000000  0.5391620000000 1.0
C      1  0.5455190000000  0.5063700000000  0.4430100000000 1.0
C      1  0.4633360000000  0.4578740000000  0.4318820000000 1.0
C      1  0.4625470000000  0.5413910000000  0.4943600000000 1.0
C      1  0.4718500000000  0.4899320000000  0.5843740000000 1.0
C      1  0.5447640000000  0.5539040000000  0.4452560000000 1.0
C      1  0.5247290000000  0.5065900000000  0.5066120000000 1.0
C      1  0.5170250000000  0.4120250000000  0.5211090000000 1.0
C      1  0.5228110000000  0.5257490000000  0.5264010000000 1.0
C      1  0.5293340000000  0.5196580000000  0.5781050000000 1.0
C      1  0.5420610000000  0.4855020000000  0.5036280000000 1.0
C      1  0.5078190000000  0.5028480000000  0.4181890000000 1.0
C      1  0.4650370000000  0.5624190000000  0.5583310000000 1.0
C      1  0.4216110000000  0.5145740000000  0.4748980000000 1.0
C      1  0.5108990000000  0.4361930000000  0.5670340000000 1.0
C      1  0.5162240000000  0.4994010000000  0.4491840000000 1.0
C      1  0.5564560000000  0.4293150000000  0.4651830000000 1.0
C      1  0.5663600000000  0.4859950000000  0.4439750000000 1.0
C      1  0.4266070000000  0.4901440000000  0.4572570000000 1.0
C      1  0.4770480000000  0.5400490000000  0.5720810000000 1.0
C      1  0.5163750000000  0.5125870000000  0.5510840000000 1.0
C      1  0.4503210000000  0.4663110000000  0.5522030000000 1.0
C      1  0.5553530000000  0.5448890000000  0.5558050000000 1.0
C      1  0.4405060000000  0.4657920000000  0.5027660000000 1.0
C      1  0.4724810000000  0.5452380000000  0.4680820000000 1.0
C      1  0.4792970000000  0.5838270000000  0.5083620000000 1.0
C      1  0.5107850000000  0.4257160000000  0.5002980000000 1.0
C      1  0.5453810000000  0.5655350000000  0.5123780000000 1.0
C      1  0.4287780000000  0.5427040000000  0.4719910000000 1.0
C      1  0.4916920000000  0.4112760000000  0.4885930000000 1.0
C      1  0.5005060000000  0.5041880000000  0.4949790000000 1.0
C      1  0.4280300000000  0.5406440000000  0.5443290000000 1.0
C      1  0.4444430000000  0.5639090000000  0.5393300000000 1.0
C      1  0.4531370000000  0.4392780000000  0.4740930000000 1.0
C      1  0.4558520000000  0.5051370000000  0.4237630000000 1.0
C      1  0.4508600000000  0.5543410000000  0.4525230000000 1.0
C      1  0.4593130000000  0.4426230000000  0.5671660000000 1.0
C      1  0.5403820000000  0.5306650000000  0.4272640000000 1.0
C      1  0.4785420000000  0.5079190000000  0.5274050000000 1.0
C      1  0.5602650000000  0.5544760000000  0.4694390000000 1.0
C      1  0.5265670000000  0.4569470000000  0.4655560000000 1.0
C      1  0.5066070000000  0.4851680000000  0.5520460000000 1.0
C      1  0.5024110000000  0.5555500000000  0.5724440000000 1.0
C      1  0.4792630000000  0.4805570000000  0.5370800000000 1.0
C      1  0.5763430000000  0.5372610000000  0.5078410000000 1.0
C      1  0.5134570000000  0.5454960000000  0.4799050000000 1.0
C      1  0.4561040000000  0.4676460000000  0.5793160000000 1.0
C      1  0.4439230000000  0.4716970000000  0.4742420000000 1.0
C      1  0.5011770000000  0.5764640000000  0.5273010000000 1.0
C      1  0.5654950000000  0.4343840000000  0.5062450000000 1.0
C      1  0.5461700000000  0.4174320000000  0.5211350000000 1.0
C      1  0.4621080000000  0.5154310000000  0.5756730000000 1.0
C      1  0.5202720000000  0.5863810000000  0.4749700000000 1.0
C      1  0.5602890000000  0.4668190000000  0.4207390000000 1.0
C      1  0.5271530000000  0.5870810000000  0.5469800000000 1.0
C      1  0.5212180000000  0.4521740000000  0.4939350000000 1.0
C      1  0.5190020000000  0.4188840000000  0.4530270000000 1.0
C      1  0.5372350000000  0.4349480000000  0.4476420000000 1.0
C      1  0.5375370000000  0.4493660000000  0.4180430000000 1.0
C      1  0.5699830000000  0.4486600000000  0.4808010000000 1.0
C      1  0.5471840000000  0.5760580000000  0.4854530000000 1.0
C      1  0.5721340000000  0.4967320000000  0.5394730000000 1.0
C      1  0.5754480000000  0.4779790000000  0.4709160000000 1.0
C      1  0.5024940000000  0.4177410000000  0.5482650000000 1.0
C      1  0.4873200000000  0.4813930000000  0.4850810000000 1.0
C      1  0.5817760000000  0.5017770000000  0.4862780000000 1.0
C      1  0.4655700000000  0.4916040000000  0.4701110000000 1.0
C      1  0.5070680000000  0.5199910000000  0.4719880000000 1.0
C      1  0.5064180000000  0.4750130000000  0.4637390000000 1.0
C      1  0.5180150000000  0.5048540000000  0.6002400000000 1.0
C      1  0.4432340000000  0.4813080000000  0.4345170000000 1.0
C      1  0.4120150000000  0.5210800000000  0.5285950000000 1.0
C      1  0.4360220000000  0.5558130000000  0.4967680000000 1.0
C      1  0.4917190000000  0.4171010000000  0.4592050000000 1.0
C      1  0.4643520000000  0.4225900000000  0.4950040000000 1.0
C      1  0.4152260000000  0.5075620000000  0.5028280000000 1.0
C      1  0.4999040000000  0.4808400000000  0.4012470000000 1.0
C      1  0.5217780000000  0.4578800000000  0.5809090000000 1.0
C      1  0.5456230000000  0.4659260000000  0.5655810000000 1.0
C      1  0.5714960000000  0.4906440000000  0.5120980000000 1.0
C      1  0.5776860000000  0.5320100000000  0.4814800000000 1.0
C      1  0.5565440000000  0.4409070000000  0.5342900000000 1.0
C      1  0.5302880000000  0.5627420000000  0.5619230000000 1.0
C      1  0.4829610000000  0.4584010000000  0.4106230000000 1.0
C      1  0.5190000000000  0.5637970000000  0.4567710000000 1.0
C      1  0.4686800000000  0.4356500000000  0.4507450000000 1.0
C      1  0.4510960000000  0.5751360000000  0.5132730000000 1.0
C      1  0.4904380000000  0.5853370000000  0.4815490000000 1.0
C      1  0.4618340000000  0.5337260000000  0.4287150000000 1.0
C      1  0.4206840000000  0.4815180000000  0.5128220000000 1.0
C      1  0.4704800000000  0.5112150000000  0.4486420000000 1.0
C      1  0.5344570000000  0.4591430000000  0.5404900000000 1.0
C      1  0.5014100000000  0.4834740000000  0.5836590000000 1.0
C      1  0.4743530000000  0.4268100000000  0.5476250000000 1.0
C      1  0.4893810000000  0.5747420000000  0.5549400000000 1.0
C      1  0.4705640000000  0.5239880000000  0.5121870000000 1.0
C      1  0.4891260000000  0.5701480000000  0.4055560000000 1.0
C      1  0.4353240000000  0.5193500000000  0.5634810000000 1.0
C      1  0.4167980000000  0.5011170000000  0.5497120000000 1.0
C      1  0.5121070000000  0.4543720000000  0.4045610000000 1.0
C      1  0.5266270000000  0.4684810000000  0.5164960000000 1.0
END
