TITL C-883727-9645-64 3.85276448927722 125000 -3065.40797500551 0 0 22 (C1) n - 1
REM
REM in /home/nfs/bkarasulu/CARBON/AIRSS/Generating-Clusters/ReaxFF-fromJPCA2015/Units_Real/with-SteepDescent/Only-C1/SD-CG/Try1-3A/FIRE-CG
REM
REM
REM
REM
REM
REM ./C.cell (11c1c37f851c82e70ff6c80c92926a4b)
REM
REM compiler GCC version 9.2.1 20190827 (Red Hat 9.2.1-1)
REM options -cpp -mtune=generic -march=x86-64 -g -O0 -fpre-include=/usr/include/finclude/math-vector-fortran.h
REM seed -116782497 1235998887 1307240979 1035732953 1032498287 2020198081 -1961332317 -325025289 -937080713 997759813 507147928 1744391483 -1797864804 50914485 -1254029926 1464021198 1382899011 -559484592 1962623497 1222359727 -14332124 -1967028352 -622228201 337322386 442579408 1523090227 746554075 539358387 -1190400463 409880689 1454823976 -781888298 -1126478339
REM
CELL 1.54180   50.00000   50.00000   50.00000   90.00000   90.00000   90.00000
LATT -1
SFAC C  
C      1  0.5335390000000  0.5177630000000  0.5140550000000 1.0
C      1  0.4576170000000  0.5523950000000  0.4887610000000 1.0
C      1  0.4872980000000  0.5142700000000  0.5538510000000 1.0
C      1  0.4830540000000  0.4927080000000  0.4449000000000 1.0
C      1  0.4862600000000  0.5349610000000  0.5318650000000 1.0
C      1  0.4990110000000  0.5201750000000  0.4503720000000 1.0
C      1  0.4951240000000  0.4612570000000  0.4877500000000 1.0
C      1  0.5475940000000  0.4832790000000  0.4967170000000 1.0
C      1  0.4639980000000  0.4364440000000  0.5199800000000 1.0
C      1  0.5116170000000  0.4528020000000  0.5107640000000 1.0
C      1  0.5021370000000  0.4796810000000  0.4628280000000 1.0
C      1  0.5187950000000  0.5043430000000  0.4651530000000 1.0
C      1  0.4700840000000  0.5672660000000  0.4642000000000 1.0
C      1  0.5113500000000  0.4968830000000  0.5546300000000 1.0
C      1  0.4613530000000  0.5419520000000  0.5147950000000 1.0
C      1  0.5398130000000  0.5080650000000  0.4858900000000 1.0
C      1  0.4933390000000  0.4390760000000  0.5301820000000 1.0
C      1  0.4727960000000  0.4510360000000  0.4963310000000 1.0
C      1  0.5362980000000  0.4692650000000  0.5182360000000 1.0
C      1  0.5120230000000  0.5384300000000  0.5185010000000 1.0
C      1  0.4848840000000  0.5431720000000  0.4571250000000 1.0
C      1  0.5320150000000  0.4947760000000  0.5331120000000 1.0
END
