TITL C-884137-4758-217 -2.76436036451809 125000 -11478.1156164724 0 0 77 (C1) n - 1
REM
REM in /home/nfs/bkarasulu/CARBON/AIRSS/Generating-Clusters/ReaxFF-fromJPCA2015/Units_Real/with-SteepDescent/Only-C1/SD-CG/Try1-3A/FIRE-CG
REM
REM
REM
REM
REM
REM ./C.cell (11c1c37f851c82e70ff6c80c92926a4b)
REM
REM compiler GCC version 9.2.1 20190827 (Red Hat 9.2.1-1)
REM options -cpp -mtune=generic -march=x86-64 -g -O0 -fpre-include=/usr/include/finclude/math-vector-fortran.h
REM seed -1468702520 1054353829 -830823029 -1491085127 488421981 1606227556 -2051414063 1353101990 -1020881192 1062112943 1865766110 1518174996 -1485245638 -160579345 2138668709 -51882466 875851619 631009835 -2116338167 908684312 593354393 -1325920879 -2057964918 -600148762 -1313286045 1252287524 -1258970154 1709643409 -342845293 -514547914 371602674 1568066411 -1886265636
REM
CELL 1.54180   50.00000   50.00000   50.00000   90.00000   90.00000   90.00000
LATT -1
SFAC C  
C      1  0.5327230000000  0.4900730000000  0.5510140000000 1.0
C      1  0.4460530000000  0.4933200000000  0.4326490000000 1.0
C      1  0.5328340000000  0.5254560000000  0.4413150000000 1.0
C      1  0.5314630000000  0.5230310000000  0.4975000000000 1.0
C      1  0.5331370000000  0.4301890000000  0.4696280000000 1.0
C      1  0.4358780000000  0.4889830000000  0.5352060000000 1.0
C      1  0.5464360000000  0.5623300000000  0.5465260000000 1.0
C      1  0.5847010000000  0.5014070000000  0.5334810000000 1.0
C      1  0.5758130000000  0.4578530000000  0.4705550000000 1.0
C      1  0.4748150000000  0.5077580000000  0.5148680000000 1.0
C      1  0.5716070000000  0.5234640000000  0.5448440000000 1.0
C      1  0.4426900000000  0.5443550000000  0.4808860000000 1.0
C      1  0.4883020000000  0.5443440000000  0.5006420000000 1.0
C      1  0.4346290000000  0.5365770000000  0.5084770000000 1.0
C      1  0.4876450000000  0.5856230000000  0.5095020000000 1.0
C      1  0.5092710000000  0.4446250000000  0.5456400000000 1.0
C      1  0.4204060000000  0.4667570000000  0.5244430000000 1.0
C      1  0.5684710000000  0.5506900000000  0.5310980000000 1.0
C      1  0.5140390000000  0.5660820000000  0.4692060000000 1.0
C      1  0.4563820000000  0.4667390000000  0.5508480000000 1.0
C      1  0.4868790000000  0.5154740000000  0.5425910000000 1.0
C      1  0.5456920000000  0.5163160000000  0.5577440000000 1.0
C      1  0.5147350000000  0.5493650000000  0.4459100000000 1.0
C      1  0.5059970000000  0.5639770000000  0.5146910000000 1.0
C      1  0.5594940000000  0.4793900000000  0.4588080000000 1.0
C      1  0.5289300000000  0.4589540000000  0.5616940000000 1.0
C      1  0.4389420000000  0.4466070000000  0.5357160000000 1.0
C      1  0.4471750000000  0.4837190000000  0.5748790000000 1.0
C      1  0.4677210000000  0.4381020000000  0.4937190000000 1.0
C      1  0.4766000000000  0.5561910000000  0.5533690000000 1.0
C      1  0.5116460000000  0.5053170000000  0.4870850000000 1.0
C      1  0.4486740000000  0.5567140000000  0.5217810000000 1.0
C      1  0.5584390000000  0.4421580000000  0.5036180000000 1.0
C      1  0.4943750000000  0.4362660000000  0.4511200000000 1.0
C      1  0.4791990000000  0.5238230000000  0.4314000000000 1.0
C      1  0.4513790000000  0.5219640000000  0.4325420000000 1.0
C      1  0.4627450000000  0.5306620000000  0.5585970000000 1.0
C      1  0.5019800000000  0.5412590000000  0.5506220000000 1.0
C      1  0.4827890000000  0.4826400000000  0.5048370000000 1.0
C      1  0.5822440000000  0.4585890000000  0.5000820000000 1.0
C      1  0.5592330000000  0.4348420000000  0.4765430000000 1.0
C      1  0.4331950000000  0.4957350000000  0.4589640000000 1.0
C      1  0.4724230000000  0.4794030000000  0.4267540000000 1.0
C      1  0.5146200000000  0.4237690000000  0.4921230000000 1.0
C      1  0.5203500000000  0.4364730000000  0.5181810000000 1.0
C      1  0.5559080000000  0.5603160000000  0.5060820000000 1.0
C      1  0.5022140000000  0.4905820000000  0.5525080000000 1.0
C      1  0.4381610000000  0.5252940000000  0.4589310000000 1.0
C      1  0.4524520000000  0.5126140000000  0.5799620000000 1.0
C      1  0.5222830000000  0.4473060000000  0.4490450000000 1.0
C      1  0.4889450000000  0.4247730000000  0.4793830000000 1.0
C      1  0.5316280000000  0.4618910000000  0.5075270000000 1.0
C      1  0.4398670000000  0.4762850000000  0.4797790000000 1.0
C      1  0.4259480000000  0.4358770000000  0.4974730000000 1.0
C      1  0.4477410000000  0.4281470000000  0.5139260000000 1.0
C      1  0.4458830000000  0.5096840000000  0.5176400000000 1.0
C      1  0.4681430000000  0.5744040000000  0.5302630000000 1.0
C      1  0.5482550000000  0.4833880000000  0.5216810000000 1.0
C      1  0.4684640000000  0.5587210000000  0.4853480000000 1.0
C      1  0.5339050000000  0.4745770000000  0.4454980000000 1.0
C      1  0.4886070000000  0.4662350000000  0.5500250000000 1.0
C      1  0.5300390000000  0.5405920000000  0.5589820000000 1.0
C      1  0.5209250000000  0.4989830000000  0.4354380000000 1.0
C      1  0.4935310000000  0.5006250000000  0.4262860000000 1.0
C      1  0.5398530000000  0.5482060000000  0.4826820000000 1.0
C      1  0.4891800000000  0.5374090000000  0.4533710000000 1.0
C      1  0.4822890000000  0.4570010000000  0.4390470000000 1.0
C      1  0.5533010000000  0.5053300000000  0.5017680000000 1.0
C      1  0.5072720000000  0.4777750000000  0.4942560000000 1.0
C      1  0.5624980000000  0.5048040000000  0.4735970000000 1.0
C      1  0.4898360000000  0.5236100000000  0.4804250000000 1.0
C      1  0.5340420000000  0.5721430000000  0.5212500000000 1.0
C      1  0.4673510000000  0.4677010000000  0.4872950000000 1.0
C      1  0.4892700000000  0.5794980000000  0.4797340000000 1.0
C      1  0.5790540000000  0.4766280000000  0.5233350000000 1.0
C      1  0.5524800000000  0.5292090000000  0.4616110000000 1.0
C      1  0.4179210000000  0.4630250000000  0.4941580000000 1.0
END
