TITL C-883737-113-335 39.0690566590099 125000 -17856.0948130686 0 0 119 (C1) n - 1
REM
REM in /home/nfs/bkarasulu/CARBON/AIRSS/Generating-Clusters/ReaxFF-fromJPCA2015/Units_Real/with-SteepDescent/Only-C1/SD-CG/Try1-3A/FIRE-CG
REM
REM
REM
REM
REM
REM ./C.cell (11c1c37f851c82e70ff6c80c92926a4b)
REM
REM compiler GCC version 9.2.1 20190827 (Red Hat 9.2.1-1)
REM options -cpp -mtune=generic -march=x86-64 -g -O0 -fpre-include=/usr/include/finclude/math-vector-fortran.h
REM seed 124272276 1862525564 1579809961 -678091696 374535057 -322335099 -329507932 -2101368136 2011431722 1153122403 111481552 -1642384405 468566211 -959056724 675229635 -404248010 -970062616 1752341410 -2119541030 1058336305 -833640744 -778451272 429802571 1578411669 -1848853326 -1249382055 -1388304206 -1127652472 742914587 -1427815149 982498530 -178139259 -1280127779
REM
CELL 1.54180   50.00000   50.00000   50.00000   90.00000   90.00000   90.00000
LATT -1
SFAC C  
C      1  0.4768800000000  0.4073980000000  0.4922510000000 1.0
C      1  0.4102590000000  0.5169670000000  0.4918000000000 1.0
C      1  0.5329430000000  0.4494720000000  0.4350740000000 1.0
C      1  0.4058400000000  0.4797940000000  0.5268590000000 1.0
C      1  0.5836070000000  0.5393320000000  0.5114040000000 1.0
C      1  0.4158170000000  0.4760450000000  0.4651210000000 1.0
C      1  0.5204390000000  0.5735430000000  0.4302570000000 1.0
C      1  0.4223540000000  0.4279770000000  0.4857190000000 1.0
C      1  0.5045620000000  0.4496720000000  0.4987210000000 1.0
C      1  0.4461150000000  0.5121510000000  0.5792280000000 1.0
C      1  0.5784890000000  0.5291940000000  0.4576710000000 1.0
C      1  0.5027030000000  0.5555120000000  0.4162860000000 1.0
C      1  0.4981620000000  0.5116960000000  0.5824320000000 1.0
C      1  0.5421090000000  0.4952480000000  0.4130920000000 1.0
C      1  0.5046430000000  0.4848090000000  0.5911720000000 1.0
C      1  0.4394860000000  0.5551080000000  0.4889220000000 1.0
C      1  0.4438750000000  0.5467610000000  0.4614870000000 1.0
C      1  0.4534900000000  0.4521040000000  0.5018780000000 1.0
C      1  0.4258950000000  0.4557000000000  0.4869910000000 1.0
C      1  0.5738090000000  0.4646410000000  0.5399480000000 1.0
C      1  0.4854320000000  0.5028430000000  0.4623310000000 1.0
C      1  0.3926690000000  0.4988270000000  0.5090450000000 1.0
C      1  0.4558590000000  0.4647870000000  0.4409570000000 1.0
C      1  0.5614700000000  0.4765660000000  0.4911170000000 1.0
C      1  0.5245310000000  0.4326020000000  0.5391630000000 1.0
C      1  0.4334410000000  0.5117930000000  0.5523640000000 1.0
C      1  0.5641920000000  0.5667480000000  0.4863960000000 1.0
C      1  0.4797660000000  0.4182200000000  0.5672130000000 1.0
C      1  0.5795530000000  0.4525900000000  0.4569790000000 1.0
C      1  0.4726680000000  0.5508470000000  0.5665990000000 1.0
C      1  0.5398420000000  0.4817590000000  0.4722420000000 1.0
C      1  0.5211050000000  0.5451130000000  0.5566540000000 1.0
C      1  0.4346990000000  0.4866680000000  0.5353360000000 1.0
C      1  0.5282600000000  0.5673500000000  0.5185280000000 1.0
C      1  0.4504760000000  0.4191690000000  0.5024420000000 1.0
C      1  0.5813460000000  0.5045180000000  0.4400890000000 1.0
C      1  0.4995510000000  0.5004500000000  0.5304040000000 1.0
C      1  0.4541960000000  0.5781850000000  0.5023780000000 1.0
C      1  0.5611020000000  0.5414500000000  0.4375990000000 1.0
C      1  0.5235170000000  0.5952660000000  0.4737040000000 1.0
C      1  0.4571220000000  0.4625510000000  0.5320290000000 1.0
C      1  0.5475860000000  0.5035310000000  0.5270230000000 1.0
C      1  0.4501680000000  0.5562550000000  0.5476610000000 1.0
C      1  0.4814420000000  0.4436840000000  0.4509410000000 1.0
C      1  0.5946080000000  0.4542500000000  0.4815940000000 1.0
C      1  0.4744880000000  0.5550600000000  0.4218410000000 1.0
C      1  0.5505150000000  0.5467110000000  0.5589020000000 1.0
C      1  0.5080830000000  0.5898790000000  0.4511970000000 1.0
C      1  0.4934520000000  0.4027900000000  0.5169080000000 1.0
C      1  0.4503750000000  0.4139470000000  0.5316420000000 1.0
C      1  0.4599830000000  0.5777890000000  0.5309180000000 1.0
C      1  0.4859330000000  0.5423540000000  0.5042360000000 1.0
C      1  0.5154120000000  0.5147540000000  0.5572830000000 1.0
C      1  0.4252980000000  0.5373020000000  0.5067140000000 1.0
C      1  0.5013720000000  0.5599840000000  0.5193220000000 1.0
C      1  0.5218400000000  0.4094620000000  0.5203150000000 1.0
C      1  0.4891920000000  0.5798280000000  0.5344430000000 1.0
C      1  0.4659320000000  0.4841360000000  0.4211240000000 1.0
C      1  0.4542710000000  0.4975890000000  0.4880990000000 1.0
C      1  0.5952270000000  0.4578520000000  0.5076710000000 1.0
C      1  0.4254280000000  0.4615070000000  0.4412030000000 1.0
C      1  0.5762580000000  0.4754040000000  0.4396090000000 1.0
C      1  0.5679620000000  0.4553980000000  0.5141110000000 1.0
C      1  0.5716910000000  0.5427580000000  0.5382750000000 1.0
C      1  0.5164600000000  0.4719720000000  0.4846860000000 1.0
C      1  0.4493810000000  0.4853610000000  0.5814560000000 1.0
C      1  0.5327200000000  0.4786790000000  0.5971990000000 1.0
C      1  0.4791360000000  0.4558180000000  0.4843660000000 1.0
C      1  0.5508660000000  0.5279170000000  0.5811600000000 1.0
C      1  0.5046900000000  0.5974010000000  0.5006490000000 1.0
C      1  0.5718100000000  0.5174780000000  0.5252490000000 1.0
C      1  0.5011000000000  0.4357660000000  0.5761520000000 1.0
C      1  0.4980450000000  0.5638000000000  0.5587270000000 1.0
C      1  0.4556410000000  0.4343290000000  0.5729420000000 1.0
C      1  0.5514760000000  0.4695050000000  0.4244320000000 1.0
C      1  0.4367010000000  0.5197580000000  0.4485910000000 1.0
C      1  0.5184450000000  0.5438810000000  0.4782100000000 1.0
C      1  0.4170640000000  0.5053950000000  0.4662020000000 1.0
C      1  0.5529840000000  0.4379270000000  0.4535720000000 1.0
C      1  0.4526660000000  0.5098320000000  0.4230540000000 1.0
C      1  0.5417860000000  0.4993280000000  0.5532530000000 1.0
C      1  0.5237150000000  0.5049590000000  0.5130470000000 1.0
C      1  0.5063120000000  0.5124710000000  0.4463330000000 1.0
C      1  0.4534020000000  0.5022040000000  0.5128680000000 1.0
C      1  0.5387460000000  0.5548940000000  0.4959740000000 1.0
C      1  0.4716730000000  0.5279250000000  0.4129050000000 1.0
C      1  0.4819720000000  0.5782000000000  0.4642350000000 1.0
C      1  0.5302700000000  0.5066750000000  0.4608750000000 1.0
C      1  0.4731360000000  0.5264350000000  0.5817330000000 1.0
C      1  0.4902560000000  0.5494220000000  0.4764770000000 1.0
C      1  0.5263190000000  0.5975660000000  0.5215010000000 1.0
C      1  0.5619390000000  0.5160110000000  0.4213260000000 1.0
C      1  0.5292040000000  0.4353250000000  0.5683140000000 1.0
C      1  0.5467690000000  0.5668280000000  0.4411900000000 1.0
C      1  0.4631680000000  0.5625140000000  0.4476520000000 1.0
C      1  0.5056670000000  0.4519750000000  0.5279060000000 1.0
C      1  0.4950610000000  0.4769450000000  0.4177000000000 1.0
C      1  0.4915760000000  0.4819400000000  0.4793550000000 1.0
C      1  0.5441390000000  0.4576400000000  0.5800500000000 1.0
C      1  0.5353800000000  0.4138530000000  0.4954600000000 1.0
C      1  0.4327410000000  0.5359510000000  0.5360120000000 1.0
C      1  0.4769740000000  0.5914470000000  0.4913610000000 1.0
C      1  0.5438580000000  0.5050800000000  0.5938200000000 1.0
C      1  0.4454470000000  0.4387400000000  0.5462440000000 1.0
C      1  0.4574660000000  0.4948980000000  0.4603410000000 1.0
C      1  0.4900740000000  0.4643260000000  0.5736250000000 1.0
C      1  0.5442210000000  0.4223740000000  0.4759960000000 1.0
C      1  0.4829150000000  0.4176040000000  0.4654750000000 1.0
C      1  0.4870850000000  0.4708600000000  0.5408390000000 1.0
C      1  0.4788150000000  0.5171110000000  0.5176120000000 1.0
C      1  0.4766440000000  0.4049230000000  0.5406620000000 1.0
C      1  0.5040750000000  0.4541090000000  0.4334010000000 1.0
C      1  0.5823280000000  0.5442520000000  0.4826030000000 1.0
C      1  0.5591300000000  0.4752140000000  0.5614710000000 1.0
C      1  0.4606740000000  0.4608150000000  0.5852430000000 1.0
C      1  0.5014350000000  0.5239830000000  0.4185300000000 1.0
C      1  0.5137010000000  0.4973730000000  0.4083210000000 1.0
C      1  0.5486340000000  0.5820150000000  0.4662370000000 1.0
C      1  0.5253170000000  0.5173460000000  0.4864970000000 1.0
END
