TITL C-884136-4169-336 16.5874486876062 125000 -27442.3501781321 0 0 184 (C1) n - 1
REM
REM in /home/nfs/bkarasulu/CARBON/AIRSS/Generating-Clusters/ReaxFF-fromJPCA2015/Units_Real/with-SteepDescent/Only-C1/SD-CG/Try1-3A/FIRE-CG
REM
REM
REM
REM
REM
REM ./C.cell (11c1c37f851c82e70ff6c80c92926a4b)
REM
REM compiler GCC version 9.2.1 20190827 (Red Hat 9.2.1-1)
REM options -cpp -mtune=generic -march=x86-64 -g -O0 -fpre-include=/usr/include/finclude/math-vector-fortran.h
REM seed 1676504040 116356789 1397398165 563311978 -2016705981 1016610799 898468910 -2022832075 -1336375032 1163270265 957011415 1561360580 1774853600 -134724890 976291809 1783371479 -436614389 -503550838 1145069636 862135298 -1606367939 -1918304084 -2124923397 -1559680049 -1929051001 -863135628 -1461286976 -1220187092 500425092 -1902541120 -1372231037 903202063 1400017139
REM
CELL 1.54180   50.00000   50.00000   50.00000   90.00000   90.00000   90.00000
LATT -1
SFAC C  
C      1  0.4984430000000  0.5396690000000  0.4309980000000 1.0
C      1  0.6024300000000  0.4924450000000  0.4795390000000 1.0
C      1  0.4920180000000  0.4939020000000  0.4692280000000 1.0
C      1  0.4492230000000  0.5367540000000  0.5168570000000 1.0
C      1  0.4269970000000  0.4553200000000  0.4121870000000 1.0
C      1  0.3937660000000  0.4671500000000  0.5000290000000 1.0
C      1  0.4548510000000  0.4089920000000  0.4769860000000 1.0
C      1  0.5354390000000  0.5582440000000  0.4857860000000 1.0
C      1  0.4949930000000  0.5409000000000  0.5324200000000 1.0
C      1  0.4335300000000  0.5271780000000  0.4625570000000 1.0
C      1  0.5738610000000  0.4578980000000  0.4248890000000 1.0
C      1  0.5732910000000  0.4953260000000  0.4871650000000 1.0
C      1  0.5370660000000  0.5087840000000  0.4032390000000 1.0
C      1  0.4503750000000  0.5165970000000  0.5947460000000 1.0
C      1  0.5163440000000  0.5554450000000  0.4628340000000 1.0
C      1  0.3929010000000  0.4573980000000  0.4527070000000 1.0
C      1  0.5900260000000  0.5159800000000  0.5216820000000 1.0
C      1  0.5613260000000  0.5964290000000  0.5112340000000 1.0
C      1  0.5695490000000  0.5192810000000  0.5024700000000 1.0
C      1  0.5300950000000  0.4189110000000  0.5433720000000 1.0
C      1  0.4356460000000  0.4819810000000  0.5179830000000 1.0
C      1  0.4801530000000  0.4316260000000  0.4473670000000 1.0
C      1  0.4425390000000  0.4559560000000  0.4680050000000 1.0
C      1  0.5432280000000  0.4896480000000  0.5442240000000 1.0
C      1  0.5061610000000  0.4240730000000  0.5594280000000 1.0
C      1  0.4601780000000  0.4259510000000  0.5687880000000 1.0
C      1  0.4499070000000  0.5895350000000  0.5064690000000 1.0
C      1  0.4149790000000  0.5616980000000  0.5006650000000 1.0
C      1  0.5404650000000  0.5374760000000  0.5395320000000 1.0
C      1  0.4945070000000  0.5671970000000  0.4243460000000 1.0
C      1  0.4908980000000  0.6131200000000  0.4923280000000 1.0
C      1  0.5797350000000  0.5590200000000  0.5443430000000 1.0
C      1  0.5123750000000  0.5868820000000  0.4551680000000 1.0
C      1  0.5768700000000  0.4230010000000  0.5107660000000 1.0
C      1  0.5263060000000  0.5368450000000  0.4420410000000 1.0
C      1  0.5536880000000  0.4763860000000  0.5938690000000 1.0
C      1  0.5399710000000  0.4418520000000  0.4769480000000 1.0
C      1  0.4984410000000  0.4938240000000  0.4424720000000 1.0
C      1  0.5289150000000  0.4874550000000  0.4935260000000 1.0
C      1  0.5587080000000  0.4351450000000  0.4177570000000 1.0
C      1  0.4503730000000  0.5653340000000  0.5907030000000 1.0
C      1  0.4905800000000  0.5423240000000  0.4739860000000 1.0
C      1  0.3853180000000  0.4770030000000  0.4736390000000 1.0
C      1  0.4697540000000  0.4659390000000  0.5479680000000 1.0
C      1  0.4665820000000  0.5722360000000  0.4303070000000 1.0
C      1  0.4866500000000  0.3985520000000  0.4746050000000 1.0
C      1  0.5103860000000  0.4460040000000  0.6024030000000 1.0
C      1  0.4765580000000  0.5917300000000  0.5639830000000 1.0
C      1  0.5289960000000  0.4705460000000  0.6088560000000 1.0
C      1  0.5835150000000  0.4662660000000  0.5536720000000 1.0
C      1  0.4945660000000  0.5771200000000  0.5823620000000 1.0
C      1  0.5996520000000  0.4679400000000  0.4626120000000 1.0
C      1  0.5546830000000  0.5384730000000  0.5836210000000 1.0
C      1  0.4773640000000  0.5403250000000  0.5541690000000 1.0
C      1  0.4303230000000  0.5513310000000  0.4486070000000 1.0
C      1  0.4922480000000  0.4680870000000  0.4782750000000 1.0
C      1  0.4201620000000  0.5445020000000  0.5643250000000 1.0
C      1  0.5727080000000  0.4872930000000  0.5745180000000 1.0
C      1  0.5718190000000  0.5606630000000  0.4247810000000 1.0
C      1  0.5833030000000  0.5087110000000  0.4349450000000 1.0
C      1  0.5487800000000  0.5453730000000  0.4207410000000 1.0
C      1  0.5271810000000  0.5061760000000  0.4454050000000 1.0
C      1  0.5708850000000  0.5165730000000  0.5723690000000 1.0
C      1  0.4462540000000  0.4166820000000  0.5523500000000 1.0
C      1  0.5098700000000  0.5208880000000  0.3976620000000 1.0
C      1  0.5385680000000  0.3887350000000  0.5169070000000 1.0
C      1  0.5972420000000  0.5174760000000  0.4589880000000 1.0
C      1  0.4813630000000  0.4537140000000  0.4020420000000 1.0
C      1  0.4325580000000  0.5069820000000  0.4017760000000 1.0
C      1  0.4467230000000  0.4845340000000  0.4693440000000 1.0
C      1  0.4216490000000  0.4255780000000  0.5136550000000 1.0
C      1  0.4906080000000  0.4902220000000  0.5199200000000 1.0
C      1  0.5197470000000  0.6161540000000  0.4952040000000 1.0
C      1  0.4939750000000  0.4983030000000  0.5928200000000 1.0
C      1  0.5500100000000  0.4589530000000  0.5180040000000 1.0
C      1  0.5889730000000  0.4778270000000  0.4363750000000 1.0
C      1  0.4273750000000  0.4373750000000  0.5421660000000 1.0
C      1  0.5380960000000  0.4688200000000  0.5665070000000 1.0
C      1  0.4887150000000  0.6015990000000  0.5401770000000 1.0
C      1  0.4240130000000  0.5688510000000  0.4726090000000 1.0
C      1  0.5300670000000  0.3934930000000  0.4920510000000 1.0
C      1  0.5584900000000  0.4163700000000  0.4410640000000 1.0
C      1  0.5185130000000  0.5914450000000  0.5392370000000 1.0
C      1  0.5292950000000  0.4792230000000  0.5209510000000 1.0
C      1  0.4285340000000  0.5695050000000  0.5503420000000 1.0
C      1  0.4883850000000  0.6005640000000  0.4643090000000 1.0
C      1  0.4642790000000  0.5217720000000  0.4962180000000 1.0
C      1  0.4433660000000  0.5888750000000  0.4749270000000 1.0
C      1  0.4982090000000  0.5403030000000  0.6002210000000 1.0
C      1  0.4898360000000  0.4642040000000  0.5065160000000 1.0
C      1  0.4498340000000  0.4962190000000  0.4954100000000 1.0
C      1  0.5926660000000  0.4430860000000  0.4762010000000 1.0
C      1  0.5285790000000  0.5149070000000  0.4909930000000 1.0
C      1  0.5627980000000  0.5621570000000  0.5676500000000 1.0
C      1  0.4889080000000  0.5167220000000  0.5102980000000 1.0
C      1  0.4476170000000  0.5511150000000  0.4239280000000 1.0
C      1  0.4335420000000  0.4701320000000  0.5795670000000 1.0
C      1  0.6016200000000  0.5567150000000  0.4493790000000 1.0
C      1  0.5367760000000  0.5660160000000  0.5561050000000 1.0
C      1  0.4629890000000  0.5903160000000  0.4539070000000 1.0
C      1  0.4449990000000  0.4111000000000  0.5054840000000 1.0
C      1  0.4750830000000  0.6067920000000  0.5153050000000 1.0
C      1  0.5633050000000  0.5206200000000  0.4155300000000 1.0
C      1  0.4594740000000  0.5218880000000  0.5424590000000 1.0
C      1  0.4411530000000  0.4786200000000  0.3983710000000 1.0
C      1  0.6040420000000  0.4920360000000  0.5136970000000 1.0
C      1  0.4145800000000  0.5324040000000  0.5081070000000 1.0
C      1  0.5286690000000  0.4302690000000  0.4147270000000 1.0
C      1  0.5048760000000  0.4659490000000  0.4337940000000 1.0
C      1  0.5734060000000  0.4214020000000  0.4656280000000 1.0
C      1  0.5102830000000  0.4718700000000  0.5637690000000 1.0
C      1  0.6020610000000  0.5432840000000  0.4741430000000 1.0
C      1  0.4402130000000  0.4311680000000  0.4266500000000 1.0
C      1  0.4938000000000  0.4516570000000  0.5555580000000 1.0
C      1  0.4781610000000  0.5121620000000  0.4320690000000 1.0
C      1  0.4059980000000  0.5122720000000  0.5308440000000 1.0
C      1  0.5305760000000  0.6051260000000  0.4698930000000 1.0
C      1  0.5652690000000  0.5733780000000  0.4739850000000 1.0
C      1  0.4994130000000  0.4506440000000  0.4557840000000 1.0
C      1  0.4907140000000  0.4123520000000  0.5222890000000 1.0
C      1  0.4333550000000  0.5003920000000  0.5784300000000 1.0
C      1  0.5008120000000  0.5169990000000  0.4840330000000 1.0
C      1  0.4062650000000  0.4849510000000  0.5206000000000 1.0
C      1  0.5273260000000  0.5434880000000  0.5951200000000 1.0
C      1  0.5574200000000  0.6010710000000  0.4824010000000 1.0
C      1  0.5126320000000  0.5695280000000  0.5000200000000 1.0
C      1  0.4053630000000  0.4407340000000  0.4959090000000 1.0
C      1  0.5078180000000  0.4027250000000  0.4565270000000 1.0
C      1  0.5036960000000  0.5484940000000  0.4023610000000 1.0
C      1  0.5788750000000  0.5726330000000  0.5182410000000 1.0
C      1  0.4145750000000  0.4384540000000  0.4664450000000 1.0
C      1  0.4771010000000  0.4950430000000  0.5447730000000 1.0
C      1  0.4691690000000  0.4796080000000  0.3967200000000 1.0
C      1  0.5859050000000  0.5618400000000  0.4919970000000 1.0
C      1  0.4800700000000  0.5172080000000  0.6041220000000 1.0
C      1  0.5381680000000  0.4894670000000  0.4246130000000 1.0
C      1  0.4217460000000  0.5035590000000  0.4292100000000 1.0
C      1  0.4137130000000  0.4559340000000  0.5657360000000 1.0
C      1  0.5073270000000  0.4873050000000  0.6086110000000 1.0
C      1  0.4823520000000  0.4463850000000  0.5963460000000 1.0
C      1  0.5020820000000  0.4386490000000  0.5156260000000 1.0
C      1  0.5938360000000  0.4448280000000  0.5058990000000 1.0
C      1  0.3873070000000  0.5064760000000  0.4693810000000 1.0
C      1  0.5239900000000  0.4279290000000  0.5824850000000 1.0
C      1  0.5013410000000  0.3949260000000  0.4995530000000 1.0
C      1  0.5639380000000  0.4686890000000  0.4936290000000 1.0
C      1  0.5017780000000  0.4992050000000  0.5632080000000 1.0
C      1  0.5481940000000  0.4416040000000  0.5726140000000 1.0
C      1  0.5084690000000  0.5656250000000  0.5266780000000 1.0
C      1  0.4785200000000  0.5550090000000  0.5849040000000 1.0
C      1  0.5728590000000  0.4394300000000  0.5575630000000 1.0
C      1  0.5506970000000  0.3968830000000  0.5406660000000 1.0
C      1  0.5292330000000  0.5139020000000  0.5510430000000 1.0
C      1  0.5286780000000  0.4115670000000  0.4375930000000 1.0
C      1  0.4480190000000  0.5057540000000  0.4472250000000 1.0
C      1  0.4346430000000  0.5410660000000  0.5904900000000 1.0
C      1  0.4520930000000  0.5284900000000  0.4044170000000 1.0
C      1  0.4567920000000  0.4468430000000  0.5862810000000 1.0
C      1  0.4327790000000  0.4186780000000  0.4523280000000 1.0
C      1  0.5464870000000  0.4856060000000  0.4514900000000 1.0
C      1  0.5812090000000  0.5761120000000  0.4460280000000 1.0
C      1  0.4161360000000  0.5169790000000  0.5575040000000 1.0
C      1  0.5438290000000  0.5346280000000  0.5058140000000 1.0
C      1  0.5422410000000  0.4691140000000  0.4753580000000 1.0
C      1  0.4070990000000  0.4594820000000  0.4297200000000 1.0
C      1  0.4640690000000  0.4367700000000  0.4714430000000 1.0
C      1  0.5524010000000  0.4184720000000  0.4874550000000 1.0
C      1  0.5729900000000  0.4165230000000  0.5382650000000 1.0
C      1  0.4467390000000  0.4596870000000  0.5330060000000 1.0
C      1  0.5305280000000  0.4372270000000  0.5205950000000 1.0
C      1  0.4619980000000  0.5626050000000  0.5092920000000 1.0
C      1  0.4783360000000  0.5098130000000  0.4023850000000 1.0
C      1  0.4684880000000  0.4343430000000  0.4205470000000 1.0
C      1  0.3987680000000  0.5041350000000  0.4441250000000 1.0
C      1  0.4252490000000  0.5776370000000  0.5223760000000 1.0
C      1  0.5102280000000  0.4524450000000  0.4087620000000 1.0
C      1  0.4110280000000  0.5207030000000  0.4807150000000 1.0
C      1  0.4482910000000  0.5826760000000  0.5681020000000 1.0
C      1  0.5964310000000  0.4677830000000  0.5271690000000 1.0
C      1  0.4855040000000  0.5626090000000  0.4929550000000 1.0
C      1  0.4621770000000  0.4096760000000  0.5303990000000 1.0
C      1  0.5350840000000  0.6058110000000  0.5187570000000 1.0
C      1  0.5752190000000  0.5293790000000  0.5451180000000 1.0
C      1  0.5218370000000  0.5678090000000  0.5811580000000 1.0
END
