TITL C-884135-4325-370 -19.32982420754 125000 -14871.5227570121 0 0 99 (C1) n - 1
REM
REM in /home/nfs/bkarasulu/CARBON/AIRSS/Generating-Clusters/ReaxFF-fromJPCA2015/Units_Real/with-SteepDescent/Only-C1/SD-CG/Try1-3A/FIRE-CG
REM
REM
REM
REM
REM
REM ./C.cell (11c1c37f851c82e70ff6c80c92926a4b)
REM
REM compiler GCC version 9.2.1 20190827 (Red Hat 9.2.1-1)
REM options -cpp -mtune=generic -march=x86-64 -g -O0 -fpre-include=/usr/include/finclude/math-vector-fortran.h
REM seed 162378610 1673118457 966461144 -1835646892 1862432920 245322455 -1572794758 -613365471 718262830 -1540418929 1558591473 1817051731 -354649744 -1747122972 -1482257881 437127894 -1065344392 1176388812 774319019 -1515606704 1790853310 -1200412074 -943583368 860619284 1954675190 -87146970 60937620 -595061789 -832263681 -675536581 632027743 1323673815 262573239
REM
CELL 1.54180   50.00000   50.00000   50.00000   90.00000   90.00000   90.00000
LATT -1
SFAC C  
C      1  0.4275830000000  0.4587060000000  0.4670440000000 1.0
C      1  0.4630270000000  0.4494370000000  0.5597730000000 1.0
C      1  0.4901500000000  0.4881280000000  0.5811820000000 1.0
C      1  0.6011860000000  0.4800580000000  0.5402120000000 1.0
C      1  0.4412650000000  0.5257590000000  0.4218200000000 1.0
C      1  0.4357070000000  0.4911110000000  0.5520230000000 1.0
C      1  0.5147760000000  0.5203710000000  0.5205410000000 1.0
C      1  0.4934760000000  0.5066550000000  0.4382370000000 1.0
C      1  0.5347500000000  0.5090530000000  0.4649420000000 1.0
C      1  0.5360700000000  0.4938810000000  0.5737500000000 1.0
C      1  0.5859040000000  0.4666870000000  0.4976750000000 1.0
C      1  0.4919590000000  0.4384970000000  0.5100630000000 1.0
C      1  0.4434700000000  0.5506020000000  0.5354200000000 1.0
C      1  0.5052510000000  0.5524460000000  0.4691700000000 1.0
C      1  0.4881010000000  0.4771610000000  0.4336330000000 1.0
C      1  0.4131410000000  0.4975790000000  0.4709020000000 1.0
C      1  0.4963920000000  0.5867710000000  0.5154460000000 1.0
C      1  0.5258920000000  0.4551400000000  0.4083880000000 1.0
C      1  0.5565290000000  0.4553670000000  0.4595120000000 1.0
C      1  0.4796780000000  0.5578550000000  0.5540810000000 1.0
C      1  0.4632410000000  0.4799870000000  0.5154020000000 1.0
C      1  0.5294420000000  0.4461750000000  0.4586610000000 1.0
C      1  0.4455600000000  0.4427890000000  0.5370470000000 1.0
C      1  0.5358790000000  0.5016950000000  0.5115410000000 1.0
C      1  0.5707310000000  0.5473890000000  0.4923350000000 1.0
C      1  0.4706000000000  0.5825710000000  0.5008180000000 1.0
C      1  0.4560010000000  0.5604540000000  0.4523350000000 1.0
C      1  0.4455660000000  0.4980440000000  0.4294850000000 1.0
C      1  0.5088420000000  0.5230140000000  0.4655020000000 1.0
C      1  0.5402940000000  0.4454520000000  0.5382150000000 1.0
C      1  0.4766620000000  0.5606020000000  0.4773130000000 1.0
C      1  0.5219720000000  0.5428910000000  0.5695670000000 1.0
C      1  0.4651710000000  0.5079550000000  0.4490530000000 1.0
C      1  0.5288840000000  0.4746250000000  0.5058210000000 1.0
C      1  0.4354480000000  0.5395230000000  0.4479210000000 1.0
C      1  0.4635040000000  0.4436290000000  0.5129880000000 1.0
C      1  0.4923110000000  0.4342950000000  0.4455310000000 1.0
C      1  0.4476520000000  0.4517320000000  0.4461360000000 1.0
C      1  0.5607660000000  0.4869770000000  0.5605720000000 1.0
C      1  0.5235100000000  0.5485490000000  0.5397110000000 1.0
C      1  0.4692150000000  0.4180710000000  0.4739860000000 1.0
C      1  0.5922580000000  0.4530880000000  0.5484460000000 1.0
C      1  0.4877780000000  0.4790850000000  0.5310470000000 1.0
C      1  0.6037140000000  0.4834990000000  0.5097370000000 1.0
C      1  0.5250310000000  0.5182250000000  0.5832980000000 1.0
C      1  0.4695400000000  0.5389890000000  0.5355260000000 1.0
C      1  0.5509260000000  0.5626410000000  0.5348900000000 1.0
C      1  0.4938280000000  0.5436170000000  0.5761550000000 1.0
C      1  0.4608490000000  0.4930230000000  0.4721460000000 1.0
C      1  0.5837210000000  0.5016320000000  0.5503130000000 1.0
C      1  0.5468040000000  0.4684130000000  0.4200800000000 1.0
C      1  0.5755230000000  0.5193050000000  0.4850950000000 1.0
C      1  0.5174320000000  0.4499450000000  0.5569510000000 1.0
C      1  0.5050120000000  0.4631030000000  0.5159700000000 1.0
C      1  0.4354510000000  0.4826860000000  0.4776340000000 1.0
C      1  0.5230440000000  0.4339350000000  0.4834370000000 1.0
C      1  0.4116790000000  0.4781510000000  0.5221070000000 1.0
C      1  0.5526810000000  0.5038410000000  0.4422770000000 1.0
C      1  0.4521100000000  0.5721350000000  0.5180310000000 1.0
C      1  0.4641370000000  0.4758120000000  0.5757450000000 1.0
C      1  0.4661130000000  0.5681530000000  0.4263860000000 1.0
C      1  0.4773130000000  0.4939530000000  0.4939070000000 1.0
C      1  0.5262420000000  0.5701220000000  0.4763430000000 1.0
C      1  0.4669050000000  0.4311380000000  0.4498140000000 1.0
C      1  0.4903060000000  0.5248900000000  0.4126100000000 1.0
C      1  0.4901130000000  0.4379580000000  0.5579930000000 1.0
C      1  0.4405690000000  0.5319730000000  0.4948180000000 1.0
C      1  0.4960290000000  0.4237230000000  0.4854000000000 1.0
C      1  0.4249160000000  0.5254680000000  0.4708400000000 1.0
C      1  0.4505520000000  0.4268330000000  0.4931950000000 1.0
C      1  0.4975790000000  0.5051100000000  0.5391590000000 1.0
C      1  0.5417450000000  0.4474130000000  0.5067200000000 1.0
C      1  0.5210240000000  0.5894060000000  0.4990610000000 1.0
C      1  0.4234760000000  0.4506400000000  0.5196380000000 1.0
C      1  0.5641020000000  0.4765840000000  0.4401120000000 1.0
C      1  0.5862180000000  0.5233560000000  0.5302330000000 1.0
C      1  0.5015680000000  0.5699130000000  0.5387070000000 1.0
C      1  0.5663210000000  0.5555710000000  0.4467260000000 1.0
C      1  0.4933530000000  0.5189270000000  0.4948010000000 1.0
C      1  0.5147070000000  0.4748570000000  0.5732540000000 1.0
C      1  0.4701630000000  0.5380760000000  0.4968570000000 1.0
C      1  0.4660630000000  0.5400890000000  0.4117380000000 1.0
C      1  0.4730330000000  0.5149500000000  0.5490790000000 1.0
C      1  0.5724600000000  0.5476490000000  0.5214660000000 1.0
C      1  0.5622030000000  0.4581240000000  0.5524350000000 1.0
C      1  0.5729310000000  0.5263770000000  0.4438880000000 1.0
C      1  0.5498300000000  0.5047240000000  0.4879550000000 1.0
C      1  0.5551820000000  0.5634460000000  0.4732680000000 1.0
C      1  0.4967930000000  0.5162410000000  0.5880270000000 1.0
C      1  0.4356010000000  0.4974550000000  0.5275720000000 1.0
C      1  0.4318050000000  0.5269930000000  0.5215400000000 1.0
C      1  0.4004410000000  0.4877320000000  0.4963480000000 1.0
C      1  0.4552480000000  0.4995410000000  0.5658300000000 1.0
C      1  0.4599610000000  0.4723290000000  0.4297060000000 1.0
C      1  0.5058000000000  0.4543700000000  0.4359230000000 1.0
C      1  0.5377620000000  0.5830250000000  0.5209720000000 1.0
C      1  0.5670340000000  0.4511930000000  0.4878690000000 1.0
C      1  0.4264210000000  0.4415330000000  0.4917780000000 1.0
C      1  0.5950350000000  0.5113570000000  0.5053910000000 1.0
END
