TITL C-883733-4178-305 11.6879641033652 125000 -24654.1283246661 0 0 165 (C1) n - 1
REM
REM in /home/nfs/bkarasulu/CARBON/AIRSS/Generating-Clusters/ReaxFF-fromJPCA2015/Units_Real/with-SteepDescent/Only-C1/SD-CG/Try1-3A/FIRE-CG
REM
REM
REM
REM
REM
REM ./C.cell (11c1c37f851c82e70ff6c80c92926a4b)
REM
REM compiler GCC version 9.2.1 20190827 (Red Hat 9.2.1-1)
REM options -cpp -mtune=generic -march=x86-64 -g -O0 -fpre-include=/usr/include/finclude/math-vector-fortran.h
REM seed 1458555940 1910588024 1914336110 -2052816719 1447367884 984640679 -1143948150 1723408892 -1515051000 -603666302 405082541 1016433410 -1998418975 1486958538 1165158573 1875288329 -409785663 -72420929 -167152958 -737468588 -1282874360 -2049647728 942606301 -279922020 797499429 -1562913508 1111574724 486215753 -2108803285 -39373686 -458278673 -1736263280 -1587989489
REM
CELL 1.54180   50.00000   50.00000   50.00000   90.00000   90.00000   90.00000
LATT -1
SFAC C  
C      1  0.4155450000000  0.4707680000000  0.5388570000000 1.0
C      1  0.4118110000000  0.5636990000000  0.4725010000000 1.0
C      1  0.5276820000000  0.5954170000000  0.5018810000000 1.0
C      1  0.5551330000000  0.4213180000000  0.4271040000000 1.0
C      1  0.5086170000000  0.4109030000000  0.5348910000000 1.0
C      1  0.5411630000000  0.5098520000000  0.4750780000000 1.0
C      1  0.5206760000000  0.5607020000000  0.4057360000000 1.0
C      1  0.5812500000000  0.5539770000000  0.5226250000000 1.0
C      1  0.5478410000000  0.4395310000000  0.5269470000000 1.0
C      1  0.5424290000000  0.4832800000000  0.5744970000000 1.0
C      1  0.4207580000000  0.4304200000000  0.5132030000000 1.0
C      1  0.5568720000000  0.5833010000000  0.4639970000000 1.0
C      1  0.3827290000000  0.5292590000000  0.5000180000000 1.0
C      1  0.4974370000000  0.5464180000000  0.4519690000000 1.0
C      1  0.5903040000000  0.4347080000000  0.4636580000000 1.0
C      1  0.5154430000000  0.4769860000000  0.4301190000000 1.0
C      1  0.4908580000000  0.6133700000000  0.5011920000000 1.0
C      1  0.5476430000000  0.5704490000000  0.5584440000000 1.0
C      1  0.4857210000000  0.5598690000000  0.5502660000000 1.0
C      1  0.4692610000000  0.5967540000000  0.5210360000000 1.0
C      1  0.5154090000000  0.5686910000000  0.4504060000000 1.0
C      1  0.4792670000000  0.5716670000000  0.5068260000000 1.0
C      1  0.4955850000000  0.5271060000000  0.5000970000000 1.0
C      1  0.5975880000000  0.5152770000000  0.4557260000000 1.0
C      1  0.4195660000000  0.5895320000000  0.5295960000000 1.0
C      1  0.4682160000000  0.4105730000000  0.5451760000000 1.0
C      1  0.5644250000000  0.5298720000000  0.5213270000000 1.0
C      1  0.4858060000000  0.5141980000000  0.5763940000000 1.0
C      1  0.4985840000000  0.4220570000000  0.4594070000000 1.0
C      1  0.4242940000000  0.4287520000000  0.4840030000000 1.0
C      1  0.5382240000000  0.4821090000000  0.5094180000000 1.0
C      1  0.4310260000000  0.4799220000000  0.5005200000000 1.0
C      1  0.5119080000000  0.4413080000000  0.5286360000000 1.0
C      1  0.4755710000000  0.5202350000000  0.5214800000000 1.0
C      1  0.5083010000000  0.4557250000000  0.5546500000000 1.0
C      1  0.5798510000000  0.5122110000000  0.4342020000000 1.0
C      1  0.4748150000000  0.5842460000000  0.5505640000000 1.0
C      1  0.4665570000000  0.4817040000000  0.4717220000000 1.0
C      1  0.5337010000000  0.5606510000000  0.5786280000000 1.0
C      1  0.4199840000000  0.4583500000000  0.4228590000000 1.0
C      1  0.4229300000000  0.5113580000000  0.4613100000000 1.0
C      1  0.4542110000000  0.5533560000000  0.5850020000000 1.0
C      1  0.5119370000000  0.4544020000000  0.6006330000000 1.0
C      1  0.4167310000000  0.5501610000000  0.5540240000000 1.0
C      1  0.4701920000000  0.4866670000000  0.3959370000000 1.0
C      1  0.4741390000000  0.4106250000000  0.4767310000000 1.0
C      1  0.5643800000000  0.5343830000000  0.6019920000000 1.0
C      1  0.5190790000000  0.4398300000000  0.5761940000000 1.0
C      1  0.4408870000000  0.5792670000000  0.4855650000000 1.0
C      1  0.4909270000000  0.5606010000000  0.3996190000000 1.0
C      1  0.4070420000000  0.4607290000000  0.4476570000000 1.0
C      1  0.5481160000000  0.5306540000000  0.5454750000000 1.0
C      1  0.4592190000000  0.5936630000000  0.4651140000000 1.0
C      1  0.5446780000000  0.5599610000000  0.4498360000000 1.0
C      1  0.5932770000000  0.4253920000000  0.4923800000000 1.0
C      1  0.4639520000000  0.5753730000000  0.4435160000000 1.0
C      1  0.5162150000000  0.5465060000000  0.4942380000000 1.0
C      1  0.5082980000000  0.4746350000000  0.4575440000000 1.0
C      1  0.4907460000000  0.5330430000000  0.3957540000000 1.0
C      1  0.4547630000000  0.5071040000000  0.4057840000000 1.0
C      1  0.5659260000000  0.4229810000000  0.5059450000000 1.0
C      1  0.4407510000000  0.5022060000000  0.5818700000000 1.0
C      1  0.3910060000000  0.5592240000000  0.4946730000000 1.0
C      1  0.4844880000000  0.4287900000000  0.4357470000000 1.0
C      1  0.5880580000000  0.5132050000000  0.5741660000000 1.0
C      1  0.6114760000000  0.4532440000000  0.5575260000000 1.0
C      1  0.5348760000000  0.6004260000000  0.4733370000000 1.0
C      1  0.5709780000000  0.4374200000000  0.5855270000000 1.0
C      1  0.4069150000000  0.4498260000000  0.4735720000000 1.0
C      1  0.5149300000000  0.3901900000000  0.4867140000000 1.0
C      1  0.5618740000000  0.4631910000000  0.4738000000000 1.0
C      1  0.5602960000000  0.4001570000000  0.5004970000000 1.0
C      1  0.4575630000000  0.4359690000000  0.4429880000000 1.0
C      1  0.4828510000000  0.4835890000000  0.5694680000000 1.0
C      1  0.6058050000000  0.4432660000000  0.5099240000000 1.0
C      1  0.5204310000000  0.5464740000000  0.5999550000000 1.0
C      1  0.4449060000000  0.4452930000000  0.4164080000000 1.0
C      1  0.5083010000000  0.5723760000000  0.5040270000000 1.0
C      1  0.5220380000000  0.5059990000000  0.6120770000000 1.0
C      1  0.5680850000000  0.5341330000000  0.5716550000000 1.0
C      1  0.5377240000000  0.4638870000000  0.4868190000000 1.0
C      1  0.4031050000000  0.4691040000000  0.4954300000000 1.0
C      1  0.4942990000000  0.5060590000000  0.3950580000000 1.0
C      1  0.6047760000000  0.5025020000000  0.4960270000000 1.0
C      1  0.5720850000000  0.5776270000000  0.4881930000000 1.0
C      1  0.6155130000000  0.4617310000000  0.5281020000000 1.0
C      1  0.5619140000000  0.4699980000000  0.4111970000000 1.0
C      1  0.4448290000000  0.4396820000000  0.5272360000000 1.0
C      1  0.4846410000000  0.3965470000000  0.5264700000000 1.0
C      1  0.4913890000000  0.4420300000000  0.4113720000000 1.0
C      1  0.4852300000000  0.6056840000000  0.4737440000000 1.0
C      1  0.5441200000000  0.5198150000000  0.4155330000000 1.0
C      1  0.4847990000000  0.4901650000000  0.5229640000000 1.0
C      1  0.5983450000000  0.5289990000000  0.4838400000000 1.0
C      1  0.5049890000000  0.5191770000000  0.4457500000000 1.0
C      1  0.4409270000000  0.5946930000000  0.5113250000000 1.0
C      1  0.4210130000000  0.5689090000000  0.4249840000000 1.0
C      1  0.5580720000000  0.4680100000000  0.5247530000000 1.0
C      1  0.4941740000000  0.5322490000000  0.5492610000000 1.0
C      1  0.4386540000000  0.4818780000000  0.5465250000000 1.0
C      1  0.4464930000000  0.5294510000000  0.4207930000000 1.0
C      1  0.4596550000000  0.4487430000000  0.5819550000000 1.0
C      1  0.5549790000000  0.5878790000000  0.5102320000000 1.0
C      1  0.5723020000000  0.4175110000000  0.4486900000000 1.0
C      1  0.5341540000000  0.3967090000000  0.5330720000000 1.0
C      1  0.4517340000000  0.5781200000000  0.5688830000000 1.0
C      1  0.4028710000000  0.4528770000000  0.5214140000000 1.0
C      1  0.4544170000000  0.4323440000000  0.5557960000000 1.0
C      1  0.5468350000000  0.4462140000000  0.4119940000000 1.0
C      1  0.4250210000000  0.5775980000000  0.5558980000000 1.0
C      1  0.5102680000000  0.5959600000000  0.4589900000000 1.0
C      1  0.5458020000000  0.4266210000000  0.5737480000000 1.0
C      1  0.5506160000000  0.4174350000000  0.5463670000000 1.0
C      1  0.4841560000000  0.4483890000000  0.5964810000000 1.0
C      1  0.5781930000000  0.4851880000000  0.5374620000000 1.0
C      1  0.4580670000000  0.5277620000000  0.4478530000000 1.0
C      1  0.4543500000000  0.4673920000000  0.4520070000000 1.0
C      1  0.5417270000000  0.5382130000000  0.4770960000000 1.0
C      1  0.4513150000000  0.5063420000000  0.4664140000000 1.0
C      1  0.4676340000000  0.4574090000000  0.4031790000000 1.0
C      1  0.5176980000000  0.4938260000000  0.5296720000000 1.0
C      1  0.4023160000000  0.5769400000000  0.4429110000000 1.0
C      1  0.4675920000000  0.5728610000000  0.4146420000000 1.0
C      1  0.4517470000000  0.4627260000000  0.5110700000000 1.0
C      1  0.4424430000000  0.5584650000000  0.4105160000000 1.0
C      1  0.5374720000000  0.3848680000000  0.5054980000000 1.0
C      1  0.5036660000000  0.5224470000000  0.5972200000000 1.0
C      1  0.3946750000000  0.5780170000000  0.5161670000000 1.0
C      1  0.4022210000000  0.5510170000000  0.5765740000000 1.0
C      1  0.5392300000000  0.5302590000000  0.6171120000000 1.0
C      1  0.5867980000000  0.4644880000000  0.4629010000000 1.0
C      1  0.4691670000000  0.4794490000000  0.5447220000000 1.0
C      1  0.5663600000000  0.5001760000000  0.4130540000000 1.0
C      1  0.5177220000000  0.4549860000000  0.4112420000000 1.0
C      1  0.5214230000000  0.5221240000000  0.5406280000000 1.0
C      1  0.5637670000000  0.5752630000000  0.5349420000000 1.0
C      1  0.4583520000000  0.5246840000000  0.5873440000000 1.0
C      1  0.5455890000000  0.4063420000000  0.4482760000000 1.0
C      1  0.4277700000000  0.4788300000000  0.4423290000000 1.0
C      1  0.4578540000000  0.4784920000000  0.5853220000000 1.0
C      1  0.4487550000000  0.4209260000000  0.4697880000000 1.0
C      1  0.6029240000000  0.4887950000000  0.5225870000000 1.0
C      1  0.5142910000000  0.5016670000000  0.4671920000000 1.0
C      1  0.4685920000000  0.5502780000000  0.4617360000000 1.0
C      1  0.4165800000000  0.5366160000000  0.4662870000000 1.0
C      1  0.4002260000000  0.5072770000000  0.5009490000000 1.0
C      1  0.5581110000000  0.5223850000000  0.4938400000000 1.0
C      1  0.4877070000000  0.3944090000000  0.4963500000000 1.0
C      1  0.5896370000000  0.4580530000000  0.5754510000000 1.0
C      1  0.5289350000000  0.4799180000000  0.5999380000000 1.0
C      1  0.5155520000000  0.5063120000000  0.4198490000000 1.0
C      1  0.4457960000000  0.5301260000000  0.5159920000000 1.0
C      1  0.4270790000000  0.5046920000000  0.5569450000000 1.0
C      1  0.4990250000000  0.4508660000000  0.5034220000000 1.0
C      1  0.5432890000000  0.5488400000000  0.4197600000000 1.0
C      1  0.4283500000000  0.5085120000000  0.5034480000000 1.0
C      1  0.5233180000000  0.4782570000000  0.5538850000000 1.0
C      1  0.5101780000000  0.4508220000000  0.4763490000000 1.0
C      1  0.4313840000000  0.5284470000000  0.5418390000000 1.0
C      1  0.6030950000000  0.4896450000000  0.4698840000000 1.0
C      1  0.5907810000000  0.5549180000000  0.4950400000000 1.0
C      1  0.4773000000000  0.4698200000000  0.5006720000000 1.0
C      1  0.5208420000000  0.4038140000000  0.4621980000000 1.0
C      1  0.4588000000000  0.5554040000000  0.4939610000000 1.0
C      1  0.5732830000000  0.4852010000000  0.5677520000000 1.0
END
