TITL C-883726-8501-465 5.22637035475538 125000 -7851.43806398569 0 0 54 (C1) n - 1
REM
REM in /home/nfs/bkarasulu/CARBON/AIRSS/Generating-Clusters/ReaxFF-fromJPCA2015/Units_Real/with-SteepDescent/Only-C1/SD-CG/Try1-3A/FIRE-CG
REM
REM
REM
REM
REM
REM ./C.cell (11c1c37f851c82e70ff6c80c92926a4b)
REM
REM compiler GCC version 9.2.1 20190827 (Red Hat 9.2.1-1)
REM options -cpp -mtune=generic -march=x86-64 -g -O0 -fpre-include=/usr/include/finclude/math-vector-fortran.h
REM seed -758372718 1050176983 184327653 654508976 1274261466 -55206094 -1223336858 -100121931 -976669336 1641403562 -2106007252 250416896 1635561641 1054400458 1918059336 165578671 864792806 852178157 -834809405 597719525 1125893610 -277210841 463517349 -1138788411 -878353902 1202534280 -397783435 -664133628 -1102602661 1804756514 -276616400 329862392 1570262913
REM
CELL 1.54180   50.00000   50.00000   50.00000   90.00000   90.00000   90.00000
LATT -1
SFAC C  
C      1  0.5026700000000  0.5358080000000  0.4436410000000 1.0
C      1  0.5503100000000  0.4716950000000  0.4598380000000 1.0
C      1  0.4698950000000  0.4986570000000  0.5497540000000 1.0
C      1  0.5386010000000  0.5569370000000  0.5365070000000 1.0
C      1  0.4472650000000  0.4800180000000  0.4457610000000 1.0
C      1  0.5178560000000  0.4654610000000  0.4330710000000 1.0
C      1  0.4458970000000  0.5324820000000  0.5180690000000 1.0
C      1  0.5402090000000  0.5125090000000  0.4926600000000 1.0
C      1  0.5269620000000  0.4915640000000  0.5635740000000 1.0
C      1  0.5582870000000  0.4713500000000  0.4889070000000 1.0
C      1  0.4825390000000  0.4717880000000  0.5528210000000 1.0
C      1  0.4754490000000  0.5448520000000  0.4864600000000 1.0
C      1  0.4371390000000  0.5355150000000  0.4867970000000 1.0
C      1  0.5004050000000  0.5193840000000  0.5213760000000 1.0
C      1  0.5598270000000  0.5526550000000  0.5186130000000 1.0
C      1  0.4593600000000  0.4623200000000  0.4927100000000 1.0
C      1  0.5135300000000  0.5187030000000  0.5676350000000 1.0
C      1  0.5318290000000  0.4497870000000  0.4550190000000 1.0
C      1  0.4610390000000  0.5046930000000  0.4424480000000 1.0
C      1  0.5259370000000  0.5027110000000  0.5163880000000 1.0
C      1  0.4478630000000  0.5050470000000  0.5321070000000 1.0
C      1  0.5263190000000  0.5173720000000  0.4447000000000 1.0
C      1  0.5212680000000  0.5099410000000  0.4726600000000 1.0
C      1  0.4989640000000  0.4264750000000  0.4985830000000 1.0
C      1  0.5345550000000  0.4553700000000  0.5075840000000 1.0
C      1  0.5368260000000  0.5313130000000  0.5544060000000 1.0
C      1  0.4395510000000  0.4692210000000  0.4740520000000 1.0
C      1  0.5713760000000  0.5364540000000  0.5032690000000 1.0
C      1  0.4942970000000  0.4996120000000  0.4785840000000 1.0
C      1  0.4850090000000  0.5199330000000  0.4972910000000 1.0
C      1  0.4341880000000  0.4814050000000  0.5218440000000 1.0
C      1  0.4634700000000  0.5551100000000  0.5245760000000 1.0
C      1  0.4260610000000  0.5107150000000  0.4883560000000 1.0
C      1  0.5358730000000  0.4894070000000  0.4397190000000 1.0
C      1  0.4220710000000  0.4835990000000  0.4939680000000 1.0
C      1  0.4574290000000  0.5431960000000  0.4664210000000 1.0
C      1  0.4967560000000  0.4344030000000  0.5264490000000 1.0
C      1  0.5081130000000  0.5669460000000  0.4914890000000 1.0
C      1  0.5433920000000  0.5051340000000  0.5436310000000 1.0
C      1  0.4510220000000  0.4572140000000  0.5198710000000 1.0
C      1  0.4806820000000  0.5674570000000  0.5029060000000 1.0
C      1  0.5237840000000  0.4349860000000  0.4852680000000 1.0
C      1  0.4989020000000  0.4449630000000  0.4776470000000 1.0
C      1  0.5141250000000  0.4764650000000  0.5068920000000 1.0
C      1  0.4908170000000  0.5193220000000  0.5485570000000 1.0
C      1  0.5212420000000  0.4479400000000  0.5351230000000 1.0
C      1  0.4918920000000  0.4713680000000  0.4882780000000 1.0
C      1  0.5201720000000  0.5633290000000  0.5160440000000 1.0
C      1  0.5124710000000  0.5529540000000  0.4635820000000 1.0
C      1  0.4715350000000  0.5294360000000  0.4449650000000 1.0
C      1  0.4735260000000  0.4492580000000  0.5371900000000 1.0
C      1  0.5116090000000  0.4678770000000  0.5546710000000 1.0
C      1  0.5702330000000  0.5117350000000  0.4887650000000 1.0
C      1  0.5796000000000  0.4861550000000  0.4985040000000 1.0
END
