TITL C-884134-5972-166 -6.76475433053951 125000 -11179.9925927597 0 0 76 (C1) n - 1
REM
REM in /home/nfs/bkarasulu/CARBON/AIRSS/Generating-Clusters/ReaxFF-fromJPCA2015/Units_Real/with-SteepDescent/Only-C1/SD-CG/Try1-3A/FIRE-CG
REM
REM
REM
REM
REM
REM ./C.cell (11c1c37f851c82e70ff6c80c92926a4b)
REM
REM compiler GCC version 9.2.1 20190827 (Red Hat 9.2.1-1)
REM options -cpp -mtune=generic -march=x86-64 -g -O0 -fpre-include=/usr/include/finclude/math-vector-fortran.h
REM seed 289761219 586339931 -1486055572 -505012183 -1095145806 -871521244 1199299622 2102618665 485264595 -1755683391 597039457 -1945805407 -8516560 -1977401344 784888081 1707797212 219454768 -406886680 1233864392 952247090 -389471736 1253705859 1065063754 1799160370 -1313233422 1531773242 -1780553841 -1103889721 -1468080965 -755023216 1469259425 1380750608 1018245050
REM
CELL 1.54180   50.00000   50.00000   50.00000   90.00000   90.00000   90.00000
LATT -1
SFAC C  
C      1  0.4825810000000  0.5198410000000  0.5808770000000 1.0
C      1  0.5088130000000  0.5076590000000  0.5897320000000 1.0
C      1  0.4918080000000  0.5622580000000  0.4642550000000 1.0
C      1  0.5396340000000  0.4841130000000  0.5231740000000 1.0
C      1  0.4487110000000  0.4349060000000  0.4380990000000 1.0
C      1  0.4439330000000  0.5093330000000  0.5513060000000 1.0
C      1  0.5421730000000  0.5521910000000  0.4681350000000 1.0
C      1  0.4621140000000  0.5043730000000  0.5030820000000 1.0
C      1  0.5246670000000  0.4458540000000  0.4792960000000 1.0
C      1  0.5277190000000  0.5278390000000  0.4682130000000 1.0
C      1  0.5096840000000  0.5477740000000  0.5714060000000 1.0
C      1  0.5331560000000  0.5765510000000  0.4806920000000 1.0
C      1  0.5312240000000  0.4964080000000  0.5740520000000 1.0
C      1  0.4599520000000  0.4968080000000  0.4328270000000 1.0
C      1  0.5037700000000  0.5798950000000  0.4828790000000 1.0
C      1  0.4517820000000  0.4819510000000  0.4539290000000 1.0
C      1  0.4988520000000  0.4325780000000  0.4385290000000 1.0
C      1  0.4886780000000  0.4850430000000  0.5494400000000 1.0
C      1  0.4865200000000  0.4546340000000  0.5378060000000 1.0
C      1  0.5860630000000  0.4699650000000  0.5273160000000 1.0
C      1  0.5846920000000  0.4948950000000  0.5115230000000 1.0
C      1  0.4555740000000  0.4276980000000  0.4640070000000 1.0
C      1  0.5766290000000  0.5293410000000  0.4915170000000 1.0
C      1  0.4960960000000  0.4882930000000  0.4711560000000 1.0
C      1  0.4706220000000  0.5532040000000  0.5077400000000 1.0
C      1  0.4674940000000  0.5006980000000  0.5636560000000 1.0
C      1  0.4942750000000  0.5732070000000  0.5098610000000 1.0
C      1  0.4492870000000  0.5533870000000  0.5288410000000 1.0
C      1  0.5124110000000  0.5684380000000  0.5315350000000 1.0
C      1  0.4960170000000  0.4574640000000  0.4271540000000 1.0
C      1  0.4294560000000  0.4738040000000  0.5172130000000 1.0
C      1  0.5388760000000  0.5079880000000  0.4504460000000 1.0
C      1  0.4122580000000  0.5093940000000  0.4845700000000 1.0
C      1  0.5840960000000  0.4538100000000  0.5051190000000 1.0
C      1  0.4778260000000  0.4282500000000  0.4815510000000 1.0
C      1  0.4523840000000  0.5407700000000  0.4631790000000 1.0
C      1  0.5660140000000  0.4418200000000  0.4871070000000 1.0
C      1  0.5014650000000  0.5120540000000  0.5321660000000 1.0
C      1  0.4132780000000  0.4819560000000  0.4921400000000 1.0
C      1  0.4689970000000  0.4804530000000  0.4807760000000 1.0
C      1  0.4121330000000  0.4608530000000  0.4694750000000 1.0
C      1  0.5520720000000  0.5709660000000  0.5028600000000 1.0
C      1  0.5381830000000  0.4417020000000  0.5301020000000 1.0
C      1  0.4701390000000  0.5109250000000  0.4171560000000 1.0
C      1  0.4325050000000  0.4597220000000  0.4489850000000 1.0
C      1  0.4975400000000  0.5673500000000  0.5571030000000 1.0
C      1  0.5492420000000  0.4599600000000  0.4691930000000 1.0
C      1  0.4434520000000  0.5363160000000  0.5431730000000 1.0
C      1  0.4923170000000  0.5236140000000  0.4287950000000 1.0
C      1  0.4474430000000  0.4939750000000  0.5276720000000 1.0
C      1  0.4747480000000  0.4380650000000  0.4249540000000 1.0
C      1  0.5401450000000  0.4344020000000  0.5016740000000 1.0
C      1  0.4781740000000  0.5443690000000  0.4495340000000 1.0
C      1  0.5754040000000  0.5012740000000  0.4836960000000 1.0
C      1  0.5139970000000  0.4746620000000  0.5625010000000 1.0
C      1  0.4826910000000  0.5487670000000  0.5742610000000 1.0
C      1  0.5182790000000  0.5287470000000  0.5517440000000 1.0
C      1  0.4451930000000  0.4494270000000  0.5150130000000 1.0
C      1  0.5083920000000  0.5120100000000  0.4847040000000 1.0
C      1  0.5406710000000  0.5585590000000  0.5265640000000 1.0
C      1  0.4487220000000  0.5507770000000  0.4886090000000 1.0
C      1  0.5149130000000  0.4502630000000  0.5458860000000 1.0
C      1  0.4855600000000  0.5222580000000  0.5076240000000 1.0
C      1  0.5151190000000  0.5049540000000  0.4333090000000 1.0
C      1  0.5030510000000  0.4311760000000  0.4665050000000 1.0
C      1  0.5444260000000  0.5191730000000  0.5587700000000 1.0
C      1  0.4658240000000  0.4524120000000  0.4943690000000 1.0
C      1  0.5555070000000  0.5340340000000  0.5357530000000 1.0
C      1  0.5565410000000  0.4652380000000  0.5347370000000 1.0
C      1  0.5226540000000  0.5021550000000  0.5129530000000 1.0
C      1  0.5555340000000  0.4884570000000  0.4660160000000 1.0
C      1  0.4418760000000  0.5230860000000  0.4842690000000 1.0
C      1  0.5651780000000  0.5517900000000  0.4836040000000 1.0
C      1  0.5777400000000  0.5227740000000  0.5192840000000 1.0
C      1  0.5032010000000  0.4803780000000  0.4443320000000 1.0
C      1  0.4618540000000  0.4385120000000  0.5385160000000 1.0
END
