TITL C-883741-3679-367 37.5895963983212 125000 -23525.9852072653 0 0 158 (C1) n - 1
REM
REM in /home/nfs/bkarasulu/CARBON/AIRSS/Generating-Clusters/ReaxFF-fromJPCA2015/Units_Real/with-SteepDescent/Only-C1/SD-CG/Try1-3A/FIRE-CG
REM
REM
REM
REM
REM
REM ./C.cell (11c1c37f851c82e70ff6c80c92926a4b)
REM
REM compiler GCC version 9.2.1 20190827 (Red Hat 9.2.1-1)
REM options -cpp -mtune=generic -march=x86-64 -g -O0 -fpre-include=/usr/include/finclude/math-vector-fortran.h
REM seed -1860859389 111550060 2071529540 -804350227 -1220832735 1090987408 1636378076 1644422747 -1834875629 782622695 1110654667 -1215310189 -581599772 1480535205 1152853105 -274905647 -917947287 -1465652358 -1203088023 1869018084 1277798293 2117985304 -531870299 -997688925 -632419982 -622509603 -2018187069 -1401073436 1492546505 -2029329003 -81968433 -973457097 1287111248
REM
CELL 1.54180   50.00000   50.00000   50.00000   90.00000   90.00000   90.00000
LATT -1
SFAC C  
C      1  0.5531570000000  0.4492460000000  0.4287270000000 1.0
C      1  0.4631340000000  0.5450640000000  0.4919340000000 1.0
C      1  0.4690560000000  0.5713690000000  0.4810980000000 1.0
C      1  0.4496080000000  0.4694130000000  0.5931760000000 1.0
C      1  0.5315910000000  0.5241620000000  0.5502620000000 1.0
C      1  0.5026930000000  0.5233820000000  0.5422120000000 1.0
C      1  0.5392240000000  0.4691100000000  0.6074130000000 1.0
C      1  0.4474200000000  0.4159270000000  0.5163770000000 1.0
C      1  0.5389360000000  0.3971810000000  0.5080460000000 1.0
C      1  0.4439600000000  0.5161540000000  0.4635380000000 1.0
C      1  0.4996350000000  0.5006430000000  0.5218810000000 1.0
C      1  0.4795810000000  0.4657600000000  0.4045940000000 1.0
C      1  0.5507500000000  0.5016900000000  0.4306030000000 1.0
C      1  0.4091560000000  0.5425630000000  0.4497310000000 1.0
C      1  0.4568420000000  0.4006380000000  0.4918130000000 1.0
C      1  0.5762140000000  0.5169010000000  0.4271660000000 1.0
C      1  0.5348630000000  0.5404430000000  0.4562140000000 1.0
C      1  0.5356910000000  0.5396150000000  0.4047380000000 1.0
C      1  0.5159320000000  0.4035360000000  0.5524860000000 1.0
C      1  0.5831040000000  0.5460260000000  0.5387570000000 1.0
C      1  0.5922760000000  0.5321550000000  0.4623680000000 1.0
C      1  0.5096510000000  0.4651780000000  0.5543820000000 1.0
C      1  0.5452130000000  0.5782190000000  0.4883030000000 1.0
C      1  0.5042660000000  0.3942760000000  0.4718820000000 1.0
C      1  0.4401000000000  0.5009410000000  0.4094480000000 1.0
C      1  0.5733460000000  0.5254950000000  0.5205150000000 1.0
C      1  0.5748280000000  0.4302680000000  0.4727970000000 1.0
C      1  0.4602210000000  0.5167950000000  0.6002780000000 1.0
C      1  0.5439600000000  0.5527030000000  0.5621790000000 1.0
C      1  0.5090680000000  0.5407030000000  0.5974500000000 1.0
C      1  0.4531550000000  0.5807760000000  0.5523590000000 1.0
C      1  0.5326320000000  0.3979920000000  0.4801740000000 1.0
C      1  0.4846080000000  0.3918650000000  0.4940320000000 1.0
C      1  0.5907780000000  0.4808280000000  0.4882050000000 1.0
C      1  0.4926470000000  0.4314130000000  0.5013210000000 1.0
C      1  0.5538670000000  0.4414780000000  0.5660110000000 1.0
C      1  0.5144360000000  0.4852660000000  0.6131570000000 1.0
C      1  0.5923340000000  0.5071460000000  0.4495180000000 1.0
C      1  0.4573830000000  0.5503490000000  0.4145730000000 1.0
C      1  0.4880710000000  0.5109790000000  0.5658820000000 1.0
C      1  0.5493230000000  0.5751890000000  0.5424970000000 1.0
C      1  0.5486410000000  0.4186490000000  0.4658230000000 1.0
C      1  0.5019410000000  0.4212760000000  0.5680010000000 1.0
C      1  0.5205270000000  0.6133620000000  0.4679800000000 1.0
C      1  0.4587920000000  0.4919350000000  0.4678270000000 1.0
C      1  0.4651800000000  0.5938650000000  0.4983870000000 1.0
C      1  0.4676400000000  0.4119860000000  0.5354200000000 1.0
C      1  0.5895860000000  0.4435240000000  0.5249770000000 1.0
C      1  0.4753900000000  0.4756850000000  0.6022100000000 1.0
C      1  0.5699850000000  0.4326970000000  0.5431140000000 1.0
C      1  0.4827810000000  0.4865710000000  0.4530770000000 1.0
C      1  0.4421230000000  0.4263790000000  0.4640940000000 1.0
C      1  0.4913180000000  0.4035020000000  0.5186370000000 1.0
C      1  0.5092190000000  0.4640790000000  0.4032300000000 1.0
C      1  0.4945360000000  0.4523200000000  0.4921060000000 1.0
C      1  0.4973690000000  0.5648550000000  0.5187190000000 1.0
C      1  0.4877970000000  0.5949600000000  0.5211590000000 1.0
C      1  0.5092850000000  0.5552820000000  0.4104360000000 1.0
C      1  0.4665730000000  0.4919890000000  0.4008450000000 1.0
C      1  0.4349130000000  0.4694030000000  0.4609590000000 1.0
C      1  0.5922750000000  0.4763870000000  0.5209770000000 1.0
C      1  0.4907420000000  0.4053450000000  0.4489520000000 1.0
C      1  0.4361210000000  0.5911370000000  0.5012980000000 1.0
C      1  0.5263980000000  0.5979960000000  0.4423440000000 1.0
C      1  0.5555260000000  0.4220440000000  0.5160820000000 1.0
C      1  0.5244280000000  0.4432470000000  0.4176600000000 1.0
C      1  0.4641250000000  0.5048580000000  0.5554050000000 1.0
C      1  0.5003880000000  0.5056570000000  0.4383040000000 1.0
C      1  0.6153050000000  0.4873620000000  0.5316710000000 1.0
C      1  0.5612730000000  0.5415360000000  0.4192590000000 1.0
C      1  0.4662620000000  0.4538220000000  0.4280570000000 1.0
C      1  0.4811270000000  0.5896380000000  0.5514850000000 1.0
C      1  0.4883970000000  0.5275120000000  0.4551550000000 1.0
C      1  0.5317770000000  0.5041670000000  0.5714600000000 1.0
C      1  0.5429740000000  0.5094400000000  0.4980930000000 1.0
C      1  0.4342790000000  0.5891750000000  0.5306850000000 1.0
C      1  0.4383260000000  0.5285460000000  0.4155660000000 1.0
C      1  0.4471530000000  0.4883190000000  0.5218890000000 1.0
C      1  0.4311810000000  0.4980300000000  0.5045970000000 1.0
C      1  0.5497680000000  0.5107420000000  0.5281170000000 1.0
C      1  0.5723610000000  0.5699740000000  0.5246700000000 1.0
C      1  0.5116920000000  0.4926880000000  0.3946860000000 1.0
C      1  0.4225040000000  0.4540790000000  0.5459830000000 1.0
C      1  0.5018300000000  0.4803120000000  0.4877950000000 1.0
C      1  0.5526450000000  0.5864310000000  0.4405800000000 1.0
C      1  0.4832300000000  0.5495330000000  0.4488500000000 1.0
C      1  0.4872460000000  0.5484670000000  0.5389070000000 1.0
C      1  0.5265390000000  0.5154330000000  0.6040430000000 1.0
C      1  0.4279190000000  0.5238570000000  0.4403000000000 1.0
C      1  0.4822960000000  0.5304150000000  0.5912050000000 1.0
C      1  0.5671770000000  0.5238880000000  0.4930350000000 1.0
C      1  0.5605050000000  0.4916130000000  0.5697160000000 1.0
C      1  0.4749790000000  0.5762230000000  0.4476680000000 1.0
C      1  0.5396020000000  0.4614570000000  0.4841310000000 1.0
C      1  0.5161860000000  0.6057500000000  0.5193830000000 1.0
C      1  0.4889170000000  0.5107530000000  0.4060540000000 1.0
C      1  0.5553160000000  0.5179870000000  0.6014840000000 1.0
C      1  0.4845710000000  0.5416130000000  0.4065590000000 1.0
C      1  0.5067380000000  0.5823520000000  0.5635180000000 1.0
C      1  0.4613440000000  0.5522290000000  0.5516970000000 1.0
C      1  0.5321380000000  0.5136210000000  0.3903440000000 1.0
C      1  0.5307000000000  0.6045480000000  0.4940400000000 1.0
C      1  0.5441200000000  0.4498600000000  0.5080910000000 1.0
C      1  0.5528280000000  0.4746140000000  0.4147540000000 1.0
C      1  0.4617770000000  0.4082580000000  0.4632130000000 1.0
C      1  0.5775650000000  0.5451560000000  0.4746800000000 1.0
C      1  0.5267310000000  0.5928750000000  0.5430530000000 1.0
C      1  0.5237160000000  0.4413970000000  0.5645570000000 1.0
C      1  0.4268340000000  0.4367410000000  0.5224000000000 1.0
C      1  0.4216100000000  0.4833380000000  0.4243310000000 1.0
C      1  0.5068750000000  0.4419190000000  0.4543690000000 1.0
C      1  0.4129420000000  0.5471450000000  0.4906770000000 1.0
C      1  0.4158510000000  0.5053880000000  0.5805570000000 1.0
C      1  0.4232160000000  0.4439290000000  0.4742120000000 1.0
C      1  0.5133620000000  0.4761360000000  0.5291830000000 1.0
C      1  0.4651750000000  0.4550140000000  0.5587100000000 1.0
C      1  0.5750170000000  0.5179980000000  0.5814400000000 1.0
C      1  0.5631860000000  0.4858810000000  0.5389680000000 1.0
C      1  0.4464360000000  0.5270830000000  0.5521920000000 1.0
C      1  0.5050950000000  0.4241660000000  0.4309100000000 1.0
C      1  0.4483940000000  0.5699130000000  0.4342570000000 1.0
C      1  0.4013170000000  0.4994540000000  0.4760020000000 1.0
C      1  0.5290570000000  0.5143740000000  0.4448140000000 1.0
C      1  0.5416730000000  0.4695540000000  0.5286350000000 1.0
C      1  0.5573050000000  0.4642120000000  0.5852420000000 1.0
C      1  0.4850970000000  0.5001510000000  0.4975850000000 1.0
C      1  0.4825890000000  0.4576850000000  0.4526660000000 1.0
C      1  0.5584820000000  0.5562450000000  0.4452870000000 1.0
C      1  0.4383340000000  0.5291270000000  0.4906430000000 1.0
C      1  0.4212350000000  0.5729990000000  0.4808050000000 1.0
C      1  0.4142840000000  0.4511960000000  0.5009720000000 1.0
C      1  0.5192050000000  0.3908450000000  0.5282290000000 1.0
C      1  0.5864300000000  0.4796330000000  0.4630920000000 1.0
C      1  0.3982370000000  0.5284160000000  0.4733620000000 1.0
C      1  0.4855620000000  0.5282280000000  0.4878190000000 1.0
C      1  0.5269790000000  0.5555000000000  0.4795430000000 1.0
C      1  0.5188510000000  0.5609520000000  0.5796310000000 1.0
C      1  0.5729320000000  0.5422920000000  0.5657230000000 1.0
C      1  0.4381770000000  0.4607230000000  0.4315630000000 1.0
C      1  0.4251160000000  0.5673510000000  0.4522660000000 1.0
C      1  0.4044470000000  0.4985080000000  0.5551000000000 1.0
C      1  0.5040030000000  0.5805780000000  0.4278800000000 1.0
C      1  0.4391320000000  0.4972730000000  0.5977120000000 1.0
C      1  0.5057820000000  0.5490300000000  0.4965660000000 1.0
C      1  0.4098780000000  0.4851820000000  0.4524260000000 1.0
C      1  0.4192360000000  0.5225430000000  0.5592400000000 1.0
C      1  0.4063640000000  0.4799600000000  0.5060160000000 1.0
C      1  0.5714330000000  0.4520580000000  0.4535850000000 1.0
C      1  0.5289930000000  0.4872630000000  0.4851100000000 1.0
C      1  0.5335270000000  0.4438910000000  0.4639470000000 1.0
C      1  0.4735430000000  0.4286390000000  0.5584580000000 1.0
C      1  0.4073930000000  0.4764270000000  0.5365950000000 1.0
C      1  0.4415590000000  0.4522680000000  0.5694530000000 1.0
C      1  0.4981850000000  0.4761910000000  0.5969090000000 1.0
C      1  0.5821970000000  0.4278950000000  0.5019730000000 1.0
C      1  0.4646030000000  0.4796690000000  0.5407660000000 1.0
C      1  0.5710680000000  0.5696100000000  0.4957280000000 1.0
C      1  0.5064920000000  0.4879190000000  0.5712970000000 1.0
END
