TITL C-883732-77-267 0.00352617285432364 125000 -14082.9000462574 0 0 96 (C1) n - 1
REM
REM in /home/nfs/bkarasulu/CARBON/AIRSS/Generating-Clusters/ReaxFF-fromJPCA2015/Units_Real/with-SteepDescent/Only-C1/SD-CG/Try1-3A/FIRE-CG
REM
REM
REM
REM
REM
REM ./C.cell (11c1c37f851c82e70ff6c80c92926a4b)
REM
REM compiler GCC version 9.2.1 20190827 (Red Hat 9.2.1-1)
REM options -cpp -mtune=generic -march=x86-64 -g -O0 -fpre-include=/usr/include/finclude/math-vector-fortran.h
REM seed -30819714 -1316764907 2122094183 -1869873376 -1304173404 -502904613 1327381967 1604875758 -2094356064 -1496398644 -382472304 -1343672654 422584974 -1696787660 -1460814032 1676749969 -944752633 1034835263 1626564503 -1243872303 1895341620 1634468230 1526766948 1827131477 -639831341 -1135638203 488532537 2138492856 -1708668180 2035718440 -741426942 504136757 2109094400
REM
CELL 1.54180   50.00000   50.00000   50.00000   90.00000   90.00000   90.00000
LATT -1
SFAC C  
C      1  0.5857290000000  0.5030190000000  0.4670070000000 1.0
C      1  0.5746560000000  0.4554990000000  0.4856810000000 1.0
C      1  0.5936060000000  0.4805960000000  0.4827250000000 1.0
C      1  0.5335270000000  0.4278190000000  0.4648210000000 1.0
C      1  0.5328020000000  0.5759460000000  0.5401350000000 1.0
C      1  0.4678190000000  0.5084020000000  0.5167540000000 1.0
C      1  0.5024170000000  0.5346990000000  0.5460480000000 1.0
C      1  0.5001630000000  0.5226500000000  0.4770200000000 1.0
C      1  0.4859730000000  0.4742680000000  0.5378080000000 1.0
C      1  0.4584260000000  0.4773400000000  0.5774600000000 1.0
C      1  0.4486310000000  0.4415510000000  0.5051080000000 1.0
C      1  0.5655480000000  0.4490540000000  0.5125760000000 1.0
C      1  0.5256530000000  0.4540050000000  0.4321490000000 1.0
C      1  0.5494260000000  0.5625650000000  0.5200550000000 1.0
C      1  0.4303940000000  0.5024250000000  0.4704440000000 1.0
C      1  0.5875380000000  0.4943020000000  0.5077980000000 1.0
C      1  0.4671110000000  0.4905120000000  0.4940180000000 1.0
C      1  0.5134650000000  0.4300520000000  0.4434770000000 1.0
C      1  0.4728070000000  0.4492850000000  0.5423070000000 1.0
C      1  0.4373650000000  0.5576710000000  0.5229450000000 1.0
C      1  0.5538730000000  0.5150840000000  0.4286710000000 1.0
C      1  0.5309130000000  0.4213230000000  0.4940480000000 1.0
C      1  0.4682580000000  0.4624040000000  0.5044310000000 1.0
C      1  0.4170610000000  0.4658510000000  0.5065360000000 1.0
C      1  0.4834160000000  0.4137840000000  0.5108360000000 1.0
C      1  0.4793200000000  0.5521700000000  0.5083280000000 1.0
C      1  0.4454680000000  0.4617200000000  0.4440090000000 1.0
C      1  0.5650280000000  0.5141880000000  0.5022240000000 1.0
C      1  0.5537160000000  0.5603930000000  0.4912450000000 1.0
C      1  0.5269610000000  0.5441950000000  0.5840150000000 1.0
C      1  0.5534430000000  0.5325630000000  0.5292630000000 1.0
C      1  0.5331320000000  0.5250940000000  0.4139270000000 1.0
C      1  0.4897800000000  0.5793610000000  0.5114580000000 1.0
C      1  0.4329880000000  0.4728300000000  0.4679650000000 1.0
C      1  0.4674460000000  0.4532270000000  0.5701530000000 1.0
C      1  0.4295940000000  0.4491680000000  0.4868200000000 1.0
C      1  0.4274680000000  0.5204550000000  0.4931980000000 1.0
C      1  0.4675380000000  0.5677160000000  0.4722840000000 1.0
C      1  0.4663970000000  0.5515500000000  0.5657230000000 1.0
C      1  0.4806420000000  0.5310680000000  0.5258800000000 1.0
C      1  0.4704660000000  0.4954350000000  0.5402000000000 1.0
C      1  0.4853400000000  0.4944520000000  0.4723310000000 1.0
C      1  0.5371770000000  0.5668060000000  0.5681060000000 1.0
C      1  0.4590480000000  0.4373880000000  0.4449820000000 1.0
C      1  0.4878370000000  0.4681360000000  0.5813190000000 1.0
C      1  0.5213030000000  0.5299020000000  0.4566350000000 1.0
C      1  0.5236600000000  0.5307030000000  0.5265370000000 1.0
C      1  0.4793880000000  0.5304980000000  0.5819080000000 1.0
C      1  0.5399250000000  0.4367090000000  0.5180240000000 1.0
C      1  0.5527260000000  0.4712730000000  0.4755130000000 1.0
C      1  0.4919630000000  0.5623130000000  0.5556800000000 1.0
C      1  0.4954530000000  0.4569800000000  0.4951280000000 1.0
C      1  0.5149920000000  0.4785880000000  0.4203420000000 1.0
C      1  0.5037030000000  0.5815440000000  0.5371510000000 1.0
C      1  0.5218980000000  0.4903830000000  0.5731110000000 1.0
C      1  0.5119180000000  0.5785220000000  0.4634690000000 1.0
C      1  0.5125180000000  0.4651250000000  0.5657200000000 1.0
C      1  0.5301880000000  0.5722480000000  0.4837270000000 1.0
C      1  0.5789690000000  0.4728300000000  0.5269920000000 1.0
C      1  0.4864380000000  0.4412160000000  0.4524250000000 1.0
C      1  0.4727850000000  0.5592020000000  0.4444020000000 1.0
C      1  0.4186740000000  0.4849860000000  0.5260470000000 1.0
C      1  0.5614050000000  0.5236890000000  0.5575710000000 1.0
C      1  0.5359370000000  0.4978290000000  0.4130100000000 1.0
C      1  0.4584900000000  0.4206590000000  0.4928730000000 1.0
C      1  0.5649300000000  0.4833210000000  0.5478780000000 1.0
C      1  0.4768100000000  0.5423610000000  0.4819350000000 1.0
C      1  0.5248850000000  0.4925650000000  0.5110030000000 1.0
C      1  0.5469690000000  0.4520330000000  0.4540670000000 1.0
C      1  0.5495890000000  0.5221690000000  0.4570950000000 1.0
C      1  0.4310220000000  0.5171240000000  0.5481340000000 1.0
C      1  0.4201310000000  0.5121830000000  0.5209620000000 1.0
C      1  0.4409770000000  0.4982330000000  0.4256060000000 1.0
C      1  0.5514490000000  0.4970440000000  0.5668360000000 1.0
C      1  0.5012170000000  0.5626280000000  0.4402220000000 1.0
C      1  0.4871970000000  0.4895960000000  0.4212100000000 1.0
C      1  0.5081220000000  0.5210160000000  0.5777160000000 1.0
C      1  0.5550450000000  0.5447450000000  0.5765480000000 1.0
C      1  0.4368300000000  0.5174990000000  0.4454140000000 1.0
C      1  0.4960170000000  0.4682080000000  0.4690660000000 1.0
C      1  0.5084600000000  0.4699500000000  0.5207260000000 1.0
C      1  0.4931740000000  0.4291700000000  0.5338470000000 1.0
C      1  0.4661800000000  0.4216770000000  0.4654270000000 1.0
C      1  0.5446080000000  0.4938160000000  0.4916150000000 1.0
C      1  0.4592490000000  0.4774580000000  0.4220550000000 1.0
C      1  0.4463520000000  0.4924640000000  0.5557940000000 1.0
C      1  0.4372020000000  0.5498760000000  0.4936260000000 1.0
C      1  0.4421640000000  0.5441790000000  0.5481330000000 1.0
C      1  0.5655730000000  0.5336620000000  0.4790420000000 1.0
C      1  0.5134450000000  0.5172570000000  0.5044460000000 1.0
C      1  0.5078170000000  0.4023640000000  0.4986290000000 1.0
C      1  0.5111380000000  0.5356830000000  0.4293730000000 1.0
C      1  0.5186140000000  0.4440020000000  0.5389380000000 1.0
C      1  0.4843250000000  0.5174100000000  0.4254610000000 1.0
C      1  0.4623960000000  0.5321240000000  0.4358650000000 1.0
C      1  0.4904150000000  0.5849620000000  0.4827780000000 1.0
END
