TITL C-883732-77-283 -7.04271498737909 125000 -11764.2181167181 0 0 80 (C1) n - 1
REM
REM in /home/nfs/bkarasulu/CARBON/AIRSS/Generating-Clusters/ReaxFF-fromJPCA2015/Units_Real/with-SteepDescent/Only-C1/SD-CG/Try1-3A/FIRE-CG
REM
REM
REM
REM
REM
REM ./C.cell (11c1c37f851c82e70ff6c80c92926a4b)
REM
REM compiler GCC version 9.2.1 20190827 (Red Hat 9.2.1-1)
REM options -cpp -mtune=generic -march=x86-64 -g -O0 -fpre-include=/usr/include/finclude/math-vector-fortran.h
REM seed 2095623735 -116977072 -113266283 -1258159649 1632149443 -960185826 1796140769 1073354190 -1823169778 -1475433039 -31096955 668627851 314279715 1225168734 -1834788786 1609357239 -776959315 -435962316 790308182 -658418738 509517186 -871385751 1406296062 2092662246 619080617 776379276 -1155232171 -737480455 1549256799 -216867568 196245977 412544387 -1815408554
REM
CELL 1.54180   50.00000   50.00000   50.00000   90.00000   90.00000   90.00000
LATT -1
SFAC C  
C      1  0.4290090000000  0.4943170000000  0.5065410000000 1.0
C      1  0.4426600000000  0.4919730000000  0.5825590000000 1.0
C      1  0.5284110000000  0.5021180000000  0.4669960000000 1.0
C      1  0.5115320000000  0.4759610000000  0.4186620000000 1.0
C      1  0.4780160000000  0.5192440000000  0.4939260000000 1.0
C      1  0.4589380000000  0.5130380000000  0.5687560000000 1.0
C      1  0.5612890000000  0.4584720000000  0.5446770000000 1.0
C      1  0.5356120000000  0.4951010000000  0.4945440000000 1.0
C      1  0.4315260000000  0.5169890000000  0.5247220000000 1.0
C      1  0.5667580000000  0.4604520000000  0.4957420000000 1.0
C      1  0.4942520000000  0.5384980000000  0.4800160000000 1.0
C      1  0.5425120000000  0.4608580000000  0.4496630000000 1.0
C      1  0.4269590000000  0.5047190000000  0.4786360000000 1.0
C      1  0.5483160000000  0.4779580000000  0.5616040000000 1.0
C      1  0.4434680000000  0.5496300000000  0.4945120000000 1.0
C      1  0.4958750000000  0.4952800000000  0.5252970000000 1.0
C      1  0.5346450000000  0.4544870000000  0.5537640000000 1.0
C      1  0.5347410000000  0.5792070000000  0.5086380000000 1.0
C      1  0.4487670000000  0.4874240000000  0.4724690000000 1.0
C      1  0.4894390000000  0.5443050000000  0.5528820000000 1.0
C      1  0.5261580000000  0.4372980000000  0.4899400000000 1.0
C      1  0.4739960000000  0.4202730000000  0.5028390000000 1.0
C      1  0.5367600000000  0.4262300000000  0.5151280000000 1.0
C      1  0.4673160000000  0.4542060000000  0.4418510000000 1.0
C      1  0.5632240000000  0.5315490000000  0.5308540000000 1.0
C      1  0.5660360000000  0.5387510000000  0.4602510000000 1.0
C      1  0.4716840000000  0.5542670000000  0.5318630000000 1.0
C      1  0.5743890000000  0.5160720000000  0.5082760000000 1.0
C      1  0.5187200000000  0.5486990000000  0.5444730000000 1.0
C      1  0.4907230000000  0.5516250000000  0.4383430000000 1.0
C      1  0.5492810000000  0.4490190000000  0.4749560000000 1.0
C      1  0.4891110000000  0.4879740000000  0.4510200000000 1.0
C      1  0.5599010000000  0.4443560000000  0.5191400000000 1.0
C      1  0.5649910000000  0.5125070000000  0.4490090000000 1.0
C      1  0.4894910000000  0.4247220000000  0.4771040000000 1.0
C      1  0.5375400000000  0.5832740000000  0.4601620000000 1.0
C      1  0.5161600000000  0.5283200000000  0.4639010000000 1.0
C      1  0.5491720000000  0.5517720000000  0.5081190000000 1.0
C      1  0.4812490000000  0.4597720000000  0.5562760000000 1.0
C      1  0.5026250000000  0.5028350000000  0.4297740000000 1.0
C      1  0.5478190000000  0.4907780000000  0.4467210000000 1.0
C      1  0.5692040000000  0.5380640000000  0.4895090000000 1.0
C      1  0.4654800000000  0.4828720000000  0.4342730000000 1.0
C      1  0.4821700000000  0.5256970000000  0.4284730000000 1.0
C      1  0.4884930000000  0.4743040000000  0.4994030000000 1.0
C      1  0.4782410000000  0.4944400000000  0.4790930000000 1.0
C      1  0.4782980000000  0.5606080000000  0.4648270000000 1.0
C      1  0.4862760000000  0.5232660000000  0.5727710000000 1.0
C      1  0.5447420000000  0.5580250000000  0.4479770000000 1.0
C      1  0.4916550000000  0.5790520000000  0.4876060000000 1.0
C      1  0.4494670000000  0.4415910000000  0.5043590000000 1.0
C      1  0.4425640000000  0.5452310000000  0.5210950000000 1.0
C      1  0.4505590000000  0.4595030000000  0.4649630000000 1.0
C      1  0.5151450000000  0.5756290000000  0.5291660000000 1.0
C      1  0.4479950000000  0.5503820000000  0.4680500000000 1.0
C      1  0.4556470000000  0.5105490000000  0.5396590000000 1.0
C      1  0.4318920000000  0.4688260000000  0.5673770000000 1.0
C      1  0.5165000000000  0.4535420000000  0.4382320000000 1.0
C      1  0.4883260000000  0.5736260000000  0.5162250000000 1.0
C      1  0.5238970000000  0.5373160000000  0.5168790000000 1.0
C      1  0.5141960000000  0.4250010000000  0.5347830000000 1.0
C      1  0.5360360000000  0.5045410000000  0.5653530000000 1.0
C      1  0.5143940000000  0.4541860000000  0.5338520000000 1.0
C      1  0.5189580000000  0.5448430000000  0.4393170000000 1.0
C      1  0.4370160000000  0.4647100000000  0.5170360000000 1.0
C      1  0.4574050000000  0.5118200000000  0.4372780000000 1.0
C      1  0.4967760000000  0.4828180000000  0.5554340000000 1.0
C      1  0.5076590000000  0.5031130000000  0.5737080000000 1.0
C      1  0.5198850000000  0.5871790000000  0.4848550000000 1.0
C      1  0.5446260000000  0.5285800000000  0.5520970000000 1.0
C      1  0.4920260000000  0.4404130000000  0.4519290000000 1.0
C      1  0.4848010000000  0.4214850000000  0.5298580000000 1.0
C      1  0.5640470000000  0.4897100000000  0.4992510000000 1.0
C      1  0.5123180000000  0.4584060000000  0.5053170000000 1.0
C      1  0.4680370000000  0.4564040000000  0.4881130000000 1.0
C      1  0.4775180000000  0.5158910000000  0.5218560000000 1.0
C      1  0.4401590000000  0.5237440000000  0.4580220000000 1.0
C      1  0.4675270000000  0.4377260000000  0.5482170000000 1.0
C      1  0.4401790000000  0.4532330000000  0.5436300000000 1.0
C      1  0.5208130000000  0.5093480000000  0.5155510000000 1.0
END
