TITL C-884131-4643-299 -28.2463783967724 125000 -11598.0249026022 0 0 77 (C1) n - 1
REM
REM in /home/nfs/bkarasulu/CARBON/AIRSS/Generating-Clusters/ReaxFF-fromJPCA2015/Units_Real/with-SteepDescent/Only-C1/SD-CG/Try1-3A/FIRE-CG
REM
REM
REM
REM
REM
REM ./C.cell (11c1c37f851c82e70ff6c80c92926a4b)
REM
REM compiler GCC version 9.2.1 20190827 (Red Hat 9.2.1-1)
REM options -cpp -mtune=generic -march=x86-64 -g -O0 -fpre-include=/usr/include/finclude/math-vector-fortran.h
REM seed 23816760 1741666028 -365394851 -1464376642 -120716946 -155896155 1988772281 251497809 -546482492 -1100528752 454535337 -318022678 -515997861 -288023842 -1340271461 1812199198 -381650656 -1050317281 365412936 -724022178 -618174040 -153700687 -1783465422 329301886 1043053738 1498091579 -1423903408 325572920 -1876243518 2071975556 -177300877 89871762 1689805474
REM
CELL 1.54180   50.00000   50.00000   50.00000   90.00000   90.00000   90.00000
LATT -1
SFAC C  
C      1  0.4601380000000  0.5820040000000  0.5116440000000 1.0
C      1  0.4664200000000  0.5013600000000  0.4267090000000 1.0
C      1  0.4914980000000  0.5187380000000  0.5113380000000 1.0
C      1  0.5679740000000  0.5349800000000  0.4903870000000 1.0
C      1  0.5209980000000  0.5579840000000  0.5496810000000 1.0
C      1  0.4210780000000  0.4929690000000  0.4818900000000 1.0
C      1  0.4528020000000  0.4368590000000  0.4777000000000 1.0
C      1  0.4994310000000  0.4444090000000  0.5431610000000 1.0
C      1  0.5702060000000  0.4842220000000  0.4372260000000 1.0
C      1  0.4474730000000  0.4681500000000  0.5356540000000 1.0
C      1  0.4912060000000  0.5024210000000  0.5353210000000 1.0
C      1  0.4578900000000  0.5533080000000  0.5531270000000 1.0
C      1  0.5028490000000  0.4676160000000  0.5673680000000 1.0
C      1  0.4862070000000  0.5876760000000  0.5250910000000 1.0
C      1  0.4887670000000  0.4992120000000  0.4337220000000 1.0
C      1  0.4984610000000  0.4341630000000  0.4625910000000 1.0
C      1  0.5321990000000  0.4286840000000  0.5019140000000 1.0
C      1  0.5593890000000  0.4405550000000  0.5119070000000 1.0
C      1  0.5211850000000  0.5674770000000  0.4984550000000 1.0
C      1  0.5246240000000  0.4367730000000  0.4746270000000 1.0
C      1  0.5020550000000  0.5672210000000  0.4796430000000 1.0
C      1  0.4388620000000  0.5369510000000  0.5384510000000 1.0
C      1  0.4959810000000  0.4726710000000  0.4285990000000 1.0
C      1  0.4681220000000  0.4321090000000  0.5032250000000 1.0
C      1  0.5402780000000  0.5094120000000  0.4501290000000 1.0
C      1  0.4460500000000  0.4386610000000  0.5438640000000 1.0
C      1  0.5689850000000  0.4562800000000  0.4880820000000 1.0
C      1  0.5190480000000  0.5172900000000  0.5012640000000 1.0
C      1  0.5788310000000  0.4772140000000  0.5015900000000 1.0
C      1  0.5266320000000  0.5052190000000  0.4241010000000 1.0
C      1  0.5055490000000  0.5364370000000  0.5643250000000 1.0
C      1  0.4743720000000  0.4980730000000  0.4972380000000 1.0
C      1  0.5864290000000  0.4980910000000  0.5197270000000 1.0
C      1  0.4767770000000  0.4205600000000  0.4774340000000 1.0
C      1  0.5199580000000  0.4899580000000  0.4926970000000 1.0
C      1  0.5117400000000  0.5740560000000  0.5250730000000 1.0
C      1  0.4832110000000  0.4552550000000  0.4483930000000 1.0
C      1  0.4333800000000  0.5402850000000  0.5095090000000 1.0
C      1  0.4636720000000  0.5089460000000  0.5696310000000 1.0
C      1  0.5806610000000  0.5048440000000  0.4490570000000 1.0
C      1  0.4567830000000  0.5560290000000  0.4667310000000 1.0
C      1  0.4139330000000  0.4936160000000  0.5104500000000 1.0
C      1  0.4278330000000  0.4891990000000  0.5363070000000 1.0
C      1  0.4640330000000  0.5174210000000  0.4803280000000 1.0
C      1  0.4487840000000  0.5607400000000  0.4947280000000 1.0
C      1  0.5675330000000  0.5288720000000  0.5425890000000 1.0
C      1  0.5214490000000  0.4332670000000  0.5277600000000 1.0
C      1  0.5022240000000  0.5213190000000  0.4246110000000 1.0
C      1  0.4735420000000  0.4800440000000  0.5420400000000 1.0
C      1  0.5290270000000  0.5351800000000  0.4598300000000 1.0
C      1  0.5720610000000  0.4992620000000  0.5456250000000 1.0
C      1  0.4481300000000  0.5280580000000  0.4608290000000 1.0
C      1  0.4938450000000  0.4750960000000  0.4970780000000 1.0
C      1  0.4863770000000  0.4527670000000  0.5137700000000 1.0
C      1  0.5770710000000  0.5206370000000  0.4689660000000 1.0
C      1  0.5252560000000  0.4851790000000  0.5654700000000 1.0
C      1  0.5123360000000  0.5093130000000  0.5546480000000 1.0
C      1  0.5359550000000  0.4858110000000  0.4691110000000 1.0
C      1  0.5455730000000  0.4572860000000  0.4651280000000 1.0
C      1  0.5803690000000  0.5270500000000  0.5152140000000 1.0
C      1  0.4854970000000  0.5614570000000  0.4587730000000 1.0
C      1  0.4763670000000  0.5353520000000  0.5678120000000 1.0
C      1  0.4777850000000  0.4824220000000  0.5711810000000 1.0
C      1  0.4176460000000  0.5189770000000  0.4967270000000 1.0
C      1  0.4726380000000  0.4262650000000  0.5444630000000 1.0
C      1  0.4379760000000  0.4830300000000  0.4598040000000 1.0
C      1  0.4626270000000  0.5794230000000  0.5406540000000 1.0
C      1  0.4562470000000  0.4591990000000  0.4593720000000 1.0
C      1  0.5493730000000  0.4652820000000  0.4343940000000 1.0
C      1  0.5358410000000  0.5396810000000  0.4891110000000 1.0
C      1  0.5527250000000  0.4778000000000  0.5528910000000 1.0
C      1  0.4428590000000  0.5048200000000  0.4409930000000 1.0
C      1  0.5056990000000  0.5427220000000  0.4457660000000 1.0
C      1  0.5437960000000  0.5435920000000  0.5465250000000 1.0
C      1  0.4401560000000  0.5109710000000  0.5517470000000 1.0
C      1  0.5542520000000  0.4570790000000  0.5344930000000 1.0
C      1  0.5250110000000  0.4766920000000  0.4225310000000 1.0
END
