TITL C-884133-6611-67 13.998056993644 125000 -27498.7279110911 0 0 183 (C1) n - 1
REM
REM in /home/nfs/bkarasulu/CARBON/AIRSS/Generating-Clusters/ReaxFF-fromJPCA2015/Units_Real/with-SteepDescent/Only-C1/SD-CG/Try1-3A/FIRE-CG
REM
REM
REM
REM
REM
REM ./C.cell (11c1c37f851c82e70ff6c80c92926a4b)
REM
REM compiler GCC version 9.2.1 20190827 (Red Hat 9.2.1-1)
REM options -cpp -mtune=generic -march=x86-64 -g -O0 -fpre-include=/usr/include/finclude/math-vector-fortran.h
REM seed 360742270 434883200 -100496024 -577704868 -544320189 -1688149689 -29259540 1675395869 -1169593830 -801803701 -1158022633 1869430760 1057170191 -1270224893 122532577 -1686445187 -1440404685 -399102709 1501487949 1257001632 -1504013156 1964313997 2039889547 -374032269 -1293179073 2021353296 -340799509 786558047 556936401 -1208084933 2084704331 1538044429 1057402221
REM
CELL 1.54180   50.00000   50.00000   50.00000   90.00000   90.00000   90.00000
LATT -1
SFAC C  
C      1  0.4606230000000  0.4137540000000  0.5257150000000 1.0
C      1  0.4894910000000  0.4501400000000  0.4297290000000 1.0
C      1  0.5392360000000  0.4342160000000  0.5070860000000 1.0
C      1  0.5183980000000  0.4741470000000  0.3961920000000 1.0
C      1  0.5105320000000  0.5047960000000  0.3954160000000 1.0
C      1  0.4770300000000  0.4904550000000  0.4966880000000 1.0
C      1  0.4051230000000  0.4389200000000  0.5539200000000 1.0
C      1  0.6000290000000  0.4750570000000  0.4780040000000 1.0
C      1  0.5160260000000  0.5667710000000  0.5170870000000 1.0
C      1  0.5397280000000  0.5384230000000  0.6077110000000 1.0
C      1  0.4299010000000  0.4541010000000  0.4420080000000 1.0
C      1  0.4628680000000  0.4945680000000  0.5890420000000 1.0
C      1  0.4963950000000  0.5139690000000  0.4343660000000 1.0
C      1  0.5116370000000  0.4984030000000  0.6018460000000 1.0
C      1  0.4896240000000  0.5476930000000  0.4635180000000 1.0
C      1  0.5011100000000  0.5236590000000  0.5898780000000 1.0
C      1  0.4884510000000  0.6018360000000  0.4287980000000 1.0
C      1  0.5296010000000  0.4835100000000  0.5236300000000 1.0
C      1  0.5290330000000  0.3917950000000  0.5296040000000 1.0
C      1  0.5605980000000  0.5965050000000  0.4516710000000 1.0
C      1  0.4324020000000  0.5709270000000  0.4317160000000 1.0
C      1  0.5358420000000  0.4936550000000  0.4475960000000 1.0
C      1  0.3923110000000  0.4644480000000  0.5240540000000 1.0
C      1  0.5296570000000  0.4062780000000  0.4693150000000 1.0
C      1  0.4593320000000  0.5121390000000  0.4043430000000 1.0
C      1  0.5786440000000  0.4631800000000  0.4320350000000 1.0
C      1  0.5671040000000  0.4822960000000  0.4118690000000 1.0
C      1  0.4711390000000  0.5317770000000  0.5238270000000 1.0
C      1  0.5907610000000  0.5282270000000  0.4607300000000 1.0
C      1  0.5546020000000  0.5780130000000  0.5524620000000 1.0
C      1  0.5357140000000  0.5736200000000  0.4067040000000 1.0
C      1  0.5898940000000  0.4753580000000  0.5470200000000 1.0
C      1  0.4882830000000  0.4537820000000  0.4633310000000 1.0
C      1  0.4665380000000  0.5551610000000  0.5078680000000 1.0
C      1  0.5101820000000  0.4998170000000  0.4556470000000 1.0
C      1  0.5568120000000  0.4331180000000  0.5579420000000 1.0
C      1  0.4337030000000  0.4024880000000  0.5173310000000 1.0
C      1  0.5487810000000  0.3860980000000  0.5095450000000 1.0
C      1  0.5776910000000  0.4310480000000  0.4660160000000 1.0
C      1  0.4446670000000  0.4196340000000  0.4680820000000 1.0
C      1  0.5855950000000  0.4466190000000  0.5149580000000 1.0
C      1  0.5406680000000  0.4087770000000  0.5514370000000 1.0
C      1  0.4295560000000  0.4681590000000  0.4161980000000 1.0
C      1  0.5784780000000  0.5627360000000  0.5443650000000 1.0
C      1  0.5131530000000  0.6074170000000  0.5369100000000 1.0
C      1  0.4763050000000  0.4351170000000  0.5828060000000 1.0
C      1  0.5593980000000  0.5197860000000  0.6009160000000 1.0
C      1  0.5345590000000  0.5389160000000  0.5597300000000 1.0
C      1  0.4157830000000  0.5050880000000  0.4284760000000 1.0
C      1  0.4749790000000  0.4717020000000  0.5209810000000 1.0
C      1  0.5642080000000  0.4406280000000  0.4423460000000 1.0
C      1  0.5290150000000  0.4319550000000  0.4824020000000 1.0
C      1  0.4225260000000  0.5720260000000  0.5044980000000 1.0
C      1  0.4522280000000  0.5574650000000  0.4461300000000 1.0
C      1  0.4316440000000  0.4639870000000  0.4994260000000 1.0
C      1  0.4577100000000  0.5912620000000  0.5758740000000 1.0
C      1  0.4341800000000  0.5151850000000  0.4977470000000 1.0
C      1  0.5330350000000  0.5854970000000  0.5336850000000 1.0
C      1  0.5236840000000  0.4470640000000  0.5985400000000 1.0
C      1  0.5562180000000  0.4901230000000  0.5150510000000 1.0
C      1  0.5221810000000  0.4542760000000  0.4666710000000 1.0
C      1  0.5813850000000  0.5078450000000  0.4426520000000 1.0
C      1  0.4170050000000  0.4608510000000  0.4730020000000 1.0
C      1  0.5001640000000  0.3881460000000  0.5211160000000 1.0
C      1  0.6028190000000  0.5225980000000  0.4876840000000 1.0
C      1  0.4861640000000  0.5884020000000  0.5833170000000 1.0
C      1  0.4936070000000  0.4516210000000  0.5147990000000 1.0
C      1  0.5056890000000  0.5412350000000  0.4392010000000 1.0
C      1  0.5217680000000  0.4532980000000  0.5229630000000 1.0
C      1  0.4630710000000  0.5166180000000  0.5007870000000 1.0
C      1  0.4957160000000  0.4526940000000  0.6034300000000 1.0
C      1  0.5784680000000  0.4895480000000  0.5704890000000 1.0
C      1  0.4900580000000  0.4565040000000  0.5620830000000 1.0
C      1  0.4291630000000  0.4737350000000  0.5516620000000 1.0
C      1  0.5597330000000  0.5540470000000  0.4332260000000 1.0
C      1  0.4961970000000  0.5653060000000  0.5982680000000 1.0
C      1  0.4572710000000  0.5231510000000  0.5988850000000 1.0
C      1  0.5603320000000  0.4139580000000  0.5094090000000 1.0
C      1  0.4710470000000  0.5898610000000  0.4063380000000 1.0
C      1  0.5131950000000  0.4446240000000  0.5529340000000 1.0
C      1  0.4843620000000  0.5447960000000  0.3782870000000 1.0
C      1  0.5888960000000  0.5651130000000  0.5165750000000 1.0
C      1  0.4626990000000  0.4987090000000  0.5594140000000 1.0
C      1  0.4226180000000  0.5607960000000  0.5495250000000 1.0
C      1  0.5823050000000  0.5847900000000  0.4953130000000 1.0
C      1  0.4316890000000  0.5791080000000  0.5289870000000 1.0
C      1  0.4689840000000  0.4790480000000  0.4691070000000 1.0
C      1  0.5483320000000  0.4488920000000  0.5817380000000 1.0
C      1  0.4938250000000  0.5203180000000  0.5369230000000 1.0
C      1  0.4333380000000  0.4783910000000  0.5821310000000 1.0
C      1  0.4039500000000  0.5532430000000  0.5136230000000 1.0
C      1  0.4126850000000  0.4208210000000  0.5064110000000 1.0
C      1  0.5784010000000  0.5181950000000  0.5766370000000 1.0
C      1  0.6043320000000  0.4919590000000  0.5276170000000 1.0
C      1  0.5423540000000  0.5265560000000  0.4901370000000 1.0
C      1  0.5547600000000  0.5824350000000  0.4250460000000 1.0
C      1  0.4352250000000  0.5473080000000  0.4643460000000 1.0
C      1  0.4833430000000  0.5175770000000  0.3884800000000 1.0
C      1  0.3942130000000  0.4919750000000  0.5189280000000 1.0
C      1  0.5495940000000  0.3875710000000  0.4794200000000 1.0
C      1  0.4478340000000  0.3863610000000  0.4992100000000 1.0
C      1  0.5325620000000  0.4390490000000  0.4380060000000 1.0
C      1  0.4221550000000  0.4410410000000  0.5757670000000 1.0
C      1  0.5298050000000  0.5351020000000  0.5139520000000 1.0
C      1  0.5070600000000  0.5298760000000  0.5611080000000 1.0
C      1  0.4502560000000  0.4948120000000  0.4583160000000 1.0
C      1  0.4447370000000  0.4290880000000  0.4388910000000 1.0
C      1  0.4746590000000  0.4721040000000  0.4152220000000 1.0
C      1  0.5430620000000  0.5628150000000  0.5748260000000 1.0
C      1  0.4485840000000  0.4380130000000  0.5795650000000 1.0
C      1  0.3912760000000  0.5309860000000  0.5022100000000 1.0
C      1  0.5673870000000  0.5122180000000  0.5306280000000 1.0
C      1  0.5985670000000  0.5213840000000  0.5339170000000 1.0
C      1  0.5571010000000  0.4768760000000  0.5858340000000 1.0
C      1  0.5807510000000  0.5804450000000  0.4662330000000 1.0
C      1  0.4437910000000  0.5615130000000  0.4886720000000 1.0
C      1  0.4737350000000  0.5724130000000  0.4622910000000 1.0
C      1  0.4831590000000  0.5260820000000  0.4801020000000 1.0
C      1  0.4804370000000  0.4802130000000  0.5483570000000 1.0
C      1  0.4426770000000  0.4651780000000  0.5252200000000 1.0
C      1  0.4933040000000  0.6065240000000  0.5606010000000 1.0
C      1  0.3857190000000  0.5024530000000  0.4919920000000 1.0
C      1  0.4535620000000  0.4544580000000  0.4087900000000 1.0
C      1  0.5284130000000  0.5487830000000  0.3976900000000 1.0
C      1  0.4605220000000  0.5901390000000  0.5290820000000 1.0
C      1  0.5632470000000  0.6085400000000  0.4941350000000 1.0
C      1  0.5440110000000  0.6094730000000  0.4714140000000 1.0
C      1  0.4908810000000  0.4059940000000  0.4427810000000 1.0
C      1  0.4167420000000  0.5008250000000  0.5907770000000 1.0
C      1  0.4447800000000  0.5830830000000  0.4158690000000 1.0
C      1  0.5418360000000  0.4962870000000  0.6017700000000 1.0
C      1  0.4800110000000  0.3977960000000  0.5403650000000 1.0
C      1  0.5168070000000  0.4518090000000  0.4156930000000 1.0
C      1  0.5789650000000  0.4477420000000  0.5417950000000 1.0
C      1  0.4415490000000  0.5685380000000  0.5699460000000 1.0
C      1  0.4038540000000  0.5076680000000  0.4539580000000 1.0
C      1  0.4740320000000  0.5003220000000  0.4236250000000 1.0
C      1  0.4533740000000  0.3889860000000  0.4718570000000 1.0
C      1  0.4329800000000  0.4994230000000  0.4078900000000 1.0
C      1  0.6021620000000  0.5404520000000  0.5098840000000 1.0
C      1  0.4220860000000  0.5056050000000  0.5203740000000 1.0
C      1  0.5912610000000  0.4488860000000  0.4872470000000 1.0
C      1  0.5714330000000  0.4075550000000  0.4818950000000 1.0
C      1  0.4883900000000  0.4065260000000  0.5697480000000 1.0
C      1  0.4653680000000  0.6076470000000  0.5522350000000 1.0
C      1  0.5191120000000  0.4117700000000  0.4429420000000 1.0
C      1  0.5146020000000  0.5998980000000  0.4799670000000 1.0
C      1  0.5128100000000  0.5069190000000  0.5174790000000 1.0
C      1  0.6051450000000  0.4950720000000  0.4981700000000 1.0
C      1  0.4822630000000  0.3878460000000  0.4668900000000 1.0
C      1  0.5483410000000  0.5332960000000  0.5345970000000 1.0
C      1  0.4771950000000  0.4299980000000  0.5051660000000 1.0
C      1  0.4295360000000  0.5285660000000  0.5928970000000 1.0
C      1  0.5003710000000  0.5039150000000  0.4853570000000 1.0
C      1  0.4895700000000  0.3865550000000  0.4941570000000 1.0
C      1  0.4909040000000  0.5951300000000  0.4564320000000 1.0
C      1  0.4821580000000  0.5720580000000  0.3862770000000 1.0
C      1  0.4805740000000  0.5404250000000  0.6026620000000 1.0
C      1  0.5918620000000  0.4823080000000  0.4503570000000 1.0
C      1  0.5495080000000  0.4983650000000  0.4876910000000 1.0
C      1  0.4894050000000  0.4810030000000  0.6014130000000 1.0
C      1  0.3953220000000  0.4367720000000  0.5267940000000 1.0
C      1  0.5072800000000  0.5611160000000  0.3802480000000 1.0
C      1  0.4217540000000  0.5525040000000  0.5779470000000 1.0
C      1  0.4727610000000  0.4240230000000  0.4288790000000 1.0
C      1  0.5353080000000  0.5496330000000  0.4749850000000 1.0
C      1  0.4722730000000  0.4338500000000  0.4776020000000 1.0
C      1  0.4178690000000  0.4303210000000  0.4800410000000 1.0
C      1  0.5526500000000  0.5054880000000  0.4269800000000 1.0
C      1  0.5336030000000  0.5462410000000  0.4457930000000 1.0
C      1  0.5822700000000  0.5546670000000  0.4521210000000 1.0
C      1  0.4829630000000  0.5759290000000  0.5184190000000 1.0
C      1  0.4363340000000  0.5015020000000  0.5456570000000 1.0
C      1  0.5319820000000  0.5197300000000  0.4056350000000 1.0
C      1  0.5072340000000  0.6096930000000  0.5086540000000 1.0
C      1  0.5221680000000  0.5716300000000  0.4889700000000 1.0
C      1  0.3968620000000  0.4858540000000  0.4713670000000 1.0
C      1  0.5176560000000  0.4190080000000  0.5650990000000 1.0
C      1  0.5262260000000  0.5620400000000  0.6001700000000 1.0
C      1  0.5419470000000  0.4774710000000  0.4686120000000 1.0
C      1  0.4302500000000  0.5187370000000  0.4692780000000 1.0
C      1  0.5457240000000  0.4723030000000  0.3971890000000 1.0
C      1  0.5879670000000  0.5380730000000  0.5579860000000 1.0
END
