TITL C-884130-5973-452 5.87458098788668 125000 -5973.10189447544 0 0 41 (C1) n - 1
REM
REM in /home/nfs/bkarasulu/CARBON/AIRSS/Generating-Clusters/ReaxFF-fromJPCA2015/Units_Real/with-SteepDescent/Only-C1/SD-CG/Try1-3A/FIRE-CG
REM
REM
REM
REM
REM
REM ./C.cell (11c1c37f851c82e70ff6c80c92926a4b)
REM
REM compiler GCC version 9.2.1 20190827 (Red Hat 9.2.1-1)
REM options -cpp -mtune=generic -march=x86-64 -g -O0 -fpre-include=/usr/include/finclude/math-vector-fortran.h
REM seed -550460635 294022133 848322086 602457439 -914350001 65376827 1820604014 -1831135634 2134305897 -1393787073 -1492518412 851666153 285039414 1334384940 2049328362 -1490733866 -1970066194 -1615466698 531548967 -1911210998 -2053735758 1865341993 424269444 369910653 893361369 1123377860 -1643956720 1653494651 1522704064 -1507397149 -455487478 1525450830 -8736940
REM
CELL 1.54180   50.00000   50.00000   50.00000   90.00000   90.00000   90.00000
LATT -1
SFAC C  
C      1  0.5206010000000  0.5373460000000  0.5248510000000 1.0
C      1  0.4539840000000  0.4965780000000  0.5425920000000 1.0
C      1  0.5216140000000  0.5384180000000  0.4543940000000 1.0
C      1  0.4865160000000  0.4454240000000  0.5023240000000 1.0
C      1  0.5140160000000  0.5223620000000  0.5459520000000 1.0
C      1  0.5596600000000  0.4919430000000  0.4955340000000 1.0
C      1  0.4897370000000  0.5022080000000  0.4730010000000 1.0
C      1  0.5422380000000  0.5283870000000  0.5017840000000 1.0
C      1  0.4466640000000  0.5272540000000  0.4819200000000 1.0
C      1  0.4478480000000  0.5219900000000  0.5107440000000 1.0
C      1  0.5077560000000  0.4597430000000  0.4388100000000 1.0
C      1  0.5062940000000  0.4323000000000  0.4841250000000 1.0
C      1  0.5701440000000  0.5164310000000  0.5042300000000 1.0
C      1  0.5630700000000  0.4650790000000  0.5607060000000 1.0
C      1  0.5330540000000  0.5007060000000  0.4948730000000 1.0
C      1  0.4669220000000  0.5745520000000  0.4833450000000 1.0
C      1  0.4937350000000  0.5466010000000  0.5174070000000 1.0
C      1  0.4829050000000  0.4566170000000  0.4494620000000 1.0
C      1  0.4414000000000  0.4708850000000  0.4975980000000 1.0
C      1  0.4581070000000  0.4544270000000  0.4623630000000 1.0
C      1  0.5351520000000  0.4792230000000  0.5514630000000 1.0
C      1  0.4692990000000  0.5324850000000  0.5279460000000 1.0
C      1  0.5379060000000  0.5459110000000  0.4765520000000 1.0
C      1  0.5744000000000  0.4775730000000  0.5382320000000 1.0
C      1  0.5077720000000  0.5117020000000  0.4507060000000 1.0
C      1  0.4606080000000  0.5047410000000  0.4688530000000 1.0
C      1  0.5803720000000  0.4911130000000  0.5147350000000 1.0
C      1  0.5137620000000  0.5607840000000  0.4724570000000 1.0
C      1  0.4464920000000  0.5557130000000  0.4725010000000 1.0
C      1  0.4700560000000  0.5166480000000  0.5528670000000 1.0
C      1  0.4591280000000  0.4482160000000  0.4922610000000 1.0
C      1  0.4977680000000  0.5113860000000  0.5650600000000 1.0
C      1  0.4444000000000  0.4802260000000  0.4699390000000 1.0
C      1  0.5170400000000  0.4885090000000  0.4356770000000 1.0
C      1  0.5196020000000  0.4384250000000  0.4587650000000 1.0
C      1  0.5111850000000  0.4670260000000  0.5405300000000 1.0
C      1  0.4987740000000  0.4695370000000  0.5141020000000 1.0
C      1  0.5101600000000  0.4846180000000  0.5652860000000 1.0
C      1  0.4928160000000  0.5630420000000  0.4931750000000 1.0
C      1  0.4414360000000  0.4931620000000  0.5182400000000 1.0
C      1  0.5056070000000  0.4907120000000  0.4946370000000 1.0
END
