TITL C-884138-6203-398 2.25548306295798 125000 -5340.59529973392 0 0 38 (C1) n - 1
REM
REM in /home/nfs/bkarasulu/CARBON/AIRSS/Generating-Clusters/ReaxFF-fromJPCA2015/Units_Real/with-SteepDescent/Only-C1/SD-CG/Try1-3A/FIRE-CG
REM
REM
REM
REM
REM
REM ./C.cell (11c1c37f851c82e70ff6c80c92926a4b)
REM
REM compiler GCC version 9.2.1 20190827 (Red Hat 9.2.1-1)
REM options -cpp -mtune=generic -march=x86-64 -g -O0 -fpre-include=/usr/include/finclude/math-vector-fortran.h
REM seed -1917108705 -72063895 988807368 1332323600 -379041247 -515979448 1337823669 -2133719088 -1967846772 -195773197 -2026780133 623972387 -671399410 -876617781 2067352350 -1648680604 -773522409 -414938060 -1668015116 -1504568551 1950152347 -384615017 789327418 -1999403741 -354640656 477497681 305017763 819547221 348765789 773726936 -1614871142 -180114205 -769386227
REM
CELL 1.54180   50.00000   50.00000   50.00000   90.00000   90.00000   90.00000
LATT -1
SFAC C  
C      1  0.4795680000000  0.4873260000000  0.4718400000000 1.0
C      1  0.4421380000000  0.5305810000000  0.4452370000000 1.0
C      1  0.5257900000000  0.4886660000000  0.5616310000000 1.0
C      1  0.4682620000000  0.4860190000000  0.5398780000000 1.0
C      1  0.4407290000000  0.4844780000000  0.5269380000000 1.0
C      1  0.4733170000000  0.5372860000000  0.4713560000000 1.0
C      1  0.5431700000000  0.5206510000000  0.4737290000000 1.0
C      1  0.4504080000000  0.4850000000000  0.4714590000000 1.0
C      1  0.4467190000000  0.5502450000000  0.4322820000000 1.0
C      1  0.5329160000000  0.5264720000000  0.4325200000000 1.0
C      1  0.4619410000000  0.5413340000000  0.4975570000000 1.0
C      1  0.5588330000000  0.5269410000000  0.4472870000000 1.0
C      1  0.4973510000000  0.4646380000000  0.4798350000000 1.0
C      1  0.4157760000000  0.5043820000000  0.4817110000000 1.0
C      1  0.5744620000000  0.4727950000000  0.5265750000000 1.0
C      1  0.5160040000000  0.4647780000000  0.5461650000000 1.0
C      1  0.5387590000000  0.5135440000000  0.5509250000000 1.0
C      1  0.5442510000000  0.5221120000000  0.5245590000000 1.0
C      1  0.5186540000000  0.5175250000000  0.4590260000000 1.0
C      1  0.5017190000000  0.4566970000000  0.5076510000000 1.0
C      1  0.4787020000000  0.5497730000000  0.5189310000000 1.0
C      1  0.4842900000000  0.5548060000000  0.4915290000000 1.0
C      1  0.5639360000000  0.4614350000000  0.4871960000000 1.0
C      1  0.5561730000000  0.4514050000000  0.5141310000000 1.0
C      1  0.5274720000000  0.4522250000000  0.5222400000000 1.0
C      1  0.5715640000000  0.4877010000000  0.5000430000000 1.0
C      1  0.5528300000000  0.5107290000000  0.4995300000000 1.0
C      1  0.4318750000000  0.4857130000000  0.4947150000000 1.0
C      1  0.4931960000000  0.5324030000000  0.5376170000000 1.0
C      1  0.5478550000000  0.4566650000000  0.4626810000000 1.0
C      1  0.5023670000000  0.5035250000000  0.5665030000000 1.0
C      1  0.4903300000000  0.5133370000000  0.4656180000000 1.0
C      1  0.5222690000000  0.5327240000000  0.5383870000000 1.0
C      1  0.4276130000000  0.4852170000000  0.5483590000000 1.0
C      1  0.4788250000000  0.5110900000000  0.5531080000000 1.0
C      1  0.4893500000000  0.4669120000000  0.5329020000000 1.0
C      1  0.4324140000000  0.5059480000000  0.4581080000000 1.0
C      1  0.5181710000000  0.4569200000000  0.4602410000000 1.0
END
