TITL C-883731-9874-142 1.43295386502607 125000 -21666.0565526674 0 0 144 (C1) n - 1
REM
REM in /home/nfs/bkarasulu/CARBON/AIRSS/Generating-Clusters/ReaxFF-fromJPCA2015/Units_Real/with-SteepDescent/Only-C1/SD-CG/Try1-3A/FIRE-CG
REM
REM
REM
REM
REM
REM ./C.cell (11c1c37f851c82e70ff6c80c92926a4b)
REM
REM compiler GCC version 9.2.1 20190827 (Red Hat 9.2.1-1)
REM options -cpp -mtune=generic -march=x86-64 -g -O0 -fpre-include=/usr/include/finclude/math-vector-fortran.h
REM seed -883595022 -2109116226 994922308 1978726252 2058060966 581137213 64704729 -1251301156 809161933 -1346404496 -1092433672 -1185324531 -1482586405 -1692352087 758218472 -770919898 -482465089 -811716927 1804935890 -1659990461 369584287 1708496499 634409245 180103569 1145674100 -82561233 -725570561 -1577729156 -1955435058 1683053237 1618122899 136133755 620774657
REM
CELL 1.54180   50.00000   50.00000   50.00000   90.00000   90.00000   90.00000
LATT -1
SFAC C  
C      1  0.5938970000000  0.5153930000000  0.4602890000000 1.0
C      1  0.5460380000000  0.5088310000000  0.5184600000000 1.0
C      1  0.5282300000000  0.4815120000000  0.5105850000000 1.0
C      1  0.4862530000000  0.4558180000000  0.5219140000000 1.0
C      1  0.5018190000000  0.4810480000000  0.5938900000000 1.0
C      1  0.4347130000000  0.4954570000000  0.5716260000000 1.0
C      1  0.5199860000000  0.5690610000000  0.5550640000000 1.0
C      1  0.5244110000000  0.5198000000000  0.5878680000000 1.0
C      1  0.5699790000000  0.4446070000000  0.5165660000000 1.0
C      1  0.4511430000000  0.5387470000000  0.4212380000000 1.0
C      1  0.4569370000000  0.4894960000000  0.5903050000000 1.0
C      1  0.5030040000000  0.5237870000000  0.4361850000000 1.0
C      1  0.5079030000000  0.4404800000000  0.5086700000000 1.0
C      1  0.5766950000000  0.5373070000000  0.4535770000000 1.0
C      1  0.5518280000000  0.5331640000000  0.4406490000000 1.0
C      1  0.4651880000000  0.4955260000000  0.4714370000000 1.0
C      1  0.4964790000000  0.5489390000000  0.5646920000000 1.0
C      1  0.4823940000000  0.5040540000000  0.5961330000000 1.0
C      1  0.3975790000000  0.5682270000000  0.5003100000000 1.0
C      1  0.5596150000000  0.4960570000000  0.4126650000000 1.0
C      1  0.5563210000000  0.5243160000000  0.4149230000000 1.0
C      1  0.4469820000000  0.4265500000000  0.5456740000000 1.0
C      1  0.5328400000000  0.4925680000000  0.5932050000000 1.0
C      1  0.4355760000000  0.4329670000000  0.4456650000000 1.0
C      1  0.4567060000000  0.4980220000000  0.5202330000000 1.0
C      1  0.4177370000000  0.5090000000000  0.4446640000000 1.0
C      1  0.4785340000000  0.5720480000000  0.5206070000000 1.0
C      1  0.4285050000000  0.4603690000000  0.4352990000000 1.0
C      1  0.5916820000000  0.5295340000000  0.5328760000000 1.0
C      1  0.5566650000000  0.4878210000000  0.5790850000000 1.0
C      1  0.4056880000000  0.5216800000000  0.4877990000000 1.0
C      1  0.4401790000000  0.4629830000000  0.5029780000000 1.0
C      1  0.5319540000000  0.4689080000000  0.5342270000000 1.0
C      1  0.4327200000000  0.4231520000000  0.5213120000000 1.0
C      1  0.5238500000000  0.5437030000000  0.4819940000000 1.0
C      1  0.5146680000000  0.4158910000000  0.5610630000000 1.0
C      1  0.4233420000000  0.5216330000000  0.5681510000000 1.0
C      1  0.4949520000000  0.4041500000000  0.5450360000000 1.0
C      1  0.5738490000000  0.4786030000000  0.4310140000000 1.0
C      1  0.5407290000000  0.4474000000000  0.4120630000000 1.0
C      1  0.5115050000000  0.4767700000000  0.4091150000000 1.0
C      1  0.5101570000000  0.4240430000000  0.4292380000000 1.0
C      1  0.5284270000000  0.4564220000000  0.4952400000000 1.0
C      1  0.6037090000000  0.5178110000000  0.4875330000000 1.0
C      1  0.4464170000000  0.5745810000000  0.4767290000000 1.0
C      1  0.5463150000000  0.4489260000000  0.5681850000000 1.0
C      1  0.5944920000000  0.5397900000000  0.5052020000000 1.0
C      1  0.4535610000000  0.4986540000000  0.4154920000000 1.0
C      1  0.5537650000000  0.5789820000000  0.4593940000000 1.0
C      1  0.4359120000000  0.4826720000000  0.5448130000000 1.0
C      1  0.4415800000000  0.4902790000000  0.4949210000000 1.0
C      1  0.4506720000000  0.4534060000000  0.5582260000000 1.0
C      1  0.5346760000000  0.4082830000000  0.4744050000000 1.0
C      1  0.4508140000000  0.4714720000000  0.4216320000000 1.0
C      1  0.5363420000000  0.5753940000000  0.4826180000000 1.0
C      1  0.4732480000000  0.5802450000000  0.4685740000000 1.0
C      1  0.4820950000000  0.4834230000000  0.5119820000000 1.0
C      1  0.5262820000000  0.5769080000000  0.5277280000000 1.0
C      1  0.4753660000000  0.4040110000000  0.5084150000000 1.0
C      1  0.4334260000000  0.5152530000000  0.4218270000000 1.0
C      1  0.5329240000000  0.4077630000000  0.5025570000000 1.0
C      1  0.5254480000000  0.4696780000000  0.5600110000000 1.0
C      1  0.5319660000000  0.5246900000000  0.4007030000000 1.0
C      1  0.5169590000000  0.5933580000000  0.4703460000000 1.0
C      1  0.5401210000000  0.5231190000000  0.5630040000000 1.0
C      1  0.4763200000000  0.5402960000000  0.4370790000000 1.0
C      1  0.4964800000000  0.5365850000000  0.4892880000000 1.0
C      1  0.4107750000000  0.4948260000000  0.4973990000000 1.0
C      1  0.4340360000000  0.5867660000000  0.5014610000000 1.0
C      1  0.5748370000000  0.4589140000000  0.4891090000000 1.0
C      1  0.5264440000000  0.5337880000000  0.4528640000000 1.0
C      1  0.4371740000000  0.5719500000000  0.5271830000000 1.0
C      1  0.5456740000000  0.5711120000000  0.5681890000000 1.0
C      1  0.5137310000000  0.4462950000000  0.4080200000000 1.0
C      1  0.5427890000000  0.5257670000000  0.4963620000000 1.0
C      1  0.4992390000000  0.4892360000000  0.4327930000000 1.0
C      1  0.4311880000000  0.4257880000000  0.4729530000000 1.0
C      1  0.5577830000000  0.5531590000000  0.5896470000000 1.0
C      1  0.5743730000000  0.5612290000000  0.4695370000000 1.0
C      1  0.4878110000000  0.5043200000000  0.5461550000000 1.0
C      1  0.4618770000000  0.4235580000000  0.4451120000000 1.0
C      1  0.5748190000000  0.5599490000000  0.4987770000000 1.0
C      1  0.4052730000000  0.4719480000000  0.4764820000000 1.0
C      1  0.4821730000000  0.4545200000000  0.5522990000000 1.0
C      1  0.5313060000000  0.5260400000000  0.5358200000000 1.0
C      1  0.5281210000000  0.5856090000000  0.4439330000000 1.0
C      1  0.5295930000000  0.4556220000000  0.4662740000000 1.0
C      1  0.6071250000000  0.4903880000000  0.4965460000000 1.0
C      1  0.5482190000000  0.4395920000000  0.4528330000000 1.0
C      1  0.5327820000000  0.4949150000000  0.4000310000000 1.0
C      1  0.5503290000000  0.4244260000000  0.5232980000000 1.0
C      1  0.4338590000000  0.5623440000000  0.4305530000000 1.0
C      1  0.4519490000000  0.4194040000000  0.4961900000000 1.0
C      1  0.4896130000000  0.5120950000000  0.4775220000000 1.0
C      1  0.5020900000000  0.5863120000000  0.5124040000000 1.0
C      1  0.5808690000000  0.4628350000000  0.5362740000000 1.0
C      1  0.4309180000000  0.5419970000000  0.5231200000000 1.0
C      1  0.4940810000000  0.4348980000000  0.5727150000000 1.0
C      1  0.4968350000000  0.5279010000000  0.5882330000000 1.0
C      1  0.4826680000000  0.5411870000000  0.5143270000000 1.0
C      1  0.4176770000000  0.4459320000000  0.5111910000000 1.0
C      1  0.5761720000000  0.5050070000000  0.5304150000000 1.0
C      1  0.4046860000000  0.5411670000000  0.5069930000000 1.0
C      1  0.4876620000000  0.4534190000000  0.5938790000000 1.0
C      1  0.5811980000000  0.5455420000000  0.5547580000000 1.0
C      1  0.4132600000000  0.4801440000000  0.4504510000000 1.0
C      1  0.4051480000000  0.5898380000000  0.4971210000000 1.0
C      1  0.5956290000000  0.4850950000000  0.5236250000000 1.0
C      1  0.4139200000000  0.4946660000000  0.5298870000000 1.0
C      1  0.5027650000000  0.4134390000000  0.5020520000000 1.0
C      1  0.5023030000000  0.5295150000000  0.5383670000000 1.0
C      1  0.5621000000000  0.4511840000000  0.4301880000000 1.0
C      1  0.4606940000000  0.4609890000000  0.5864040000000 1.0
C      1  0.5655800000000  0.5691990000000  0.5457040000000 1.0
C      1  0.4677430000000  0.5182080000000  0.5585100000000 1.0
C      1  0.5336320000000  0.4162740000000  0.4474960000000 1.0
C      1  0.4639740000000  0.4493120000000  0.4966180000000 1.0
C      1  0.4943350000000  0.5918220000000  0.4847730000000 1.0
C      1  0.4158780000000  0.5298220000000  0.4635080000000 1.0
C      1  0.5137500000000  0.4964370000000  0.4749940000000 1.0
C      1  0.5915780000000  0.4874290000000  0.4519010000000 1.0
C      1  0.4121420000000  0.5207570000000  0.5415920000000 1.0
C      1  0.5665460000000  0.5280980000000  0.5746480000000 1.0
C      1  0.4289910000000  0.5572490000000  0.4591780000000 1.0
C      1  0.4100130000000  0.4439870000000  0.4828830000000 1.0
C      1  0.5693420000000  0.4670250000000  0.5643290000000 1.0
C      1  0.4563010000000  0.5271760000000  0.5180910000000 1.0
C      1  0.5414990000000  0.4253890000000  0.5506750000000 1.0
C      1  0.5556090000000  0.5729730000000  0.5185890000000 1.0
C      1  0.5423990000000  0.5029530000000  0.4784990000000 1.0
C      1  0.5065190000000  0.4721850000000  0.4595220000000 1.0
C      1  0.5991880000000  0.4713050000000  0.4757360000000 1.0
C      1  0.4844460000000  0.4228560000000  0.4384890000000 1.0
C      1  0.4691840000000  0.4875170000000  0.4379820000000 1.0
C      1  0.4607540000000  0.5767710000000  0.5433690000000 1.0
C      1  0.4682580000000  0.5590440000000  0.5656120000000 1.0
C      1  0.4796240000000  0.4726290000000  0.4839080000000 1.0
C      1  0.5096770000000  0.5681180000000  0.4291100000000 1.0
C      1  0.5123430000000  0.5419420000000  0.4139240000000 1.0
C      1  0.4509080000000  0.5349850000000  0.5709180000000 1.0
C      1  0.4680940000000  0.4051020000000  0.5370660000000 1.0
C      1  0.5599910000000  0.4811110000000  0.4827240000000 1.0
C      1  0.4977330000000  0.4787260000000  0.5624170000000 1.0
C      1  0.4838500000000  0.5675580000000  0.4432430000000 1.0
END
