TITL C-883732-77-120 2.83553666536304 125000 -19638.2314623211 0 0 131 (C1) n - 1
REM
REM in /home/nfs/bkarasulu/CARBON/AIRSS/Generating-Clusters/ReaxFF-fromJPCA2015/Units_Real/with-SteepDescent/Only-C1/SD-CG/Try1-3A/FIRE-CG
REM
REM
REM
REM
REM
REM ./C.cell (11c1c37f851c82e70ff6c80c92926a4b)
REM
REM compiler GCC version 9.2.1 20190827 (Red Hat 9.2.1-1)
REM options -cpp -mtune=generic -march=x86-64 -g -O0 -fpre-include=/usr/include/finclude/math-vector-fortran.h
REM seed -1183146021 -354457771 -523533867 -199796230 -1381662730 1597930752 -1697058451 1785752018 -1601795853 1176023106 -1893901612 -820393591 508252873 -160397240 -1809551315 1224797500 839885101 -1829018314 2145066930 1373805022 1232468189 -1566965395 1345906743 -1353459452 -1466621772 411420692 1091125974 -1398275185 -1963206333 1620633882 -2132662927 88967278 -1655065576
REM
CELL 1.54180   50.00000   50.00000   50.00000   90.00000   90.00000   90.00000
LATT -1
SFAC C  
C      1  0.5057390000000  0.5905860000000  0.5046890000000 1.0
C      1  0.5179160000000  0.5541430000000  0.4408990000000 1.0
C      1  0.4341230000000  0.5626760000000  0.4610170000000 1.0
C      1  0.4050290000000  0.4765210000000  0.4995460000000 1.0
C      1  0.4484380000000  0.5297440000000  0.5094880000000 1.0
C      1  0.5594240000000  0.4989350000000  0.5758650000000 1.0
C      1  0.4951360000000  0.5383560000000  0.4720810000000 1.0
C      1  0.5483140000000  0.4284080000000  0.5371090000000 1.0
C      1  0.4819880000000  0.5832650000000  0.4589380000000 1.0
C      1  0.5597840000000  0.5268400000000  0.5631670000000 1.0
C      1  0.4598460000000  0.4478910000000  0.4168040000000 1.0
C      1  0.5629290000000  0.4505340000000  0.5498270000000 1.0
C      1  0.4810230000000  0.5359740000000  0.4085470000000 1.0
C      1  0.5154510000000  0.5184850000000  0.6018780000000 1.0
C      1  0.4544480000000  0.5825850000000  0.4688330000000 1.0
C      1  0.5312020000000  0.4540200000000  0.4269290000000 1.0
C      1  0.4433460000000  0.4393080000000  0.4902650000000 1.0
C      1  0.4443640000000  0.5378580000000  0.4443870000000 1.0
C      1  0.4466930000000  0.4273560000000  0.5301240000000 1.0
C      1  0.4335680000000  0.5014840000000  0.4765990000000 1.0
C      1  0.4807090000000  0.4032200000000  0.4713630000000 1.0
C      1  0.4905100000000  0.4254070000000  0.5678280000000 1.0
C      1  0.4559840000000  0.4835710000000  0.4897380000000 1.0
C      1  0.5842630000000  0.5356300000000  0.4662840000000 1.0
C      1  0.4703440000000  0.4475000000000  0.4726710000000 1.0
C      1  0.5220170000000  0.4053600000000  0.5019190000000 1.0
C      1  0.4005980000000  0.5314160000000  0.4948430000000 1.0
C      1  0.4737900000000  0.6151000000000  0.5055200000000 1.0
C      1  0.4580860000000  0.4841170000000  0.5676820000000 1.0
C      1  0.5957400000000  0.4725810000000  0.4717470000000 1.0
C      1  0.4051620000000  0.5032790000000  0.4878450000000 1.0
C      1  0.5853860000000  0.5056250000000  0.5087910000000 1.0
C      1  0.5289370000000  0.5770520000000  0.4606680000000 1.0
C      1  0.5542450000000  0.4693340000000  0.5697490000000 1.0
C      1  0.5738510000000  0.5619350000000  0.4569990000000 1.0
C      1  0.5368350000000  0.4986840000000  0.5314190000000 1.0
C      1  0.5528550000000  0.5702280000000  0.5051850000000 1.0
C      1  0.5539440000000  0.5756720000000  0.4738000000000 1.0
C      1  0.4831490000000  0.5437230000000  0.5442980000000 1.0
C      1  0.5986250000000  0.4589790000000  0.5112890000000 1.0
C      1  0.5380190000000  0.5444450000000  0.5641630000000 1.0
C      1  0.4511900000000  0.5586240000000  0.5755950000000 1.0
C      1  0.4198150000000  0.4540420000000  0.4829240000000 1.0
C      1  0.4775920000000  0.5234400000000  0.5052910000000 1.0
C      1  0.4648800000000  0.4764760000000  0.4101340000000 1.0
C      1  0.4748190000000  0.4015220000000  0.4992120000000 1.0
C      1  0.4812300000000  0.5498830000000  0.4942320000000 1.0
C      1  0.5143200000000  0.5326090000000  0.5759560000000 1.0
C      1  0.4212320000000  0.4871130000000  0.4499420000000 1.0
C      1  0.4957210000000  0.5185140000000  0.5552620000000 1.0
C      1  0.4406100000000  0.5324570000000  0.5835330000000 1.0
C      1  0.4981220000000  0.4033690000000  0.5175340000000 1.0
C      1  0.5097140000000  0.4037870000000  0.4745300000000 1.0
C      1  0.4664830000000  0.5512810000000  0.4261870000000 1.0
C      1  0.5003740000000  0.5065110000000  0.4405960000000 1.0
C      1  0.5310110000000  0.5253390000000  0.5194190000000 1.0
C      1  0.5282040000000  0.4180530000000  0.5537790000000 1.0
C      1  0.4653810000000  0.4384120000000  0.5735690000000 1.0
C      1  0.4158920000000  0.5414860000000  0.5445750000000 1.0
C      1  0.5065880000000  0.5889120000000  0.4745000000000 1.0
C      1  0.5893600000000  0.5172830000000  0.4446740000000 1.0
C      1  0.5298360000000  0.4864450000000  0.4769260000000 1.0
C      1  0.4540050000000  0.5234920000000  0.4690070000000 1.0
C      1  0.4712510000000  0.5094810000000  0.5685670000000 1.0
C      1  0.5178250000000  0.4312560000000  0.4668920000000 1.0
C      1  0.4111540000000  0.4859530000000  0.5247920000000 1.0
C      1  0.4662430000000  0.4796530000000  0.5166790000000 1.0
C      1  0.4905290000000  0.4792880000000  0.5935070000000 1.0
C      1  0.4474980000000  0.4743240000000  0.5423040000000 1.0
C      1  0.5612230000000  0.4334290000000  0.4872750000000 1.0
C      1  0.5869370000000  0.4476780000000  0.4865880000000 1.0
C      1  0.4876070000000  0.4901210000000  0.3974500000000 1.0
C      1  0.4822030000000  0.4293500000000  0.4240130000000 1.0
C      1  0.5032390000000  0.4833440000000  0.4211720000000 1.0
C      1  0.5302490000000  0.4602830000000  0.5792450000000 1.0
C      1  0.5814980000000  0.5406500000000  0.5431140000000 1.0
C      1  0.5073040000000  0.4407950000000  0.4252310000000 1.0
C      1  0.4802720000000  0.5633410000000  0.5663080000000 1.0
C      1  0.5279370000000  0.5801940000000  0.5216370000000 1.0
C      1  0.5387980000000  0.5138660000000  0.4745050000000 1.0
C      1  0.4667150000000  0.5235250000000  0.5940990000000 1.0
C      1  0.4234020000000  0.5200290000000  0.5624940000000 1.0
C      1  0.4207910000000  0.5386490000000  0.5152110000000 1.0
C      1  0.5286410000000  0.5713580000000  0.5487980000000 1.0
C      1  0.4671280000000  0.4227050000000  0.4507620000000 1.0
C      1  0.5713000000000  0.5239760000000  0.4223700000000 1.0
C      1  0.6041430000000  0.4840820000000  0.4971140000000 1.0
C      1  0.4477210000000  0.4147000000000  0.5059620000000 1.0
C      1  0.4817880000000  0.5160250000000  0.4616860000000 1.0
C      1  0.5101360000000  0.4890920000000  0.5434910000000 1.0
C      1  0.4464510000000  0.4433090000000  0.5513660000000 1.0
C      1  0.5699010000000  0.5505350000000  0.4310740000000 1.0
C      1  0.5631830000000  0.4900110000000  0.5247780000000 1.0
C      1  0.5760590000000  0.5637130000000  0.5264050000000 1.0
C      1  0.5022990000000  0.4100170000000  0.5460480000000 1.0
C      1  0.5606150000000  0.4846590000000  0.4401300000000 1.0
C      1  0.4440200000000  0.4396850000000  0.4394150000000 1.0
C      1  0.4604050000000  0.4889640000000  0.4371770000000 1.0
C      1  0.4249200000000  0.4578100000000  0.4542640000000 1.0
C      1  0.5040680000000  0.5229050000000  0.5144730000000 1.0
C      1  0.4583400000000  0.5932820000000  0.4971690000000 1.0
C      1  0.5856580000000  0.4895660000000  0.4502020000000 1.0
C      1  0.5223620000000  0.5357370000000  0.4638290000000 1.0
C      1  0.4897230000000  0.5653090000000  0.4374630000000 1.0
C      1  0.4224990000000  0.4930790000000  0.5490850000000 1.0
C      1  0.5514110000000  0.5409110000000  0.5030130000000 1.0
C      1  0.5468000000000  0.5039900000000  0.4222360000000 1.0
C      1  0.4997320000000  0.4491470000000  0.4806900000000 1.0
C      1  0.5019980000000  0.5773800000000  0.5551860000000 1.0
C      1  0.4662230000000  0.4758860000000  0.4642140000000 1.0
C      1  0.4662640000000  0.4641830000000  0.5873770000000 1.0
C      1  0.4367560000000  0.5064040000000  0.4353220000000 1.0
C      1  0.5787940000000  0.4669430000000  0.5320480000000 1.0
C      1  0.5183660000000  0.4341880000000  0.5756300000000 1.0
C      1  0.4991120000000  0.5177240000000  0.3994050000000 1.0
C      1  0.5674210000000  0.5244620000000  0.4867050000000 1.0
C      1  0.6006050000000  0.5228650000000  0.5296480000000 1.0
C      1  0.5313750000000  0.4797670000000  0.4125550000000 1.0
C      1  0.4116740000000  0.5528990000000  0.4771720000000 1.0
C      1  0.5090920000000  0.4741200000000  0.5708320000000 1.0
C      1  0.4946370000000  0.4788470000000  0.5191510000000 1.0
C      1  0.5097300000000  0.4733540000000  0.4935070000000 1.0
C      1  0.4882820000000  0.5058620000000  0.6054300000000 1.0
C      1  0.5179360000000  0.5230530000000  0.4240070000000 1.0
C      1  0.5407100000000  0.5073220000000  0.5949870000000 1.0
C      1  0.5436650000000  0.4676500000000  0.4550120000000 1.0
C      1  0.5458080000000  0.4391370000000  0.4633410000000 1.0
C      1  0.4379270000000  0.5597160000000  0.5498040000000 1.0
C      1  0.4569110000000  0.5453190000000  0.5324500000000 1.0
C      1  0.4805510000000  0.5752490000000  0.5086760000000 1.0
C      1  0.5459930000000  0.4210150000000  0.5092850000000 1.0
END
