TITL C-884141-4321-206 0.323272521956757 125000 -20997.1710942736 0 0 140 (C1) n - 1
REM
REM in /home/nfs/bkarasulu/CARBON/AIRSS/Generating-Clusters/ReaxFF-fromJPCA2015/Units_Real/with-SteepDescent/Only-C1/SD-CG/Try1-3A/FIRE-CG
REM
REM
REM
REM
REM
REM ./C.cell (11c1c37f851c82e70ff6c80c92926a4b)
REM
REM compiler GCC version 9.2.1 20190827 (Red Hat 9.2.1-1)
REM options -cpp -mtune=generic -march=x86-64 -g -O0 -fpre-include=/usr/include/finclude/math-vector-fortran.h
REM seed -1000292749 2066343751 1547384169 1832924878 1400688600 659120481 94606628 -1007888126 -799941872 -1270620088 -2106786680 1265906984 -1786337780 -1820558415 505952205 65269442 -280668316 1679521793 -1264731665 1437856665 606026040 1912624018 -506237073 437066224 918226088 -231453704 403532912 -2028555942 -129438373 1861571442 2170301 1855868677 1246516698
REM
CELL 1.54180   50.00000   50.00000   50.00000   90.00000   90.00000   90.00000
LATT -1
SFAC C  
C      1  0.5819760000000  0.5310660000000  0.5357170000000 1.0
C      1  0.5635620000000  0.4915130000000  0.5654770000000 1.0
C      1  0.4928490000000  0.5073340000000  0.3989080000000 1.0
C      1  0.5168870000000  0.4581190000000  0.6035620000000 1.0
C      1  0.5863480000000  0.5297590000000  0.5075590000000 1.0
C      1  0.5155710000000  0.5551520000000  0.4629610000000 1.0
C      1  0.3996440000000  0.5254490000000  0.5101710000000 1.0
C      1  0.4933680000000  0.3847750000000  0.5191050000000 1.0
C      1  0.4544120000000  0.5169580000000  0.5203930000000 1.0
C      1  0.5506340000000  0.4751560000000  0.4928590000000 1.0
C      1  0.5381750000000  0.4787870000000  0.4082010000000 1.0
C      1  0.5533960000000  0.4667030000000  0.5526950000000 1.0
C      1  0.4567030000000  0.4805460000000  0.4273280000000 1.0
C      1  0.5303660000000  0.5267690000000  0.4325930000000 1.0
C      1  0.5197240000000  0.5324910000000  0.4803790000000 1.0
C      1  0.5136650000000  0.4588690000000  0.4403580000000 1.0
C      1  0.5001160000000  0.5563370000000  0.4108430000000 1.0
C      1  0.4806000000000  0.5816530000000  0.5471200000000 1.0
C      1  0.5549920000000  0.4924040000000  0.4718460000000 1.0
C      1  0.4393670000000  0.5216080000000  0.4152310000000 1.0
C      1  0.5178720000000  0.5055550000000  0.5709390000000 1.0
C      1  0.5640970000000  0.5561270000000  0.5789730000000 1.0
C      1  0.4443970000000  0.5418630000000  0.5643100000000 1.0
C      1  0.4756700000000  0.5982270000000  0.4608350000000 1.0
C      1  0.5401750000000  0.4157140000000  0.5437510000000 1.0
C      1  0.5382750000000  0.5599190000000  0.5899320000000 1.0
C      1  0.5043910000000  0.3770290000000  0.4949560000000 1.0
C      1  0.5036770000000  0.5902640000000  0.5620740000000 1.0
C      1  0.5858020000000  0.4444900000000  0.4783120000000 1.0
C      1  0.4595630000000  0.4362980000000  0.5604140000000 1.0
C      1  0.5551640000000  0.5276680000000  0.4469110000000 1.0
C      1  0.4477880000000  0.4820050000000  0.5750740000000 1.0
C      1  0.4026720000000  0.4454880000000  0.5000590000000 1.0
C      1  0.4469890000000  0.4990610000000  0.5995480000000 1.0
C      1  0.4571040000000  0.4996890000000  0.4750490000000 1.0
C      1  0.4949260000000  0.5181820000000  0.4901910000000 1.0
C      1  0.4675210000000  0.5092960000000  0.4163480000000 1.0
C      1  0.5834970000000  0.5045850000000  0.5488070000000 1.0
C      1  0.5782750000000  0.5496410000000  0.4850060000000 1.0
C      1  0.4104970000000  0.5523960000000  0.5004430000000 1.0
C      1  0.5019240000000  0.4387190000000  0.5323420000000 1.0
C      1  0.5515470000000  0.4035810000000  0.4848470000000 1.0
C      1  0.4030550000000  0.4452410000000  0.5260770000000 1.0
C      1  0.5948120000000  0.5022090000000  0.5027440000000 1.0
C      1  0.4918920000000  0.5541030000000  0.4416240000000 1.0
C      1  0.4932730000000  0.5788380000000  0.5166780000000 1.0
C      1  0.5112680000000  0.4122080000000  0.5447510000000 1.0
C      1  0.4180520000000  0.5743700000000  0.5196640000000 1.0
C      1  0.5365080000000  0.5259130000000  0.4044910000000 1.0
C      1  0.4598500000000  0.4114200000000  0.5450930000000 1.0
C      1  0.5316950000000  0.4892580000000  0.5101050000000 1.0
C      1  0.5479280000000  0.4383000000000  0.5619110000000 1.0
C      1  0.5329140000000  0.4472280000000  0.5835400000000 1.0
C      1  0.4547400000000  0.4284770000000  0.4682810000000 1.0
C      1  0.5447650000000  0.5101170000000  0.5781640000000 1.0
C      1  0.5086670000000  0.4824420000000  0.4004670000000 1.0
C      1  0.5235090000000  0.6034100000000  0.4260940000000 1.0
C      1  0.5515190000000  0.5349920000000  0.5908930000000 1.0
C      1  0.4979110000000  0.4591390000000  0.4131430000000 1.0
C      1  0.5681290000000  0.5793280000000  0.5347130000000 1.0
C      1  0.4683870000000  0.5612100000000  0.5640950000000 1.0
C      1  0.4133480000000  0.4585580000000  0.5489930000000 1.0
C      1  0.5543320000000  0.5029840000000  0.4093220000000 1.0
C      1  0.5085630000000  0.5313550000000  0.3966970000000 1.0
C      1  0.5817690000000  0.4754050000000  0.5046360000000 1.0
C      1  0.4109310000000  0.5121180000000  0.5340580000000 1.0
C      1  0.4448060000000  0.4199350000000  0.5209880000000 1.0
C      1  0.5744210000000  0.5565310000000  0.5509240000000 1.0
C      1  0.4689040000000  0.5608810000000  0.5061510000000 1.0
C      1  0.5313420000000  0.4757150000000  0.5359380000000 1.0
C      1  0.4479110000000  0.5758220000000  0.5220810000000 1.0
C      1  0.5207280000000  0.5662130000000  0.5191720000000 1.0
C      1  0.4523050000000  0.4497830000000  0.5184070000000 1.0
C      1  0.5221450000000  0.5392300000000  0.5298340000000 1.0
C      1  0.5382600000000  0.5189910000000  0.5157090000000 1.0
C      1  0.4954150000000  0.4757220000000  0.6164200000000 1.0
C      1  0.4688490000000  0.4552530000000  0.4130530000000 1.0
C      1  0.4826280000000  0.5259240000000  0.4428150000000 1.0
C      1  0.4720840000000  0.4914400000000  0.6158120000000 1.0
C      1  0.4165050000000  0.4831500000000  0.5316590000000 1.0
C      1  0.5412650000000  0.4569100000000  0.4273560000000 1.0
C      1  0.5741090000000  0.5411640000000  0.4581050000000 1.0
C      1  0.4790800000000  0.5303880000000  0.5169050000000 1.0
C      1  0.4423480000000  0.5266560000000  0.5891990000000 1.0
C      1  0.4857030000000  0.3967440000000  0.5428250000000 1.0
C      1  0.5828480000000  0.4582400000000  0.4533490000000 1.0
C      1  0.4708030000000  0.4799140000000  0.4569910000000 1.0
C      1  0.4713950000000  0.4535540000000  0.4703920000000 1.0
C      1  0.5274360000000  0.6079500000000  0.5178120000000 1.0
C      1  0.5043380000000  0.4886370000000  0.4881350000000 1.0
C      1  0.5021760000000  0.6073950000000  0.4732290000000 1.0
C      1  0.5535870000000  0.4162960000000  0.4576150000000 1.0
C      1  0.5581840000000  0.5697870000000  0.4845780000000 1.0
C      1  0.5128470000000  0.5795120000000  0.4132270000000 1.0
C      1  0.4329500000000  0.4320220000000  0.4458710000000 1.0
C      1  0.5304470000000  0.4500570000000  0.4851550000000 1.0
C      1  0.4529440000000  0.4381030000000  0.4279030000000 1.0
C      1  0.4963270000000  0.5288840000000  0.5389070000000 1.0
C      1  0.4142950000000  0.5247220000000  0.4620910000000 1.0
C      1  0.5242530000000  0.4115790000000  0.4553320000000 1.0
C      1  0.5031590000000  0.6042620000000  0.5021390000000 1.0
C      1  0.4360010000000  0.5255710000000  0.5405320000000 1.0
C      1  0.4813180000000  0.4480890000000  0.5139150000000 1.0
C      1  0.4856060000000  0.4484170000000  0.5547420000000 1.0
C      1  0.4716940000000  0.4939250000000  0.5665620000000 1.0
C      1  0.5162440000000  0.4389490000000  0.4626850000000 1.0
C      1  0.5289310000000  0.4366830000000  0.5102770000000 1.0
C      1  0.4378660000000  0.4556520000000  0.5653200000000 1.0
C      1  0.4216070000000  0.5091770000000  0.4350420000000 1.0
C      1  0.4880550000000  0.4757300000000  0.5548160000000 1.0
C      1  0.4925550000000  0.5203650000000  0.5666370000000 1.0
C      1  0.4012240000000  0.5159010000000  0.4836700000000 1.0
C      1  0.5718650000000  0.5078820000000  0.4327780000000 1.0
C      1  0.4484950000000  0.4177070000000  0.4934970000000 1.0
C      1  0.4261880000000  0.5479430000000  0.4761060000000 1.0
C      1  0.4490010000000  0.4969050000000  0.5015440000000 1.0
C      1  0.5467300000000  0.5813280000000  0.5124370000000 1.0
C      1  0.5117650000000  0.5672650000000  0.5798750000000 1.0
C      1  0.4278620000000  0.4807210000000  0.4352730000000 1.0
C      1  0.5800970000000  0.4349800000000  0.5044210000000 1.0
C      1  0.5267590000000  0.3909730000000  0.4771650000000 1.0
C      1  0.5218860000000  0.6088840000000  0.5464030000000 1.0
C      1  0.4689780000000  0.5706700000000  0.4551480000000 1.0
C      1  0.4707770000000  0.5242670000000  0.4700140000000 1.0
C      1  0.4883530000000  0.4630350000000  0.4908440000000 1.0
C      1  0.5439320000000  0.5177330000000  0.4714970000000 1.0
C      1  0.4158360000000  0.4566500000000  0.4483460000000 1.0
C      1  0.5748990000000  0.4867660000000  0.4528170000000 1.0
C      1  0.4077950000000  0.4506760000000  0.4744860000000 1.0
C      1  0.5131450000000  0.4853610000000  0.5532310000000 1.0
C      1  0.5252710000000  0.6006980000000  0.4566860000000 1.0
C      1  0.5368240000000  0.5743920000000  0.4643650000000 1.0
C      1  0.5947370000000  0.4870510000000  0.5280220000000 1.0
C      1  0.5037930000000  0.4868950000000  0.4573040000000 1.0
C      1  0.4374700000000  0.4745250000000  0.5134330000000 1.0
C      1  0.5079300000000  0.5118850000000  0.4430000000000 1.0
C      1  0.5612420000000  0.4415980000000  0.4428060000000 1.0
C      1  0.4565180000000  0.5534360000000  0.4767630000000 1.0
C      1  0.4897990000000  0.5490020000000  0.5790340000000 1.0
C      1  0.5521600000000  0.4190830000000  0.5137650000000 1.0
END
