TITL C-884139-6216-180 11.8915216109292 125000 -11330.4363981933 0 0 77 (C1) n - 1
REM
REM in /home/nfs/bkarasulu/CARBON/AIRSS/Generating-Clusters/ReaxFF-fromJPCA2015/Units_Real/with-SteepDescent/Only-C1/SD-CG/Try1-3A/FIRE-CG
REM
REM
REM
REM
REM
REM ./C.cell (11c1c37f851c82e70ff6c80c92926a4b)
REM
REM compiler GCC version 9.2.1 20190827 (Red Hat 9.2.1-1)
REM options -cpp -mtune=generic -march=x86-64 -g -O0 -fpre-include=/usr/include/finclude/math-vector-fortran.h
REM seed 1840568709 547009222 999545835 -260082787 1624988773 -1201749975 -2128865000 162825196 772424702 1351254094 147718672 -1189528307 736743107 -570976278 -230180529 1540195105 -580593609 -358057022 -13824219 -1350478490 1511009881 -1446490179 -201125161 -1659708808 -2007630413 1254534386 241164919 -789248925 1288033434 -1616064457 466576512 -1103534226 1126951726
REM
CELL 1.54180   50.00000   50.00000   50.00000   90.00000   90.00000   90.00000
LATT -1
SFAC C  
C      1  0.4705730000000  0.5722190000000  0.4567850000000 1.0
C      1  0.5548470000000  0.5363940000000  0.5021990000000 1.0
C      1  0.4989100000000  0.5001930000000  0.5798930000000 1.0
C      1  0.4360320000000  0.5117220000000  0.4576500000000 1.0
C      1  0.4539610000000  0.4998340000000  0.5599160000000 1.0
C      1  0.4685760000000  0.5528550000000  0.5499840000000 1.0
C      1  0.5571380000000  0.4784340000000  0.5119440000000 1.0
C      1  0.5041670000000  0.5263510000000  0.5684070000000 1.0
C      1  0.4369840000000  0.4593110000000  0.4982000000000 1.0
C      1  0.4535410000000  0.5498670000000  0.4613290000000 1.0
C      1  0.5022470000000  0.5296100000000  0.5071930000000 1.0
C      1  0.4542740000000  0.5448170000000  0.4906370000000 1.0
C      1  0.4627870000000  0.5043930000000  0.4500080000000 1.0
C      1  0.4361860000000  0.4833150000000  0.5425090000000 1.0
C      1  0.5157870000000  0.5089220000000  0.4168360000000 1.0
C      1  0.5262910000000  0.4299010000000  0.5190640000000 1.0
C      1  0.4397750000000  0.5025230000000  0.5206010000000 1.0
C      1  0.5131040000000  0.4579800000000  0.5634850000000 1.0
C      1  0.5039560000000  0.5823460000000  0.5345670000000 1.0
C      1  0.4917540000000  0.4653470000000  0.4374220000000 1.0
C      1  0.5059230000000  0.5301190000000  0.4348700000000 1.0
C      1  0.5022880000000  0.4853390000000  0.4226980000000 1.0
C      1  0.4284710000000  0.5262890000000  0.4817440000000 1.0
C      1  0.5276890000000  0.5447300000000  0.4448230000000 1.0
C      1  0.4607280000000  0.4737410000000  0.4866040000000 1.0
C      1  0.5752130000000  0.5212540000000  0.4602540000000 1.0
C      1  0.4651470000000  0.4942350000000  0.5061980000000 1.0
C      1  0.4943920000000  0.4218610000000  0.4818930000000 1.0
C      1  0.4750820000000  0.4848920000000  0.5736610000000 1.0
C      1  0.5188480000000  0.4332290000000  0.4702770000000 1.0
C      1  0.4663340000000  0.4761660000000  0.4527680000000 1.0
C      1  0.5539220000000  0.4606600000000  0.4893520000000 1.0
C      1  0.5628350000000  0.4731400000000  0.4643080000000 1.0
C      1  0.5051300000000  0.5017650000000  0.4728570000000 1.0
C      1  0.5386650000000  0.4961890000000  0.5232370000000 1.0
C      1  0.5250000000000  0.5731770000000  0.5170410000000 1.0
C      1  0.5452110000000  0.4724280000000  0.4412960000000 1.0
C      1  0.4846390000000  0.5802810000000  0.4840600000000 1.0
C      1  0.5510900000000  0.5362330000000  0.5479250000000 1.0
C      1  0.4901800000000  0.4833250000000  0.5175490000000 1.0
C      1  0.5477000000000  0.5533130000000  0.5251540000000 1.0
C      1  0.5202070000000  0.4781410000000  0.4739870000000 1.0
C      1  0.5417600000000  0.4968170000000  0.4265700000000 1.0
C      1  0.4187590000000  0.5060000000000  0.5001030000000 1.0
C      1  0.5768500000000  0.5214880000000  0.4890220000000 1.0
C      1  0.5219790000000  0.4826850000000  0.5762200000000 1.0
C      1  0.4422670000000  0.4579850000000  0.5301430000000 1.0
C      1  0.4813620000000  0.5323760000000  0.4868340000000 1.0
C      1  0.5271300000000  0.5382410000000  0.4920350000000 1.0
C      1  0.4859570000000  0.5197830000000  0.4579550000000 1.0
C      1  0.5428560000000  0.5026770000000  0.5710600000000 1.0
C      1  0.4434300000000  0.4390210000000  0.4714510000000 1.0
C      1  0.5801070000000  0.4962020000000  0.4725950000000 1.0
C      1  0.5719190000000  0.4762210000000  0.5372110000000 1.0
C      1  0.5471850000000  0.5196790000000  0.4472300000000 1.0
C      1  0.5184270000000  0.4568580000000  0.4511970000000 1.0
C      1  0.5321990000000  0.5035150000000  0.4695980000000 1.0
C      1  0.4989240000000  0.4287850000000  0.5111800000000 1.0
C      1  0.4660090000000  0.5724560000000  0.5038640000000 1.0
C      1  0.5328780000000  0.5300600000000  0.5695370000000 1.0
C      1  0.5559040000000  0.5044320000000  0.5452260000000 1.0
C      1  0.5318140000000  0.4413820000000  0.5465330000000 1.0
C      1  0.4743870000000  0.5745040000000  0.5310930000000 1.0
C      1  0.4875950000000  0.4535570000000  0.5226300000000 1.0
C      1  0.4836300000000  0.4582040000000  0.5646940000000 1.0
C      1  0.4405550000000  0.4613770000000  0.4521260000000 1.0
C      1  0.5272180000000  0.5586460000000  0.4706080000000 1.0
C      1  0.5565320000000  0.4548740000000  0.5450470000000 1.0
C      1  0.5135670000000  0.5770450000000  0.4888320000000 1.0
C      1  0.5369610000000  0.4370140000000  0.4921510000000 1.0
C      1  0.4619950000000  0.5253390000000  0.5478850000000 1.0
C      1  0.4238050000000  0.4836730000000  0.4604090000000 1.0
C      1  0.4680650000000  0.4287160000000  0.4751540000000 1.0
C      1  0.4167280000000  0.4796860000000  0.4877220000000 1.0
C      1  0.4662820000000  0.4477090000000  0.5422440000000 1.0
C      1  0.5105940000000  0.5025380000000  0.5177040000000 1.0
C      1  0.4887800000000  0.5336130000000  0.5449520000000 1.0
END
