TITL C-883739-1268-344 -13.796532172883 125000 -12789.1417024119 0 0 87 (C1) n - 1
REM
REM in /home/nfs/bkarasulu/CARBON/AIRSS/Generating-Clusters/ReaxFF-fromJPCA2015/Units_Real/with-SteepDescent/Only-C1/SD-CG/Try1-3A/FIRE-CG
REM
REM
REM
REM
REM
REM ./C.cell (11c1c37f851c82e70ff6c80c92926a4b)
REM
REM compiler GCC version 9.2.1 20190827 (Red Hat 9.2.1-1)
REM options -cpp -mtune=generic -march=x86-64 -g -O0 -fpre-include=/usr/include/finclude/math-vector-fortran.h
REM seed 187907682 -529729022 651869442 -936811763 51952262 575913365 -1043538841 1867437921 -1870386716 -1968945662 -1987754791 -1501055466 -274318288 1085965407 1678811731 -1393437463 -686268662 -2043140577 885246368 728813550 -304112492 -512909364 728523440 124984278 -1203421451 1627572453 155019404 1472648939 -507220847 1051567280 -1414064014 -317638742 1454490107
REM
CELL 1.54180   50.00000   50.00000   50.00000   90.00000   90.00000   90.00000
LATT -1
SFAC C  
C      1  0.5365800000000  0.5508450000000  0.5316040000000 1.0
C      1  0.4554420000000  0.4773140000000  0.5539140000000 1.0
C      1  0.5078220000000  0.5560260000000  0.4311040000000 1.0
C      1  0.4643700000000  0.5235160000000  0.4280840000000 1.0
C      1  0.5891850000000  0.4801250000000  0.4900500000000 1.0
C      1  0.4451710000000  0.4474530000000  0.5083610000000 1.0
C      1  0.4540270000000  0.5313250000000  0.5066340000000 1.0
C      1  0.4175340000000  0.4650190000000  0.5152860000000 1.0
C      1  0.4607030000000  0.5381210000000  0.4757410000000 1.0
C      1  0.5448850000000  0.4519540000000  0.5313440000000 1.0
C      1  0.4497650000000  0.5615160000000  0.5191850000000 1.0
C      1  0.5352070000000  0.5251720000000  0.5851730000000 1.0
C      1  0.4658230000000  0.5575240000000  0.5429580000000 1.0
C      1  0.4694350000000  0.4518730000000  0.5558590000000 1.0
C      1  0.4824740000000  0.5240670000000  0.5169510000000 1.0
C      1  0.4897310000000  0.4891570000000  0.4677750000000 1.0
C      1  0.4686990000000  0.4403470000000  0.5288910000000 1.0
C      1  0.5041850000000  0.5562080000000  0.5004700000000 1.0
C      1  0.5600120000000  0.5194210000000  0.5726410000000 1.0
C      1  0.5221310000000  0.4112910000000  0.4853250000000 1.0
C      1  0.4937790000000  0.5419480000000  0.4767000000000 1.0
C      1  0.5309790000000  0.5387770000000  0.4358570000000 1.0
C      1  0.5607270000000  0.4489270000000  0.4852410000000 1.0
C      1  0.4406450000000  0.4925690000000  0.4556740000000 1.0
C      1  0.4933010000000  0.4314340000000  0.5183790000000 1.0
C      1  0.4155360000000  0.4685870000000  0.5422560000000 1.0
C      1  0.4926160000000  0.4973790000000  0.5190430000000 1.0
C      1  0.5151310000000  0.5546490000000  0.5504660000000 1.0
C      1  0.5768740000000  0.5111410000000  0.5540220000000 1.0
C      1  0.4682180000000  0.4947890000000  0.4188420000000 1.0
C      1  0.4772600000000  0.4361660000000  0.4678780000000 1.0
C      1  0.4899840000000  0.4748510000000  0.4248680000000 1.0
C      1  0.5601450000000  0.4780630000000  0.4753690000000 1.0
C      1  0.4981510000000  0.5655290000000  0.4570780000000 1.0
C      1  0.5933110000000  0.5208250000000  0.5089280000000 1.0
C      1  0.4657620000000  0.4871400000000  0.5275410000000 1.0
C      1  0.5324310000000  0.4997040000000  0.5499480000000 1.0
C      1  0.5905480000000  0.5017810000000  0.5311390000000 1.0
C      1  0.5106730000000  0.5382440000000  0.5736850000000 1.0
C      1  0.4529170000000  0.5665510000000  0.4693050000000 1.0
C      1  0.5117890000000  0.4412540000000  0.4353310000000 1.0
C      1  0.5127820000000  0.4817310000000  0.5016950000000 1.0
C      1  0.4431280000000  0.4813240000000  0.4272440000000 1.0
C      1  0.5155310000000  0.5142530000000  0.4408800000000 1.0
C      1  0.5523270000000  0.5494010000000  0.4837380000000 1.0
C      1  0.5187460000000  0.4369930000000  0.5349960000000 1.0
C      1  0.4611830000000  0.5349660000000  0.5606890000000 1.0
C      1  0.5706370000000  0.5344750000000  0.5000350000000 1.0
C      1  0.4512920000000  0.5757810000000  0.4957430000000 1.0
C      1  0.4953760000000  0.4232310000000  0.4900120000000 1.0
C      1  0.5045200000000  0.4662110000000  0.4786610000000 1.0
C      1  0.5651260000000  0.4907880000000  0.4480570000000 1.0
C      1  0.4324530000000  0.5063750000000  0.5697970000000 1.0
C      1  0.4120590000000  0.5217110000000  0.4591230000000 1.0
C      1  0.5682320000000  0.4511840000000  0.5136660000000 1.0
C      1  0.4928680000000  0.5532320000000  0.5296960000000 1.0
C      1  0.5423900000000  0.4812350000000  0.5319240000000 1.0
C      1  0.5112180000000  0.4521900000000  0.5561480000000 1.0
C      1  0.4350920000000  0.5246770000000  0.5490540000000 1.0
C      1  0.4959070000000  0.4949810000000  0.5785690000000 1.0
C      1  0.5723160000000  0.5187020000000  0.4567330000000 1.0
C      1  0.4553010000000  0.4758120000000  0.5027030000000 1.0
C      1  0.5337360000000  0.4962510000000  0.4876440000000 1.0
C      1  0.4860650000000  0.5218150000000  0.5725710000000 1.0
C      1  0.4713840000000  0.5698390000000  0.4457480000000 1.0
C      1  0.5885680000000  0.5224160000000  0.4805290000000 1.0
C      1  0.4306890000000  0.5173680000000  0.5200480000000 1.0
C      1  0.5389120000000  0.5220540000000  0.5327290000000 1.0
C      1  0.4275160000000  0.4786310000000  0.5664280000000 1.0
C      1  0.5418720000000  0.4306660000000  0.4731060000000 1.0
C      1  0.4513390000000  0.4368070000000  0.4794750000000 1.0
C      1  0.5086830000000  0.5124460000000  0.4698040000000 1.0
C      1  0.5526480000000  0.5401370000000  0.4561280000000 1.0
C      1  0.5249740000000  0.4985280000000  0.5787650000000 1.0
C      1  0.5429210000000  0.4856440000000  0.4315990000000 1.0
C      1  0.4616380000000  0.4856020000000  0.4755480000000 1.0
C      1  0.4924630000000  0.4657460000000  0.5708640000000 1.0
C      1  0.4111870000000  0.5081090000000  0.4835540000000 1.0
C      1  0.5476860000000  0.5033220000000  0.5125870000000 1.0
C      1  0.4467450000000  0.5227400000000  0.4523300000000 1.0
C      1  0.4781580000000  0.5490770000000  0.4249710000000 1.0
C      1  0.4854050000000  0.4486910000000  0.4384010000000 1.0
C      1  0.5166720000000  0.4892410000000  0.4236870000000 1.0
C      1  0.5884050000000  0.4736640000000  0.5182130000000 1.0
C      1  0.5326220000000  0.5586850000000  0.5029540000000 1.0
C      1  0.5224800000000  0.4491140000000  0.4595820000000 1.0
C      1  0.4147920000000  0.4955780000000  0.5086680000000 1.0
END
