TITL C-884128-4793-486 99.2216280237662 125000 -27449.1919586817 0 0 188 (C1) n - 1
REM
REM in /home/nfs/bkarasulu/CARBON/AIRSS/Generating-Clusters/ReaxFF-fromJPCA2015/Units_Real/with-SteepDescent/Only-C1/SD-CG/Try1-3A/FIRE-CG
REM
REM
REM
REM
REM
REM ./C.cell (11c1c37f851c82e70ff6c80c92926a4b)
REM
REM compiler GCC version 9.2.1 20190827 (Red Hat 9.2.1-1)
REM options -cpp -mtune=generic -march=x86-64 -g -O0 -fpre-include=/usr/include/finclude/math-vector-fortran.h
REM seed 1132565333 -2034913384 829211375 1538086729 1410039022 -523180646 -1812753779 1235157471 197281719 1256816622 479563214 -1699430727 -1994214427 38241704 -1064153975 1064268026 -262745369 -847160028 77020216 -1317547677 1049410671 -1360829228 1404720853 1181328613 -864074420 -969823478 1098450840 -967940030 1930078774 1968574119 2083258766 -182388466 -1609974839
REM
CELL 1.54180   50.00000   50.00000   50.00000   90.00000   90.00000   90.00000
LATT -1
SFAC C  
C      1  0.4850880000000  0.4066110000000  0.5734100000000 1.0
C      1  0.5570540000000  0.5559980000000  0.4661110000000 1.0
C      1  0.5481770000000  0.3842750000000  0.5327050000000 1.0
C      1  0.5637230000000  0.5183810000000  0.6007170000000 1.0
C      1  0.5282020000000  0.3913580000000  0.4527540000000 1.0
C      1  0.4139480000000  0.5324470000000  0.4410570000000 1.0
C      1  0.5154660000000  0.6038580000000  0.5359750000000 1.0
C      1  0.5450560000000  0.4315300000000  0.4772800000000 1.0
C      1  0.4221620000000  0.4868450000000  0.4269610000000 1.0
C      1  0.5399450000000  0.5264110000000  0.4055840000000 1.0
C      1  0.4157000000000  0.5862940000000  0.4702280000000 1.0
C      1  0.5059890000000  0.4186770000000  0.5896900000000 1.0
C      1  0.4999210000000  0.4226980000000  0.4330130000000 1.0
C      1  0.4031070000000  0.4688840000000  0.5649160000000 1.0
C      1  0.4902510000000  0.5583440000000  0.6027880000000 1.0
C      1  0.5115400000000  0.5934660000000  0.5072230000000 1.0
C      1  0.4926650000000  0.5178060000000  0.4008380000000 1.0
C      1  0.5637600000000  0.4733260000000  0.5102660000000 1.0
C      1  0.4082830000000  0.4894300000000  0.5477660000000 1.0
C      1  0.3799410000000  0.5168750000000  0.4870030000000 1.0
C      1  0.4893900000000  0.5708490000000  0.4671760000000 1.0
C      1  0.4455780000000  0.5261610000000  0.4004530000000 1.0
C      1  0.5796810000000  0.4540860000000  0.5267480000000 1.0
C      1  0.5833950000000  0.5253470000000  0.5823760000000 1.0
C      1  0.5670210000000  0.4122680000000  0.4756080000000 1.0
C      1  0.5172610000000  0.5577820000000  0.5914570000000 1.0
C      1  0.4995490000000  0.3785730000000  0.5036640000000 1.0
C      1  0.4442450000000  0.5534230000000  0.5879810000000 1.0
C      1  0.5946660000000  0.5710100000000  0.4935940000000 1.0
C      1  0.5282970000000  0.5244800000000  0.4714500000000 1.0
C      1  0.4977190000000  0.4674960000000  0.6012250000000 1.0
C      1  0.4749480000000  0.3920670000000  0.4640640000000 1.0
C      1  0.5018590000000  0.3967390000000  0.4464010000000 1.0
C      1  0.4544910000000  0.4052720000000  0.5371990000000 1.0
C      1  0.4214850000000  0.4390460000000  0.5085090000000 1.0
C      1  0.3984360000000  0.5558370000000  0.5173250000000 1.0
C      1  0.5572680000000  0.4330110000000  0.5425680000000 1.0
C      1  0.4483090000000  0.5465700000000  0.4727090000000 1.0
C      1  0.5359100000000  0.5052460000000  0.3858840000000 1.0
C      1  0.5446880000000  0.4848990000000  0.4046690000000 1.0
C      1  0.5550600000000  0.4814470000000  0.4581910000000 1.0
C      1  0.5479780000000  0.5545740000000  0.4928890000000 1.0
C      1  0.4001630000000  0.5688420000000  0.4904840000000 1.0
C      1  0.5657480000000  0.4014260000000  0.4348010000000 1.0
C      1  0.4742590000000  0.3876670000000  0.4926540000000 1.0
C      1  0.5806170000000  0.4131380000000  0.5020160000000 1.0
C      1  0.4574820000000  0.4119410000000  0.5643290000000 1.0
C      1  0.4443000000000  0.5272450000000  0.5136500000000 1.0
C      1  0.4662060000000  0.5133290000000  0.6128960000000 1.0
C      1  0.5188770000000  0.3832330000000  0.5258870000000 1.0
C      1  0.4118730000000  0.4431320000000  0.4618160000000 1.0
C      1  0.4727650000000  0.5473190000000  0.4604190000000 1.0
C      1  0.5574310000000  0.5117680000000  0.4990400000000 1.0
C      1  0.4944180000000  0.4783040000000  0.3847440000000 1.0
C      1  0.4382370000000  0.6020320000000  0.4797240000000 1.0
C      1  0.4632360000000  0.5757220000000  0.5426050000000 1.0
C      1  0.5325380000000  0.5828590000000  0.5852240000000 1.0
C      1  0.5625330000000  0.4369610000000  0.5717860000000 1.0
C      1  0.5608160000000  0.4692110000000  0.5968960000000 1.0
C      1  0.5696870000000  0.5370600000000  0.4996560000000 1.0
C      1  0.6214430000000  0.5308390000000  0.5261610000000 1.0
C      1  0.5262980000000  0.5516520000000  0.5270890000000 1.0
C      1  0.6043920000000  0.5027860000000  0.4592810000000 1.0
C      1  0.4234490000000  0.5331720000000  0.4146660000000 1.0
C      1  0.4264010000000  0.4825590000000  0.5192740000000 1.0
C      1  0.4861710000000  0.5340200000000  0.5429140000000 1.0
C      1  0.4651820000000  0.5723680000000  0.5944160000000 1.0
C      1  0.4595490000000  0.4552000000000  0.4408240000000 1.0
C      1  0.5122690000000  0.5446450000000  0.5501330000000 1.0
C      1  0.5628580000000  0.4878470000000  0.4274410000000 1.0
C      1  0.4657540000000  0.4596150000000  0.5859830000000 1.0
C      1  0.5965270000000  0.4986990000000  0.5395370000000 1.0
C      1  0.5686840000000  0.4218490000000  0.4133520000000 1.0
C      1  0.5038590000000  0.4973110000000  0.4194960000000 1.0
C      1  0.5130720000000  0.5774550000000  0.4468110000000 1.0
C      1  0.4527800000000  0.5084650000000  0.5664740000000 1.0
C      1  0.4605610000000  0.5509530000000  0.4116700000000 1.0
C      1  0.4768630000000  0.4859280000000  0.6162040000000 1.0
C      1  0.5923210000000  0.5435850000000  0.4817890000000 1.0
C      1  0.5161270000000  0.4392800000000  0.4159870000000 1.0
C      1  0.5364070000000  0.4571880000000  0.4657010000000 1.0
C      1  0.4771470000000  0.4968720000000  0.4651380000000 1.0
C      1  0.4836360000000  0.5222100000000  0.4533250000000 1.0
C      1  0.4886460000000  0.5471810000000  0.4090330000000 1.0
C      1  0.5435980000000  0.4934480000000  0.5947670000000 1.0
C      1  0.5162960000000  0.4431080000000  0.6010380000000 1.0
C      1  0.5497870000000  0.5063990000000  0.4726430000000 1.0
C      1  0.3936980000000  0.5118450000000  0.5354330000000 1.0
C      1  0.4783020000000  0.4610640000000  0.5336610000000 1.0
C      1  0.4752350000000  0.4408590000000  0.4870840000000 1.0
C      1  0.5166900000000  0.4440560000000  0.5098630000000 1.0
C      1  0.5037310000000  0.5420380000000  0.5100780000000 1.0
C      1  0.4504300000000  0.5769020000000  0.5693890000000 1.0
C      1  0.5796400000000  0.5214600000000  0.5524190000000 1.0
C      1  0.5502060000000  0.5989290000000  0.4774290000000 1.0
C      1  0.5943020000000  0.4382270000000  0.5047030000000 1.0
C      1  0.4544180000000  0.4791260000000  0.4668160000000 1.0
C      1  0.5157550000000  0.4904280000000  0.5210890000000 1.0
C      1  0.5253070000000  0.5134750000000  0.4278860000000 1.0
C      1  0.4090170000000  0.5362370000000  0.5360070000000 1.0
C      1  0.4495110000000  0.4789940000000  0.5733120000000 1.0
C      1  0.4246060000000  0.5736010000000  0.4456490000000 1.0
C      1  0.5238490000000  0.5342400000000  0.5746240000000 1.0
C      1  0.5391160000000  0.4282780000000  0.4168710000000 1.0
C      1  0.4429210000000  0.4589640000000  0.5161120000000 1.0
C      1  0.5104580000000  0.4549250000000  0.4590790000000 1.0
C      1  0.5144850000000  0.4918170000000  0.5996560000000 1.0
C      1  0.5268290000000  0.6017200000000  0.4628400000000 1.0
C      1  0.5327940000000  0.4455990000000  0.5357280000000 1.0
C      1  0.4499540000000  0.4032530000000  0.4540460000000 1.0
C      1  0.4087470000000  0.4618830000000  0.4383860000000 1.0
C      1  0.5013520000000  0.4253850000000  0.5629070000000 1.0
C      1  0.5558960000000  0.3895220000000  0.4590810000000 1.0
C      1  0.5359170000000  0.5556530000000  0.4077320000000 1.0
C      1  0.4739690000000  0.4707400000000  0.4223070000000 1.0
C      1  0.4411240000000  0.4964080000000  0.4074140000000 1.0
C      1  0.4972590000000  0.4525180000000  0.5554140000000 1.0
C      1  0.6113640000000  0.5076240000000  0.5140640000000 1.0
C      1  0.5450660000000  0.4981490000000  0.5227060000000 1.0
C      1  0.4909940000000  0.4884320000000  0.5360470000000 1.0
C      1  0.5066290000000  0.5040340000000  0.3789540000000 1.0
C      1  0.5784520000000  0.4612710000000  0.5742210000000 1.0
C      1  0.4303230000000  0.4143430000000  0.4962200000000 1.0
C      1  0.3830080000000  0.5460340000000  0.4934440000000 1.0
C      1  0.4382510000000  0.6140840000000  0.5072650000000 1.0
C      1  0.5252220000000  0.4228960000000  0.4931990000000 1.0
C      1  0.4489840000000  0.5514010000000  0.5001180000000 1.0
C      1  0.5905560000000  0.4724750000000  0.5496920000000 1.0
C      1  0.6104270000000  0.4779690000000  0.4710020000000 1.0
C      1  0.5931700000000  0.5691710000000  0.5227350000000 1.0
C      1  0.5490470000000  0.5120120000000  0.5494790000000 1.0
C      1  0.5148620000000  0.4712350000000  0.4050630000000 1.0
C      1  0.4956280000000  0.5695350000000  0.4979750000000 1.0
C      1  0.5376080000000  0.4902720000000  0.5633200000000 1.0
C      1  0.3999180000000  0.4751820000000  0.5049760000000 1.0
C      1  0.4175020000000  0.5065690000000  0.4520350000000 1.0
C      1  0.3869200000000  0.5027930000000  0.4622780000000 1.0
C      1  0.4485590000000  0.5245470000000  0.5908430000000 1.0
C      1  0.3901920000000  0.4769190000000  0.4526430000000 1.0
C      1  0.5448110000000  0.5702660000000  0.5169790000000 1.0
C      1  0.5445460000000  0.4452570000000  0.5941530000000 1.0
C      1  0.4566410000000  0.4520740000000  0.4118160000000 1.0
C      1  0.4516710000000  0.3986400000000  0.5102800000000 1.0
C      1  0.4289000000000  0.4568910000000  0.5655730000000 1.0
C      1  0.5603240000000  0.5725620000000  0.5895540000000 1.0
C      1  0.4850830000000  0.4418240000000  0.4560230000000 1.0
C      1  0.4393470000000  0.5309540000000  0.5418140000000 1.0
C      1  0.5686100000000  0.5858980000000  0.5222840000000 1.0
C      1  0.5605300000000  0.5586730000000  0.4243710000000 1.0
C      1  0.5098410000000  0.5198150000000  0.4925890000000 1.0
C      1  0.4676210000000  0.5978110000000  0.4658380000000 1.0
C      1  0.4653510000000  0.5735280000000  0.5133140000000 1.0
C      1  0.5437430000000  0.5664800000000  0.4474230000000 1.0
C      1  0.4663530000000  0.6042000000000  0.5123490000000 1.0
C      1  0.4982750000000  0.4943500000000  0.4840940000000 1.0
C      1  0.5107050000000  0.6128680000000  0.4850870000000 1.0
C      1  0.3846970000000  0.4995630000000  0.5095250000000 1.0
C      1  0.5108310000000  0.5645070000000  0.4191940000000 1.0
C      1  0.4896050000000  0.5299910000000  0.6068120000000 1.0
C      1  0.4623890000000  0.5475010000000  0.5454560000000 1.0
C      1  0.4353470000000  0.5045930000000  0.5013480000000 1.0
C      1  0.4369550000000  0.4999400000000  0.4727570000000 1.0
C      1  0.4274180000000  0.4181750000000  0.4673640000000 1.0
C      1  0.4872910000000  0.4432800000000  0.5122010000000 1.0
C      1  0.5965090000000  0.4552000000000  0.4808090000000 1.0
C      1  0.6057690000000  0.5168540000000  0.4845470000000 1.0
C      1  0.4481270000000  0.4374980000000  0.5786310000000 1.0
C      1  0.5983800000000  0.5431680000000  0.5362630000000 1.0
C      1  0.4252240000000  0.5496510000000  0.4584280000000 1.0
C      1  0.5711330000000  0.5473230000000  0.5999080000000 1.0
C      1  0.4810810000000  0.6137840000000  0.4872240000000 1.0
C      1  0.5776930000000  0.5342530000000  0.4279750000000 1.0
C      1  0.5839530000000  0.5072180000000  0.4342870000000 1.0
C      1  0.4635060000000  0.5986080000000  0.4348710000000 1.0
C      1  0.5660570000000  0.4069770000000  0.5275080000000 1.0
C      1  0.4476860000000  0.5755580000000  0.4270850000000 1.0
C      1  0.5042190000000  0.5144560000000  0.5848580000000 1.0
C      1  0.4027530000000  0.4510940000000  0.4891600000000 1.0
C      1  0.4835910000000  0.5081670000000  0.5574260000000 1.0
C      1  0.5736100000000  0.5932420000000  0.4935580000000 1.0
C      1  0.4635620000000  0.4754190000000  0.3954320000000 1.0
C      1  0.5236420000000  0.4658440000000  0.5534690000000 1.0
C      1  0.5221210000000  0.3960370000000  0.4996500000000 1.0
C      1  0.5717040000000  0.4725180000000  0.4829730000000 1.0
C      1  0.5135130000000  0.4745110000000  0.4976570000000 1.0
C      1  0.4563440000000  0.4607310000000  0.4904180000000 1.0
C      1  0.5242430000000  0.5955260000000  0.5613960000000 1.0
C      1  0.5120160000000  0.5261100000000  0.4487790000000 1.0
END
