TITL C-883738-3659-309 -5.68651115748363 125000 -6547.64683584692 0 0 45 (C1) n - 1
REM
REM in /home/nfs/bkarasulu/CARBON/AIRSS/Generating-Clusters/ReaxFF-fromJPCA2015/Units_Real/with-SteepDescent/Only-C1/SD-CG/Try1-3A/FIRE-CG
REM
REM
REM
REM
REM
REM ./C.cell (11c1c37f851c82e70ff6c80c92926a4b)
REM
REM compiler GCC version 9.2.1 20190827 (Red Hat 9.2.1-1)
REM options -cpp -mtune=generic -march=x86-64 -g -O0 -fpre-include=/usr/include/finclude/math-vector-fortran.h
REM seed -141706741 -1129103054 680130488 -1569958060 1624406672 -1187075874 -1669576127 2005876635 -743937451 -1467194045 -1583897308 -919391262 909074713 -1703944786 1480822384 -262798984 -1937674019 662422846 -181939314 -1213355708 -885474478 -1885810496 -1256334223 -1349908232 -2105215598 -2089241468 -144047462 13425667 -745290083 -2012300655 23231251 1095388272 -1417569044
REM
CELL 1.54180   50.00000   50.00000   50.00000   90.00000   90.00000   90.00000
LATT -1
SFAC C  
C      1  0.4573650000000  0.5216400000000  0.5476960000000 1.0
C      1  0.5651940000000  0.4894900000000  0.4717930000000 1.0
C      1  0.5100910000000  0.4914490000000  0.4943190000000 1.0
C      1  0.4954740000000  0.5111990000000  0.5073580000000 1.0
C      1  0.4769430000000  0.4866750000000  0.4498910000000 1.0
C      1  0.5252780000000  0.5526910000000  0.4847950000000 1.0
C      1  0.4391030000000  0.4544630000000  0.5173030000000 1.0
C      1  0.5178070000000  0.4969170000000  0.5531790000000 1.0
C      1  0.4582250000000  0.5482790000000  0.4943060000000 1.0
C      1  0.5649550000000  0.4871450000000  0.5014750000000 1.0
C      1  0.4616400000000  0.4423300000000  0.5281790000000 1.0
C      1  0.5167450000000  0.4690890000000  0.5431670000000 1.0
C      1  0.4992920000000  0.5361000000000  0.4422870000000 1.0
C      1  0.4490220000000  0.5515870000000  0.5204940000000 1.0
C      1  0.4976990000000  0.5073110000000  0.4462790000000 1.0
C      1  0.4368990000000  0.5235580000000  0.5271850000000 1.0
C      1  0.5457510000000  0.5432300000000  0.4638950000000 1.0
C      1  0.4505000000000  0.4951700000000  0.4610520000000 1.0
C      1  0.4383190000000  0.4797380000000  0.4836050000000 1.0
C      1  0.4789650000000  0.4491940000000  0.4832390000000 1.0
C      1  0.5164790000000  0.4947020000000  0.4654340000000 1.0
C      1  0.5579520000000  0.5168850000000  0.4649080000000 1.0
C      1  0.5183820000000  0.4660010000000  0.5106990000000 1.0
C      1  0.4779570000000  0.5300420000000  0.4874840000000 1.0
C      1  0.5203700000000  0.4668190000000  0.4571870000000 1.0
C      1  0.5252180000000  0.5496370000000  0.4425150000000 1.0
C      1  0.5057660000000  0.5567880000000  0.4630910000000 1.0
C      1  0.4517110000000  0.5007020000000  0.5288680000000 1.0
C      1  0.5239440000000  0.5491430000000  0.5141630000000 1.0
C      1  0.4596970000000  0.5208650000000  0.4680560000000 1.0
C      1  0.5463870000000  0.4647470000000  0.4707330000000 1.0
C      1  0.5471810000000  0.4639380000000  0.4997080000000 1.0
C      1  0.4908640000000  0.4620270000000  0.4595370000000 1.0
C      1  0.4351200000000  0.4849260000000  0.5127540000000 1.0
C      1  0.5008270000000  0.5150720000000  0.5360210000000 1.0
C      1  0.5048510000000  0.4461260000000  0.5555380000000 1.0
C      1  0.5451740000000  0.5021680000000  0.5553530000000 1.0
C      1  0.5438980000000  0.5304370000000  0.5164570000000 1.0
C      1  0.5720830000000  0.5077590000000  0.5511290000000 1.0
C      1  0.5635490000000  0.5115330000000  0.5192230000000 1.0
C      1  0.4877520000000  0.4343310000000  0.5313510000000 1.0
C      1  0.5007770000000  0.5443170000000  0.5346880000000 1.0
C      1  0.4722040000000  0.5464940000000  0.5394420000000 1.0
C      1  0.4495250000000  0.4534880000000  0.4890680000000 1.0
C      1  0.4970630000000  0.4437990000000  0.5050970000000 1.0
END
