TITL C-884134-5972-347 1.63939777398524 125000 -9094.65219964229 0 0 62 (C1) n - 1
REM
REM in /home/nfs/bkarasulu/CARBON/AIRSS/Generating-Clusters/ReaxFF-fromJPCA2015/Units_Real/with-SteepDescent/Only-C1/SD-CG/Try1-3A/FIRE-CG
REM
REM
REM
REM
REM
REM ./C.cell (11c1c37f851c82e70ff6c80c92926a4b)
REM
REM compiler GCC version 9.2.1 20190827 (Red Hat 9.2.1-1)
REM options -cpp -mtune=generic -march=x86-64 -g -O0 -fpre-include=/usr/include/finclude/math-vector-fortran.h
REM seed -1456570327 1910862690 -2081468887 583755105 859963526 -216363287 -240182760 771309585 -50784943 -1513989970 -1993565033 1959708149 1719370966 1068446362 -171953687 1989098228 880717807 -882743183 -1900766078 1972723178 1158983752 -1161727523 155583707 -1045832453 -649144405 -1704583599 -340004352 1590638062 711600445 133433568 -380846186 681232785 791952445
REM
CELL 1.54180   50.00000   50.00000   50.00000   90.00000   90.00000   90.00000
LATT -1
SFAC C  
C      1  0.5573740000000  0.4495360000000  0.4819930000000 1.0
C      1  0.5528770000000  0.5162610000000  0.4623810000000 1.0
C      1  0.4940720000000  0.4678210000000  0.4426110000000 1.0
C      1  0.4444420000000  0.4833470000000  0.4933150000000 1.0
C      1  0.4547940000000  0.5354020000000  0.5395880000000 1.0
C      1  0.5348010000000  0.4511340000000  0.4615550000000 1.0
C      1  0.5101510000000  0.5265280000000  0.4388550000000 1.0
C      1  0.4626320000000  0.4607920000000  0.5304190000000 1.0
C      1  0.4840260000000  0.4815160000000  0.4207850000000 1.0
C      1  0.5067610000000  0.4126850000000  0.5693410000000 1.0
C      1  0.5291500000000  0.5749870000000  0.4976180000000 1.0
C      1  0.5449910000000  0.4985570000000  0.4914600000000 1.0
C      1  0.4783290000000  0.5202790000000  0.4767840000000 1.0
C      1  0.4772380000000  0.5313700000000  0.5586450000000 1.0
C      1  0.5509440000000  0.5204050000000  0.5328170000000 1.0
C      1  0.4912360000000  0.4302880000000  0.4854170000000 1.0
C      1  0.5291320000000  0.5061660000000  0.4480660000000 1.0
C      1  0.5028040000000  0.5354250000000  0.4839550000000 1.0
C      1  0.4292970000000  0.5046270000000  0.5067640000000 1.0
C      1  0.5577690000000  0.5407340000000  0.4767770000000 1.0
C      1  0.4526920000000  0.4570370000000  0.5028050000000 1.0
C      1  0.4496690000000  0.4843020000000  0.4529940000000 1.0
C      1  0.5599880000000  0.4722850000000  0.5315330000000 1.0
C      1  0.5270660000000  0.5090130000000  0.5377340000000 1.0
C      1  0.5533320000000  0.5583180000000  0.5004100000000 1.0
C      1  0.5231080000000  0.4545200000000  0.5078210000000 1.0
C      1  0.4953650000000  0.4933590000000  0.5027460000000 1.0
C      1  0.4827740000000  0.5227750000000  0.4270890000000 1.0
C      1  0.4454370000000  0.5461120000000  0.4903450000000 1.0
C      1  0.4670780000000  0.4615600000000  0.4545020000000 1.0
C      1  0.4618210000000  0.5489520000000  0.5148890000000 1.0
C      1  0.5262910000000  0.5670630000000  0.4706960000000 1.0
C      1  0.4711970000000  0.4959660000000  0.4875710000000 1.0
C      1  0.5059310000000  0.5380790000000  0.5615790000000 1.0
C      1  0.4624930000000  0.5436880000000  0.4661990000000 1.0
C      1  0.4913100000000  0.5447180000000  0.5137430000000 1.0
C      1  0.5177590000000  0.4787340000000  0.4907230000000 1.0
C      1  0.5105880000000  0.5508940000000  0.4547590000000 1.0
C      1  0.4389230000000  0.5103110000000  0.4554600000000 1.0
C      1  0.5519210000000  0.4505900000000  0.5111120000000 1.0
C      1  0.5600880000000  0.4985650000000  0.5179990000000 1.0
C      1  0.5288770000000  0.4856540000000  0.5756380000000 1.0
C      1  0.4673210000000  0.4457990000000  0.4803440000000 1.0
C      1  0.4421020000000  0.5093820000000  0.5329900000000 1.0
C      1  0.4839360000000  0.4422540000000  0.5353490000000 1.0
C      1  0.4600520000000  0.4883770000000  0.5422090000000 1.0
C      1  0.4978880000000  0.4375640000000  0.5637790000000 1.0
C      1  0.4306730000000  0.5222240000000  0.4836110000000 1.0
C      1  0.5009550000000  0.5121540000000  0.5249200000000 1.0
C      1  0.5260100000000  0.5202720000000  0.4928040000000 1.0
C      1  0.5211770000000  0.5136060000000  0.5649420000000 1.0
C      1  0.5009550000000  0.4353670000000  0.5129910000000 1.0
C      1  0.4835920000000  0.5041300000000  0.5501780000000 1.0
C      1  0.5140970000000  0.4308370000000  0.4657440000000 1.0
C      1  0.5098990000000  0.5673340000000  0.5196650000000 1.0
C      1  0.5126600000000  0.4616440000000  0.5756480000000 1.0
C      1  0.5470600000000  0.5488160000000  0.5286460000000 1.0
C      1  0.4796920000000  0.5032590000000  0.4023230000000 1.0
C      1  0.5224060000000  0.5558560000000  0.5428900000000 1.0
C      1  0.5192870000000  0.4779220000000  0.4564470000000 1.0
C      1  0.5457850000000  0.4739260000000  0.5556510000000 1.0
C      1  0.4579200000000  0.5289230000000  0.4413780000000 1.0
END
