TITL C-884129-4740-227 10.4194755372308 125000 -8685.24949542132 0 0 59 (C1) n - 1
REM
REM in /home/nfs/bkarasulu/CARBON/AIRSS/Generating-Clusters/ReaxFF-fromJPCA2015/Units_Real/with-SteepDescent/Only-C1/SD-CG/Try1-3A/FIRE-CG
REM
REM
REM
REM
REM
REM ./C.cell (11c1c37f851c82e70ff6c80c92926a4b)
REM
REM compiler GCC version 9.2.1 20190827 (Red Hat 9.2.1-1)
REM options -cpp -mtune=generic -march=x86-64 -g -O0 -fpre-include=/usr/include/finclude/math-vector-fortran.h
REM seed 1391037588 -1165123251 1931130192 -823050587 -277740460 -1192031965 166674702 -1116588654 280818804 -1150915285 766629259 1442454301 -2032197045 -302063043 -1215170320 -864167141 1229522048 -1250054080 1578462040 -659231827 -1212513224 -1724769951 1789118145 -1249827150 33685415 330291203 -777413730 1549103678 806046458 755340882 -1368908725 -868504123 -731609725
REM
CELL 1.54180   50.00000   50.00000   50.00000   90.00000   90.00000   90.00000
LATT -1
SFAC C  
C      1  0.4484360000000  0.4696470000000  0.5425890000000 1.0
C      1  0.4730380000000  0.4661670000000  0.5602640000000 1.0
C      1  0.5698840000000  0.4863220000000  0.4576510000000 1.0
C      1  0.5212950000000  0.4667070000000  0.4596830000000 1.0
C      1  0.4763480000000  0.4982760000000  0.4282380000000 1.0
C      1  0.5664710000000  0.4633740000000  0.4736740000000 1.0
C      1  0.4509840000000  0.4532270000000  0.5191700000000 1.0
C      1  0.4898880000000  0.4270530000000  0.4998640000000 1.0
C      1  0.4590190000000  0.5462100000000  0.5284040000000 1.0
C      1  0.4984280000000  0.4974120000000  0.5102000000000 1.0
C      1  0.5021830000000  0.4885650000000  0.4627740000000 1.0
C      1  0.5422790000000  0.5606500000000  0.4917920000000 1.0
C      1  0.5497830000000  0.4820340000000  0.5418100000000 1.0
C      1  0.5585890000000  0.4880900000000  0.5141980000000 1.0
C      1  0.5482050000000  0.5369600000000  0.5060390000000 1.0
C      1  0.5070720000000  0.5321470000000  0.5659540000000 1.0
C      1  0.4530930000000  0.5363680000000  0.4506470000000 1.0
C      1  0.4764330000000  0.4931840000000  0.5680570000000 1.0
C      1  0.5440030000000  0.5167080000000  0.4501350000000 1.0
C      1  0.4922980000000  0.4496670000000  0.5446790000000 1.0
C      1  0.4810060000000  0.5452050000000  0.4451040000000 1.0
C      1  0.4540220000000  0.4719390000000  0.4914560000000 1.0
C      1  0.4490990000000  0.4988510000000  0.4349650000000 1.0
C      1  0.5563530000000  0.4629150000000  0.5002020000000 1.0
C      1  0.4347540000000  0.4947280000000  0.4829280000000 1.0
C      1  0.4492080000000  0.4992670000000  0.5317600000000 1.0
C      1  0.4949530000000  0.5627340000000  0.4655650000000 1.0
C      1  0.4494770000000  0.5317800000000  0.5042060000000 1.0
C      1  0.4761010000000  0.4384570000000  0.5238480000000 1.0
C      1  0.5252230000000  0.4563380000000  0.5373330000000 1.0
C      1  0.5267700000000  0.4304800000000  0.5484350000000 1.0
C      1  0.5494050000000  0.4667300000000  0.4524030000000 1.0
C      1  0.4833910000000  0.4376590000000  0.4737340000000 1.0
C      1  0.5117150000000  0.4399030000000  0.4674820000000 1.0
C      1  0.4366580000000  0.5107320000000  0.4575910000000 1.0
C      1  0.4728210000000  0.5284440000000  0.4859390000000 1.0
C      1  0.5233100000000  0.5771190000000  0.5037120000000 1.0
C      1  0.5479670000000  0.4982460000000  0.5646110000000 1.0
C      1  0.4801280000000  0.4758810000000  0.4476240000000 1.0
C      1  0.4589830000000  0.5248920000000  0.5476400000000 1.0
C      1  0.4791320000000  0.5215280000000  0.5689740000000 1.0
C      1  0.4795380000000  0.5643450000000  0.5174880000000 1.0
C      1  0.5595320000000  0.5122150000000  0.4979800000000 1.0
C      1  0.5171960000000  0.5509860000000  0.5463900000000 1.0
C      1  0.5635090000000  0.5112530000000  0.4692690000000 1.0
C      1  0.5360540000000  0.4452560000000  0.5109260000000 1.0
C      1  0.5180190000000  0.4313050000000  0.4945670000000 1.0
C      1  0.5208390000000  0.5061250000000  0.5606900000000 1.0
C      1  0.4673000000000  0.4593570000000  0.4683440000000 1.0
C      1  0.4322810000000  0.5089020000000  0.5072280000000 1.0
C      1  0.5208130000000  0.5206070000000  0.4391010000000 1.0
C      1  0.5061650000000  0.5701100000000  0.5266120000000 1.0
C      1  0.4711610000000  0.4882400000000  0.5125130000000 1.0
C      1  0.4943500000000  0.5227500000000  0.4308440000000 1.0
C      1  0.4786630000000  0.5574150000000  0.4885650000000 1.0
C      1  0.5180420000000  0.5067110000000  0.5303040000000 1.0
C      1  0.5319000000000  0.5324540000000  0.5291020000000 1.0
C      1  0.5209200000000  0.5705990000000  0.4755420000000 1.0
C      1  0.4955130000000  0.5087740000000  0.4832060000000 1.0
END
