TITL C-884129-4740-42 566159.532047822 125000 -27018.6002334508 0 0 181 (C1) n - 1
REM
REM in /home/nfs/bkarasulu/CARBON/AIRSS/Generating-Clusters/ReaxFF-fromJPCA2015/Units_Real/with-SteepDescent/Only-C1/SD-CG/Try1-3A/FIRE-CG
REM
REM
REM
REM
REM
REM ./C.cell (11c1c37f851c82e70ff6c80c92926a4b)
REM
REM compiler GCC version 9.2.1 20190827 (Red Hat 9.2.1-1)
REM options -cpp -mtune=generic -march=x86-64 -g -O0 -fpre-include=/usr/include/finclude/math-vector-fortran.h
REM seed 1394334579 470468004 -969288396 -1369164682 -1348365219 -101846162 2019810547 1704631221 454836634 -137800799 857907044 -467334116 -509956344 -487974347 -15592083 -1783731334 -1346433078 -404720733 -1973998904 -21489880 -1105898553 -342599079 694092916 275828425 449269139 1707817726 -837626559 -675641663 751272444 -1368727808 2078098960 -1853754899 1657930819
REM
CELL 1.54180   50.00000   50.00000   50.00000   90.00000   90.00000   90.00000
LATT -1
SFAC C  
C      1  0.4831480000000  0.4693040000000  0.5137840000000 1.0
C      1  0.4987470000000  0.5243810000000  0.3861320000000 1.0
C      1  0.4827000000000  0.5744910000000  0.5263020000000 1.0
C      1  0.5000400000000  0.4736360000000  0.4039590000000 1.0
C      1  0.4673280000000  0.4456270000000  0.4742640000000 1.0
C      1  0.4696390000000  0.5710320000000  0.4205500000000 1.0
C      1  0.5985090000000  0.4965600000000  0.5396880000000 1.0
C      1  0.5116300000000  0.5710590000000  0.5227360000000 1.0
C      1  0.5085900000000  0.4487080000000  0.5518740000000 1.0
C      1  0.4183300000000  0.5352620000000  0.5749220000000 1.0
C      1  0.5938380000000  0.4729820000000  0.4916620000000 1.0
C      1  0.5525870000000  0.6054910000000  0.5042210000000 1.0
C      1  0.4831130000000  0.5247800000000  0.6120190000000 1.0
C      1  0.4287830000000  0.4786420000000  0.4187780000000 1.0
C      1  0.4134870000000  0.5427460000000  0.5466840000000 1.0
C      1  0.4823600000000  0.5510990000000  0.5983450000000 1.0
C      1  0.5089850000000  0.4478970000000  0.4456470000000 1.0
C      1  0.4463710000000  0.5119160000000  0.4651400000000 1.0
C      1  0.5485940000000  0.5023810000000  0.4007630000000 1.0
C      1  0.5894380000000  0.5265320000000  0.4734760000000 1.0
C      1  0.5418140000000  0.4113630000000  0.4714610000000 1.0
C      1  0.5257090000000  0.5110810000000  0.3837310000000 1.0
C      1  0.4985610000000  0.5674090000000  0.4102850000000 1.0
C      1  0.5922780000000  0.5441230000000  0.5615290000000 1.0
C      1  0.4863070000000  0.5485160000000  0.5698210000000 1.0
C      1  0.4639150000000  0.4013700000000  0.4522880000000 1.0
C      1  0.5052420000000  0.5105920000000  0.4479670000000 1.0
C      1  0.4166930000000  0.4661450000000  0.5706330000000 1.0
C      1  0.4360710000000  0.4273980000000  0.5542990000000 1.0
C      1  0.4516340000000  0.5489850000000  0.4271300000000 1.0
C      1  0.4735210000000  0.6012480000000  0.5179650000000 1.0
C      1  0.5836240000000  0.5719850000000  0.4712570000000 1.0
C      1  0.4576830000000  0.3971740000000  0.5044240000000 1.0
C      1  0.4719680000000  0.4676660000000  0.3875950000000 1.0
C      1  0.5449920000000  0.4775210000000  0.4730940000000 1.0
C      1  0.4989580000000  0.5330310000000  0.4646130000000 1.0
C      1  0.5384520000000  0.5985160000000  0.4792260000000 1.0
C      1  0.4471070000000  0.5354660000000  0.5829170000000 1.0
C      1  0.3971950000000  0.5233830000000  0.4560240000000 1.0
C      1  0.5067510000000  0.4780260000000  0.5627840000000 1.0
C      1  0.4571560000000  0.5055520000000  0.4909670000000 1.0
C      1  0.5557710000000  0.4350120000000  0.5387380000000 1.0
C      1  0.4425590000000  0.5116520000000  0.5166600000000 1.0
C      1  0.5552220000000  0.4373960000000  0.4343800000000 1.0
C      1  0.5338690000000  0.4196020000000  0.3955400000000 1.0
C      1  0.5516430000000  0.5625860000000  0.5851690000000 1.0
C      1  0.5754550000000  0.5674640000000  0.5693680000000 1.0
C      1  0.4386180000000  0.5901500000000  0.4807440000000 1.0
C      1  0.3866860000000  0.4632600000000  0.5227550000000 1.0
C      1  0.5366960000000  0.4391610000000  0.5589010000000 1.0
C      1  0.6021730000000  0.4960580000000  0.5101430000000 1.0
C      1  0.4627130000000  0.4319070000000  0.5416770000000 1.0
C      1  0.4880390000000  0.4690490000000  0.3652510000000 1.0
C      1  0.5128170000000  0.5464510000000  0.5609710000000 1.0
C      1  0.5301460000000  0.5819070000000  0.5854840000000 1.0
C      1  0.5538130000000  0.5740160000000  0.4666410000000 1.0
C      1  0.5326290000000  0.5132300000000  0.5797670000000 1.0
C      1  0.5423080000000  0.4354780000000  0.5867110000000 1.0
C      1  0.4469980000000  0.5095680000000  0.3967100000000 1.0
C      1  0.4958670000000  0.4458010000000  0.6015350000000 1.0
C      1  0.5152240000000  0.4565010000000  0.4203610000000 1.0
C      1  0.4753010000000  0.5136270000000  0.4019810000000 1.0
C      1  0.4070520000000  0.5506460000000  0.4553560000000 1.0
C      1  0.4648910000000  0.4579050000000  0.5496560000000 1.0
C      1  0.4133490000000  0.4652810000000  0.5404420000000 1.0
C      1  0.5365260000000  0.4679060000000  0.4994160000000 1.0
C      1  0.4865080000000  0.4962710000000  0.4233370000000 1.0
C      1  0.5239440000000  0.3922400000000  0.5538440000000 1.0
C      1  0.4295710000000  0.5769160000000  0.5231510000000 1.0
C      1  0.5399810000000  0.5386220000000  0.5684830000000 1.0
C      1  0.4922630000000  0.6084490000000  0.5462200000000 1.0
C      1  0.4954160000000  0.4318950000000  0.5757220000000 1.0
C      1  0.5281320000000  0.4160820000000  0.4974530000000 1.0
C      1  0.4688050000000  0.5282900000000  0.5311530000000 1.0
C      1  0.4204250000000  0.5660210000000  0.4771260000000 1.0
C      1  0.4551640000000  0.5371410000000  0.4534460000000 1.0
C      1  0.4772170000000  0.5478110000000  0.4656710000000 1.0
C      1  0.4342210000000  0.5623060000000  0.5478760000000 1.0
C      1  0.5138830000000  0.5449460000000  0.5345430000000 1.0
C      1  0.4756470000000  0.5905960000000  0.4406220000000 1.0
C      1  0.4201860000000  0.4319920000000  0.5031450000000 1.0
C      1  0.5279010000000  0.4033840000000  0.4173030000000 1.0
C      1  0.4600110000000  0.5432070000000  0.5568560000000 1.0
C      1  0.5181910000000  0.5982290000000  0.5393240000000 1.0
C      1  0.4997320000000  0.5200300000000  0.5329660000000 1.0
C      1  0.4134060000000  0.5310960000000  0.5181030000000 1.0
C      1  0.4707110000000  0.5518630000000  0.5133000000000 1.0
C      1  0.4445310000000  0.4795070000000  0.3947540000000 1.0
C      1  0.4545480000000  0.4534700000000  0.5962640000000 1.0
C      1  0.5389780000000  0.4747430000000  0.6121620000000 1.0
C      1  0.5505230000000  0.4995340000000  0.5985260000000 1.0
C      1  0.5415530000000  0.4492390000000  0.4096200000000 1.0
C      1  0.5682800000000  0.5432790000000  0.4324430000000 1.0
C      1  0.4328540000000  0.4437920000000  0.5800750000000 1.0
C      1  0.4755410000000  0.4657800000000  0.6094370000000 1.0
C      1  0.4165400000000  0.5578360000000  0.5043470000000 1.0
C      1  0.5826310000000  0.4921000000000  0.4404690000000 1.0
C      1  0.4337660000000  0.4887770000000  0.5755430000000 1.0
C      1  0.5210090000000  0.5015510000000  0.5547280000000 1.0
C      1  0.5253850000000  0.4501470000000  0.6075750000000 1.0
C      1  0.4274090000000  0.4382880000000  0.4452470000000 1.0
C      1  0.5608110000000  0.5131960000000  0.4270500000000 1.0
C      1  0.5006390000000  0.4493870000000  0.5228380000000 1.0
C      1  0.4350430000000  0.4097030000000  0.4892750000000 1.0
C      1  0.3906470000000  0.5140270000000  0.5046340000000 1.0
C      1  0.5025780000000  0.4035500000000  0.5713060000000 1.0
C      1  0.4926530000000  0.5962950000000  0.5720670000000 1.0
C      1  0.5006790000000  0.4885520000000  0.4669780000000 1.0
C      1  0.5063780000000  0.3939380000000  0.4868110000000 1.0
C      1  0.4539690000000  0.4677580000000  0.5105010000000 1.0
C      1  0.5880710000000  0.5486190000000  0.4538750000000 1.0
C      1  0.5429280000000  0.5558620000000  0.4405300000000 1.0
C      1  0.5804580000000  0.5418310000000  0.5347660000000 1.0
C      1  0.4749490000000  0.4189130000000  0.5161750000000 1.0
C      1  0.5793790000000  0.4513730000000  0.5398720000000 1.0
C      1  0.5654860000000  0.5857020000000  0.5485290000000 1.0
C      1  0.4900510000000  0.4085510000000  0.4665660000000 1.0
C      1  0.5326690000000  0.4210200000000  0.4446660000000 1.0
C      1  0.4847240000000  0.4919000000000  0.5754280000000 1.0
C      1  0.4101070000000  0.5327280000000  0.4311370000000 1.0
C      1  0.4382370000000  0.4127710000000  0.4600200000000 1.0
C      1  0.5695980000000  0.4208660000000  0.4734750000000 1.0
C      1  0.5091700000000  0.5096860000000  0.5070700000000 1.0
C      1  0.4816510000000  0.4270630000000  0.4883470000000 1.0
C      1  0.3825420000000  0.4898260000000  0.5154000000000 1.0
C      1  0.4762370000000  0.5623570000000  0.4881790000000 1.0
C      1  0.5775840000000  0.4719340000000  0.4644330000000 1.0
C      1  0.4624700000000  0.5972860000000  0.4660360000000 1.0
C      1  0.5012920000000  0.5788740000000  0.5929420000000 1.0
C      1  0.5392810000000  0.5939590000000  0.5589660000000 1.0
C      1  0.5236360000000  0.5580190000000  0.4980370000000 1.0
C      1  0.3949070000000  0.5025690000000  0.4775500000000 1.0
C      1  0.5980590000000  0.5466280000000  0.5106770000000 1.0
C      1  0.5497920000000  0.5004230000000  0.5345520000000 1.0
C      1  0.5894970000000  0.4470550000000  0.5000840000000 1.0
C      1  0.4829730000000  0.4962780000000  0.6043710000000 1.0
C      1  0.4454390000000  0.5965790000000  0.5088670000000 1.0
C      1  0.4002250000000  0.4732870000000  0.4764890000000 1.0
C      1  0.5741680000000  0.4437490000000  0.4545770000000 1.0
C      1  0.5565080000000  0.5286240000000  0.5422660000000 1.0
C      1  0.4821870000000  0.3833490000000  0.4975640000000 1.0
C      1  0.5506470000000  0.5541550000000  0.4894060000000 1.0
C      1  0.3966890000000  0.4537650000000  0.4970270000000 1.0
C      1  0.4296630000000  0.5135000000000  0.5874070000000 1.0
C      1  0.5616380000000  0.5272480000000  0.4850630000000 1.0
C      1  0.5124160000000  0.5333930000000  0.4895130000000 1.0
C      1  0.5447890000000  0.3876150000000  0.5365260000000 1.0
C      1  0.5209400000000  0.4447640000000  0.5047690000000 1.0
C      1  0.5105170000000  0.5996230000000  0.4719490000000 1.0
C      1  0.4796260000000  0.4543490000000  0.4505200000000 1.0
C      1  0.5748040000000  0.4809330000000  0.5391400000000 1.0
C      1  0.5330740000000  0.4934460000000  0.5116180000000 1.0
C      1  0.5209440000000  0.4705900000000  0.4577860000000 1.0
C      1  0.5185680000000  0.4817670000000  0.3802820000000 1.0
C      1  0.4597580000000  0.4827460000000  0.5623470000000 1.0
C      1  0.5732160000000  0.5056860000000  0.5827400000000 1.0
C      1  0.5214970000000  0.5731820000000  0.4284560000000 1.0
C      1  0.5722650000000  0.5890210000000  0.5194820000000 1.0
C      1  0.5539440000000  0.4139630000000  0.5190990000000 1.0
C      1  0.4428430000000  0.4535530000000  0.4871140000000 1.0
C      1  0.5778570000000  0.4213080000000  0.5014840000000 1.0
C      1  0.4354220000000  0.4842140000000  0.5244890000000 1.0
C      1  0.4184890000000  0.4360670000000  0.5329260000000 1.0
C      1  0.4417430000000  0.4866750000000  0.4478170000000 1.0
C      1  0.4692660000000  0.4779710000000  0.4400280000000 1.0
C      1  0.4331740000000  0.5307110000000  0.4132750000000 1.0
C      1  0.6049000000000  0.4909420000000  0.4294430000000 1.0
C      1  0.4263490000000  0.4634990000000  0.4639200000000 1.0
C      1  0.4840510000000  0.5923700000000  0.4866330000000 1.0
C      1  0.5696480000000  0.4371580000000  0.5835340000000 1.0
C      1  0.4310110000000  0.4517250000000  0.4219880000000 1.0
C      1  0.5935930000000  0.5144570000000  0.5653240000000 1.0
C      1  0.5449240000000  0.4750440000000  0.3923850000000 1.0
C      1  0.4856680000000  0.4909310000000  0.4927020000000 1.0
C      1  0.5847800000000  0.4421880000000  0.5662510000000 1.0
C      1  0.6062560000000  0.5219780000000  0.4969150000000 1.0
C      1  0.5881330000000  0.5718260000000  0.5003240000000 1.0
C      1  0.5363650000000  0.5198820000000  0.4458950000000 1.0
C      1  0.5096120000000  0.5458500000000  0.3989880000000 1.0
C      1  0.5448360000000  0.5083790000000  0.4712740000000 1.0
C      1  0.5053340000000  0.5913150000000  0.4451060000000 1.0
END
