TITL C-884140-4336-115 60.5896275452442 125000 -16156.4090904729 0 0 109 (C1) n - 1
REM
REM in /home/nfs/bkarasulu/CARBON/AIRSS/Generating-Clusters/ReaxFF-fromJPCA2015/Units_Real/with-SteepDescent/Only-C1/SD-CG/Try1-3A/FIRE-CG
REM
REM
REM
REM
REM
REM ./C.cell (11c1c37f851c82e70ff6c80c92926a4b)
REM
REM compiler GCC version 9.2.1 20190827 (Red Hat 9.2.1-1)
REM options -cpp -mtune=generic -march=x86-64 -g -O0 -fpre-include=/usr/include/finclude/math-vector-fortran.h
REM seed -1092498055 -781026507 1040539107 -120773248 1231322800 -748113911 -688204346 209661974 -1727093354 1108434660 -233182472 884306892 794611795 1845150633 286440296 238596228 -160573921 -1245443037 -1734606792 -233270776 1111010518 1222331812 -490010054 2117681819 1783448858 103322211 1915673776 -1037516607 -38391783 -291473250 1738439488 -258956172 -1146048605
REM
CELL 1.54180   50.00000   50.00000   50.00000   90.00000   90.00000   90.00000
LATT -1
SFAC C  
C      1  0.4771610000000  0.4997400000000  0.5337150000000 1.0
C      1  0.5601920000000  0.5511840000000  0.5297520000000 1.0
C      1  0.4980970000000  0.5213310000000  0.4050290000000 1.0
C      1  0.4289100000000  0.4679600000000  0.4623370000000 1.0
C      1  0.5143120000000  0.4583730000000  0.5275700000000 1.0
C      1  0.5172700000000  0.4863140000000  0.5245990000000 1.0
C      1  0.5354090000000  0.5010150000000  0.5068440000000 1.0
C      1  0.5099930000000  0.5295360000000  0.5823670000000 1.0
C      1  0.4207210000000  0.4584720000000  0.5179320000000 1.0
C      1  0.5491790000000  0.4355670000000  0.4639090000000 1.0
C      1  0.5692940000000  0.5335110000000  0.5741640000000 1.0
C      1  0.5228480000000  0.4397160000000  0.5708980000000 1.0
C      1  0.4353940000000  0.4740390000000  0.5554730000000 1.0
C      1  0.4742460000000  0.4952430000000  0.4652910000000 1.0
C      1  0.4377610000000  0.4501540000000  0.5393960000000 1.0
C      1  0.5222600000000  0.5451150000000  0.5599440000000 1.0
C      1  0.5800550000000  0.5134340000000  0.4468790000000 1.0
C      1  0.4659540000000  0.4309490000000  0.4601550000000 1.0
C      1  0.5232670000000  0.5234540000000  0.5385550000000 1.0
C      1  0.5460370000000  0.5172730000000  0.4101680000000 1.0
C      1  0.5119970000000  0.5362320000000  0.5159790000000 1.0
C      1  0.5193590000000  0.5916210000000  0.4685470000000 1.0
C      1  0.4771590000000  0.4943190000000  0.5064620000000 1.0
C      1  0.4872350000000  0.4606150000000  0.5310060000000 1.0
C      1  0.4829980000000  0.4673210000000  0.5791810000000 1.0
C      1  0.5825770000000  0.4967580000000  0.5430760000000 1.0
C      1  0.5268430000000  0.5108740000000  0.4812690000000 1.0
C      1  0.5218870000000  0.5347920000000  0.4161840000000 1.0
C      1  0.4781460000000  0.4712050000000  0.4209540000000 1.0
C      1  0.4814740000000  0.5422750000000  0.4514120000000 1.0
C      1  0.5721220000000  0.4745880000000  0.5282540000000 1.0
C      1  0.5837150000000  0.5148440000000  0.5216320000000 1.0
C      1  0.5390990000000  0.4418420000000  0.5285470000000 1.0
C      1  0.4727650000000  0.5711930000000  0.5563770000000 1.0
C      1  0.4192530000000  0.4945600000000  0.5409300000000 1.0
C      1  0.5522690000000  0.4627970000000  0.4523170000000 1.0
C      1  0.4646780000000  0.4704810000000  0.4965650000000 1.0
C      1  0.5366230000000  0.5703640000000  0.4574670000000 1.0
C      1  0.5281070000000  0.4159800000000  0.4720460000000 1.0
C      1  0.4937560000000  0.4400520000000  0.5735700000000 1.0
C      1  0.5464000000000  0.4882640000000  0.5796660000000 1.0
C      1  0.5532720000000  0.5518670000000  0.5566350000000 1.0
C      1  0.4639910000000  0.5074680000000  0.5791930000000 1.0
C      1  0.4654510000000  0.5270030000000  0.5300860000000 1.0
C      1  0.4599370000000  0.5480900000000  0.5680970000000 1.0
C      1  0.4324020000000  0.4830940000000  0.4368130000000 1.0
C      1  0.4881600000000  0.5460070000000  0.5267730000000 1.0
C      1  0.5555010000000  0.4388450000000  0.4921670000000 1.0
C      1  0.4597660000000  0.5823490000000  0.5325740000000 1.0
C      1  0.4899270000000  0.4011320000000  0.4764600000000 1.0
C      1  0.4764430000000  0.5022400000000  0.4188630000000 1.0
C      1  0.4405440000000  0.5302020000000  0.4404350000000 1.0
C      1  0.5016980000000  0.4153180000000  0.5229850000000 1.0
C      1  0.4663190000000  0.4419710000000  0.5312070000000 1.0
C      1  0.4790030000000  0.5300790000000  0.5824550000000 1.0
C      1  0.5224630000000  0.5581970000000  0.4342690000000 1.0
C      1  0.5564000000000  0.4805050000000  0.5011510000000 1.0
C      1  0.4709050000000  0.5164350000000  0.4865500000000 1.0
C      1  0.5838690000000  0.5044370000000  0.4725000000000 1.0
C      1  0.5677520000000  0.4809700000000  0.4699560000000 1.0
C      1  0.5692520000000  0.5041740000000  0.5701610000000 1.0
C      1  0.5829760000000  0.5253070000000  0.4965920000000 1.0
C      1  0.5348130000000  0.4888690000000  0.4102260000000 1.0
C      1  0.4665080000000  0.4141180000000  0.4850260000000 1.0
C      1  0.4790390000000  0.5874920000000  0.5108150000000 1.0
C      1  0.5040270000000  0.4866270000000  0.5741870000000 1.0
C      1  0.4495360000000  0.5228410000000  0.5056290000000 1.0
C      1  0.5040470000000  0.5011920000000  0.5451250000000 1.0
C      1  0.4352570000000  0.4746350000000  0.4905450000000 1.0
C      1  0.5359020000000  0.4603090000000  0.4932690000000 1.0
C      1  0.4845070000000  0.4702270000000  0.4754080000000 1.0
C      1  0.5057240000000  0.4098820000000  0.4542380000000 1.0
C      1  0.4507540000000  0.4620560000000  0.4275510000000 1.0
C      1  0.5137970000000  0.4705770000000  0.4765370000000 1.0
C      1  0.5662880000000  0.5491120000000  0.5031000000000 1.0
C      1  0.4451960000000  0.5674590000000  0.4768020000000 1.0
C      1  0.5436090000000  0.4611700000000  0.5687200000000 1.0
C      1  0.4221930000000  0.5321410000000  0.5055030000000 1.0
C      1  0.4999100000000  0.5667260000000  0.5439880000000 1.0
C      1  0.4361990000000  0.5661510000000  0.5271360000000 1.0
C      1  0.5220720000000  0.4092240000000  0.5014010000000 1.0
C      1  0.5673190000000  0.5178020000000  0.4278010000000 1.0
C      1  0.4283010000000  0.5606940000000  0.4994960000000 1.0
C      1  0.4740500000000  0.5748980000000  0.4829080000000 1.0
C      1  0.5290820000000  0.4727810000000  0.4350940000000 1.0
C      1  0.4875520000000  0.5428690000000  0.4791640000000 1.0
C      1  0.4951760000000  0.5655770000000  0.4405720000000 1.0
C      1  0.4920440000000  0.5857300000000  0.4606190000000 1.0
C      1  0.5063420000000  0.4232970000000  0.5523060000000 1.0
C      1  0.5218340000000  0.5038260000000  0.5891730000000 1.0
C      1  0.4191550000000  0.5227400000000  0.5339080000000 1.0
C      1  0.4150300000000  0.4858800000000  0.5136120000000 1.0
C      1  0.5007300000000  0.4571180000000  0.4303640000000 1.0
C      1  0.4381170000000  0.5428400000000  0.5468470000000 1.0
C      1  0.5063530000000  0.5851390000000  0.5179750000000 1.0
C      1  0.5157880000000  0.5368820000000  0.4872200000000 1.0
C      1  0.4560190000000  0.4811090000000  0.5762820000000 1.0
C      1  0.4501560000000  0.5515810000000  0.4529610000000 1.0
C      1  0.4903730000000  0.4333430000000  0.4436790000000 1.0
C      1  0.4448160000000  0.4467760000000  0.4510780000000 1.0
C      1  0.4747450000000  0.4188040000000  0.5138720000000 1.0
C      1  0.5118490000000  0.4986290000000  0.3968630000000 1.0
C      1  0.4447570000000  0.5075600000000  0.4269870000000 1.0
C      1  0.5411540000000  0.5596770000000  0.4853800000000 1.0
C      1  0.5461530000000  0.4202070000000  0.5123490000000 1.0
C      1  0.5171310000000  0.4948130000000  0.4590600000000 1.0
C      1  0.5581120000000  0.4553500000000  0.5443120000000 1.0
C      1  0.4895870000000  0.5103390000000  0.4460860000000 1.0
C      1  0.5260430000000  0.5838870000000  0.4964900000000 1.0
END
