TITL C-883739-1268-357 7.69872276727961 125000 -17823.8647926319 0 0 119 (C1) n - 1
REM
REM in /home/nfs/bkarasulu/CARBON/AIRSS/Generating-Clusters/ReaxFF-fromJPCA2015/Units_Real/with-SteepDescent/Only-C1/SD-CG/Try1-3A/FIRE-CG
REM
REM
REM
REM
REM
REM ./C.cell (11c1c37f851c82e70ff6c80c92926a4b)
REM
REM compiler GCC version 9.2.1 20190827 (Red Hat 9.2.1-1)
REM options -cpp -mtune=generic -march=x86-64 -g -O0 -fpre-include=/usr/include/finclude/math-vector-fortran.h
REM seed -493697575 -1125359051 728626914 1349226808 803765814 -1332449332 736052365 -1103479195 -1951242414 -271838321 2104629917 519414823 968192196 588654038 -996722177 756045929 -839404200 -495209686 1451470354 -1198364245 424857770 -1280638684 1070665429 -1575322671 -1388312467 -1158082017 -235490285 -1498318990 -1444764418 1524147454 889727457 -1161224657 -414403033
REM
CELL 1.54180   50.00000   50.00000   50.00000   90.00000   90.00000   90.00000
LATT -1
SFAC C  
C      1  0.4570120000000  0.4893870000000  0.4213100000000 1.0
C      1  0.4558640000000  0.4919860000000  0.4503540000000 1.0
C      1  0.4460790000000  0.5776770000000  0.5215090000000 1.0
C      1  0.5446370000000  0.5846350000000  0.5054200000000 1.0
C      1  0.4431170000000  0.5592480000000  0.4360760000000 1.0
C      1  0.5654210000000  0.5390340000000  0.5632530000000 1.0
C      1  0.4136750000000  0.5390960000000  0.4866610000000 1.0
C      1  0.5090990000000  0.5573430000000  0.5623170000000 1.0
C      1  0.4368920000000  0.5111520000000  0.5493990000000 1.0
C      1  0.5021780000000  0.4608690000000  0.4822790000000 1.0
C      1  0.4808620000000  0.4953930000000  0.4892710000000 1.0
C      1  0.4748280000000  0.4876770000000  0.5759910000000 1.0
C      1  0.4569900000000  0.5007370000000  0.5288850000000 1.0
C      1  0.5888060000000  0.5206790000000  0.5570620000000 1.0
C      1  0.4204890000000  0.4498200000000  0.5376170000000 1.0
C      1  0.5333730000000  0.5488110000000  0.4297930000000 1.0
C      1  0.5179460000000  0.4565480000000  0.4316710000000 1.0
C      1  0.4383990000000  0.5430860000000  0.5564350000000 1.0
C      1  0.4382220000000  0.5843350000000  0.4939440000000 1.0
C      1  0.4691610000000  0.4736660000000  0.5297750000000 1.0
C      1  0.5226550000000  0.5865830000000  0.5216510000000 1.0
C      1  0.4998060000000  0.5155710000000  0.4515990000000 1.0
C      1  0.5035980000000  0.5091960000000  0.5426770000000 1.0
C      1  0.5816160000000  0.4772110000000  0.4954970000000 1.0
C      1  0.5482010000000  0.4215250000000  0.4602080000000 1.0
C      1  0.4519630000000  0.4478630000000  0.5725920000000 1.0
C      1  0.5280720000000  0.4975420000000  0.4540680000000 1.0
C      1  0.4881450000000  0.4469320000000  0.4311930000000 1.0
C      1  0.5243010000000  0.5513910000000  0.4782180000000 1.0
C      1  0.5498160000000  0.4195270000000  0.5031350000000 1.0
C      1  0.4256160000000  0.5374090000000  0.4420090000000 1.0
C      1  0.4549080000000  0.5463960000000  0.4939410000000 1.0
C      1  0.5049760000000  0.4202070000000  0.5303920000000 1.0
C      1  0.5047960000000  0.5493400000000  0.4242010000000 1.0
C      1  0.5437110000000  0.5265100000000  0.5783800000000 1.0
C      1  0.4294460000000  0.5560160000000  0.5324040000000 1.0
C      1  0.5691860000000  0.5641220000000  0.4659640000000 1.0
C      1  0.4661150000000  0.4726630000000  0.4989970000000 1.0
C      1  0.5510130000000  0.5267520000000  0.4221900000000 1.0
C      1  0.5830140000000  0.4785600000000  0.5250570000000 1.0
C      1  0.5297760000000  0.5044520000000  0.5375000000000 1.0
C      1  0.5762310000000  0.4569920000000  0.4752270000000 1.0
C      1  0.4439440000000  0.4892230000000  0.5692500000000 1.0
C      1  0.5705800000000  0.4906350000000  0.4343910000000 1.0
C      1  0.5224830000000  0.4830170000000  0.5819360000000 1.0
C      1  0.4870570000000  0.4266950000000  0.5518560000000 1.0
C      1  0.5432960000000  0.4478130000000  0.5482220000000 1.0
C      1  0.4144360000000  0.5358640000000  0.5158450000000 1.0
C      1  0.5163890000000  0.4712690000000  0.4587570000000 1.0
C      1  0.5186190000000  0.4654060000000  0.5066290000000 1.0
C      1  0.4447250000000  0.4226430000000  0.4962380000000 1.0
C      1  0.4858020000000  0.5851640000000  0.4825870000000 1.0
C      1  0.4147480000000  0.5100360000000  0.5272350000000 1.0
C      1  0.4383520000000  0.4807660000000  0.4926750000000 1.0
C      1  0.5866360000000  0.5430560000000  0.4554180000000 1.0
C      1  0.5811840000000  0.5229540000000  0.5081200000000 1.0
C      1  0.5149200000000  0.5316370000000  0.5779760000000 1.0
C      1  0.4940940000000  0.5861720000000  0.5096200000000 1.0
C      1  0.5264460000000  0.4186140000000  0.4782920000000 1.0
C      1  0.4152500000000  0.4860370000000  0.5103830000000 1.0
C      1  0.5739200000000  0.5203450000000  0.4394610000000 1.0
C      1  0.4600520000000  0.5899640000000  0.4737680000000 1.0
C      1  0.5331330000000  0.4897850000000  0.5123690000000 1.0
C      1  0.5297850000000  0.5693150000000  0.5453450000000 1.0
C      1  0.5753650000000  0.5043790000000  0.4864650000000 1.0
C      1  0.4744750000000  0.5142060000000  0.5099180000000 1.0
C      1  0.5095370000000  0.3889600000000  0.5207930000000 1.0
C      1  0.4755620000000  0.5420700000000  0.5038190000000 1.0
C      1  0.5413500000000  0.5597570000000  0.4567150000000 1.0
C      1  0.5526880000000  0.4195260000000  0.5314630000000 1.0
C      1  0.5697410000000  0.4650210000000  0.4478470000000 1.0
C      1  0.4757480000000  0.4588710000000  0.5847250000000 1.0
C      1  0.5503470000000  0.5084610000000  0.4713230000000 1.0
C      1  0.5558700000000  0.5561900000000  0.5424970000000 1.0
C      1  0.4319410000000  0.4475300000000  0.4572130000000 1.0
C      1  0.5029460000000  0.5050040000000  0.5828960000000 1.0
C      1  0.5365330000000  0.5099400000000  0.4943220000000 1.0
C      1  0.4646240000000  0.4059050000000  0.4991900000000 1.0
C      1  0.4303390000000  0.4924070000000  0.4657410000000 1.0
C      1  0.5668200000000  0.5721370000000  0.4952420000000 1.0
C      1  0.5433910000000  0.4972130000000  0.4224600000000 1.0
C      1  0.4140460000000  0.4661970000000  0.4498400000000 1.0
C      1  0.4826730000000  0.5674310000000  0.5555970000000 1.0
C      1  0.4981860000000  0.4428420000000  0.5745110000000 1.0
C      1  0.5332120000000  0.5360390000000  0.5040400000000 1.0
C      1  0.5461060000000  0.4977450000000  0.5712530000000 1.0
C      1  0.5209830000000  0.4450300000000  0.5268970000000 1.0
C      1  0.4923660000000  0.5214600000000  0.4202080000000 1.0
C      1  0.4322380000000  0.5593740000000  0.4833580000000 1.0
C      1  0.5005440000000  0.4316590000000  0.4752130000000 1.0
C      1  0.5647100000000  0.5480160000000  0.5142540000000 1.0
C      1  0.5218350000000  0.4790040000000  0.4116030000000 1.0
C      1  0.5962240000000  0.4986780000000  0.5760980000000 1.0
C      1  0.5672380000000  0.4292060000000  0.4809970000000 1.0
C      1  0.4405390000000  0.4333920000000  0.5239750000000 1.0
C      1  0.4780490000000  0.4696140000000  0.4152600000000 1.0
C      1  0.4791210000000  0.4325580000000  0.4544530000000 1.0
C      1  0.4597410000000  0.5555980000000  0.5719920000000 1.0
C      1  0.4512370000000  0.4308510000000  0.4669740000000 1.0
C      1  0.5720550000000  0.4813740000000  0.5704070000000 1.0
C      1  0.4304010000000  0.4648220000000  0.5639950000000 1.0
C      1  0.4431880000000  0.5365960000000  0.4198860000000 1.0
C      1  0.5236900000000  0.4556770000000  0.5714180000000 1.0
C      1  0.4636890000000  0.5171410000000  0.4132750000000 1.0
C      1  0.4855430000000  0.3924220000000  0.5070860000000 1.0
C      1  0.4646830000000  0.5743110000000  0.4489040000000 1.0
C      1  0.4737080000000  0.5801030000000  0.5303480000000 1.0
C      1  0.4193260000000  0.5213320000000  0.4649260000000 1.0
C      1  0.5685170000000  0.4652840000000  0.5463790000000 1.0
C      1  0.4620130000000  0.4411020000000  0.5434620000000 1.0
C      1  0.4786390000000  0.5008920000000  0.4629220000000 1.0
C      1  0.4967310000000  0.4910910000000  0.4072770000000 1.0
C      1  0.5490320000000  0.4433190000000  0.4369820000000 1.0
C      1  0.4926010000000  0.5646220000000  0.4468170000000 1.0
C      1  0.5165330000000  0.5290550000000  0.5278170000000 1.0
C      1  0.3991630000000  0.4618390000000  0.5213190000000 1.0
C      1  0.4888590000000  0.4862090000000  0.5489780000000 1.0
C      1  0.5893600000000  0.5072060000000  0.5304770000000 1.0
C      1  0.5000780000000  0.5429840000000  0.4656800000000 1.0
END
