TITL C-883735-9890-152 8.18740233104599e-06 125000 -3151.96024575418 0 0 23 (C1) n - 1
REM
REM in /home/nfs/bkarasulu/CARBON/AIRSS/Generating-Clusters/ReaxFF-fromJPCA2015/Units_Real/with-SteepDescent/Only-C1/SD-CG/Try1-3A/FIRE-CG
REM
REM
REM
REM
REM
REM ./C.cell (11c1c37f851c82e70ff6c80c92926a4b)
REM
REM compiler GCC version 9.2.1 20190827 (Red Hat 9.2.1-1)
REM options -cpp -mtune=generic -march=x86-64 -g -O0 -fpre-include=/usr/include/finclude/math-vector-fortran.h
REM seed 1971697831 -1651980617 1378783885 2047627169 -554397631 -670674287 -1466570606 1683018737 320566582 1406740887 -1145676575 -737200431 103948474 -901060222 843971564 -1554945572 -338172553 74468576 86528011 -1557332694 -873417984 1498935332 -28134310 -722516350 -862281355 376029902 -470856463 620496421 -1819519054 319144133 37518290 -353721062 -895981587
REM
CELL 1.54180   50.00000   50.00000   50.00000   90.00000   90.00000   90.00000
LATT -1
SFAC C  
C      1  0.4935430000000  0.5432100000000  0.4792400000000 1.0
C      1  0.5458400000000  0.4711190000000  0.4985950000000 1.0
C      1  0.4565890000000  0.4952100000000  0.5269100000000 1.0
C      1  0.4737590000000  0.5467740000000  0.4598780000000 1.0
C      1  0.4560550000000  0.5183880000000  0.5081540000000 1.0
C      1  0.4857590000000  0.4522080000000  0.5427180000000 1.0
C      1  0.4784140000000  0.4838410000000  0.5431610000000 1.0
C      1  0.5046170000000  0.4714070000000  0.4683120000000 1.0
C      1  0.4986870000000  0.5221900000000  0.5250800000000 1.0
C      1  0.5010570000000  0.5032640000000  0.5447470000000 1.0
C      1  0.4858730000000  0.4488560000000  0.4601310000000 1.0
C      1  0.4333540000000  0.5246050000000  0.4868110000000 1.0
C      1  0.5415080000000  0.5208170000000  0.4904370000000 1.0
C      1  0.4895510000000  0.4727190000000  0.4418890000000 1.0
C      1  0.4816680000000  0.5328390000000  0.5065650000000 1.0
C      1  0.5491330000000  0.4931190000000  0.4821080000000 1.0
C      1  0.5111350000000  0.4596800000000  0.5327640000000 1.0
C      1  0.5345120000000  0.4723250000000  0.5251120000000 1.0
C      1  0.5330470000000  0.4712270000000  0.4737700000000 1.0
C      1  0.5306810000000  0.4993270000000  0.5379360000000 1.0
C      1  0.5401310000000  0.5221680000000  0.5210750000000 1.0
C      1  0.5225180000000  0.5372620000000  0.4749490000000 1.0
C      1  0.4525670000000  0.5374470000000  0.4696580000000 1.0
END
