TITL C-884132-5695-327 65.5967083624863 125000 -27457.9883980261 0 0 186 (C1) n - 1
REM
REM in /home/nfs/bkarasulu/CARBON/AIRSS/Generating-Clusters/ReaxFF-fromJPCA2015/Units_Real/with-SteepDescent/Only-C1/SD-CG/Try1-3A/FIRE-CG
REM
REM
REM
REM
REM
REM ./C.cell (11c1c37f851c82e70ff6c80c92926a4b)
REM
REM compiler GCC version 9.2.1 20190827 (Red Hat 9.2.1-1)
REM options -cpp -mtune=generic -march=x86-64 -g -O0 -fpre-include=/usr/include/finclude/math-vector-fortran.h
REM seed -488015128 1272823084 1586461202 -970720884 805740402 873434484 -417599230 -701109167 1668019234 204756359 -1027799010 670778845 -1744035959 -267820168 2121438768 -280778996 -690418343 973894781 1920312868 943536262 1653251034 -1832412261 -8752311 -1293795801 -686545764 1405853999 1591249118 978611736 -1411075822 1166557100 1811591324 -232470751 2085437914
REM
CELL 1.54180   50.00000   50.00000   50.00000   90.00000   90.00000   90.00000
LATT -1
SFAC C  
C      1  0.5239600000000  0.4462490000000  0.5151800000000 1.0
C      1  0.5583680000000  0.5837750000000  0.4952100000000 1.0
C      1  0.4424830000000  0.4880000000000  0.4634360000000 1.0
C      1  0.4796060000000  0.5440910000000  0.3962750000000 1.0
C      1  0.5638900000000  0.5695760000000  0.5202630000000 1.0
C      1  0.4914750000000  0.5642980000000  0.5659300000000 1.0
C      1  0.4494020000000  0.4770080000000  0.5498480000000 1.0
C      1  0.4534950000000  0.5327350000000  0.4032870000000 1.0
C      1  0.5834240000000  0.4312640000000  0.5387150000000 1.0
C      1  0.6098290000000  0.5254520000000  0.5514890000000 1.0
C      1  0.4271480000000  0.4429570000000  0.5571590000000 1.0
C      1  0.4117960000000  0.5588950000000  0.4944000000000 1.0
C      1  0.3838500000000  0.5080300000000  0.4907770000000 1.0
C      1  0.5067890000000  0.5642560000000  0.5041920000000 1.0
C      1  0.4816830000000  0.6130440000000  0.5198020000000 1.0
C      1  0.5220050000000  0.6087680000000  0.5142910000000 1.0
C      1  0.5706640000000  0.5737160000000  0.4707690000000 1.0
C      1  0.4646730000000  0.4703560000000  0.4720540000000 1.0
C      1  0.5304470000000  0.5024830000000  0.6122240000000 1.0
C      1  0.4975510000000  0.3999930000000  0.5502120000000 1.0
C      1  0.4668980000000  0.4097740000000  0.5209120000000 1.0
C      1  0.5923560000000  0.4587690000000  0.5437780000000 1.0
C      1  0.4696300000000  0.5480570000000  0.5309010000000 1.0
C      1  0.4028160000000  0.4619520000000  0.4578460000000 1.0
C      1  0.4275540000000  0.4208430000000  0.4905620000000 1.0
C      1  0.4933220000000  0.5410130000000  0.4415350000000 1.0
C      1  0.4364890000000  0.5492080000000  0.4199490000000 1.0
C      1  0.4383680000000  0.4862440000000  0.5752170000000 1.0
C      1  0.4885090000000  0.4627690000000  0.6013930000000 1.0
C      1  0.4130610000000  0.5110790000000  0.4245770000000 1.0
C      1  0.5169350000000  0.5168720000000  0.5458330000000 1.0
C      1  0.5221040000000  0.4324350000000  0.4363890000000 1.0
C      1  0.5546670000000  0.5069570000000  0.5984450000000 1.0
C      1  0.5547590000000  0.4021040000000  0.5266960000000 1.0
C      1  0.4823660000000  0.4010950000000  0.4470460000000 1.0
C      1  0.5049940000000  0.6151870000000  0.5354720000000 1.0
C      1  0.5929070000000  0.5415290000000  0.5635290000000 1.0
C      1  0.4779850000000  0.4410080000000  0.5848430000000 1.0
C      1  0.4408000000000  0.5833170000000  0.4597180000000 1.0
C      1  0.4510840000000  0.5600360000000  0.5125960000000 1.0
C      1  0.4966310000000  0.4962250000000  0.4490300000000 1.0
C      1  0.4795350000000  0.5898570000000  0.5733400000000 1.0
C      1  0.4459830000000  0.5744820000000  0.4318960000000 1.0
C      1  0.4986050000000  0.4162980000000  0.4265750000000 1.0
C      1  0.5401680000000  0.5522200000000  0.4110390000000 1.0
C      1  0.4637900000000  0.4420910000000  0.4743100000000 1.0
C      1  0.4438120000000  0.5861880000000  0.5217230000000 1.0
C      1  0.4095900000000  0.5410740000000  0.5144120000000 1.0
C      1  0.4490640000000  0.5022930000000  0.4021370000000 1.0
C      1  0.5356780000000  0.4995280000000  0.5576710000000 1.0
C      1  0.4178400000000  0.5457400000000  0.5673630000000 1.0
C      1  0.5601100000000  0.4181920000000  0.5519300000000 1.0
C      1  0.4901360000000  0.4773350000000  0.5496770000000 1.0
C      1  0.5530390000000  0.5726190000000  0.4479760000000 1.0
C      1  0.5275000000000  0.5845850000000  0.5764920000000 1.0
C      1  0.4866360000000  0.3909750000000  0.5007690000000 1.0
C      1  0.4515790000000  0.5819390000000  0.5694510000000 1.0
C      1  0.5613730000000  0.4653790000000  0.4656890000000 1.0
C      1  0.5186290000000  0.4771140000000  0.4890820000000 1.0
C      1  0.5804180000000  0.4585920000000  0.4851370000000 1.0
C      1  0.5823750000000  0.5344160000000  0.4421380000000 1.0
C      1  0.5394020000000  0.5277020000000  0.3958040000000 1.0
C      1  0.4862330000000  0.6053390000000  0.4639790000000 1.0
C      1  0.5016580000000  0.5527910000000  0.5907320000000 1.0
C      1  0.5962770000000  0.4846260000000  0.4474050000000 1.0
C      1  0.4497200000000  0.5901080000000  0.5440810000000 1.0
C      1  0.5309610000000  0.4627550000000  0.4241680000000 1.0
C      1  0.4825900000000  0.4756510000000  0.5090010000000 1.0
C      1  0.4959770000000  0.5095030000000  0.6123230000000 1.0
C      1  0.5177980000000  0.5293860000000  0.4744470000000 1.0
C      1  0.4924120000000  0.4367160000000  0.4795460000000 1.0
C      1  0.5611820000000  0.4777650000000  0.5858720000000 1.0
C      1  0.4568680000000  0.5319990000000  0.5952700000000 1.0
C      1  0.4520620000000  0.5268050000000  0.5361230000000 1.0
C      1  0.5557980000000  0.5160590000000  0.4791340000000 1.0
C      1  0.4119550000000  0.4410340000000  0.5049890000000 1.0
C      1  0.5350340000000  0.4557930000000  0.4730290000000 1.0
C      1  0.4968370000000  0.5306680000000  0.4149970000000 1.0
C      1  0.5392600000000  0.4352040000000  0.4940610000000 1.0
C      1  0.5353990000000  0.4611400000000  0.5352120000000 1.0
C      1  0.6059260000000  0.4719820000000  0.4704870000000 1.0
C      1  0.5305440000000  0.3952030000000  0.5111050000000 1.0
C      1  0.5188160000000  0.5717800000000  0.4168400000000 1.0
C      1  0.5279410000000  0.5859720000000  0.4420300000000 1.0
C      1  0.5068320000000  0.6020950000000  0.5654780000000 1.0
C      1  0.4662330000000  0.4807460000000  0.4041350000000 1.0
C      1  0.5717440000000  0.4269110000000  0.4865450000000 1.0
C      1  0.5150620000000  0.4645420000000  0.5559830000000 1.0
C      1  0.4912270000000  0.5702620000000  0.4047060000000 1.0
C      1  0.5312360000000  0.5578980000000  0.5912360000000 1.0
C      1  0.4151610000000  0.5700170000000  0.4697030000000 1.0
C      1  0.3984320000000  0.4608980000000  0.4869880000000 1.0
C      1  0.4875410000000  0.5910540000000  0.4387500000000 1.0
C      1  0.4470900000000  0.4849120000000  0.5225320000000 1.0
C      1  0.5656850000000  0.4232250000000  0.4569680000000 1.0
C      1  0.5785970000000  0.4771810000000  0.5626000000000 1.0
C      1  0.4210850000000  0.5298080000000  0.5411160000000 1.0
C      1  0.4739750000000  0.4380780000000  0.5216710000000 1.0
C      1  0.4703500000000  0.4082230000000  0.5500820000000 1.0
C      1  0.4611220000000  0.5083230000000  0.5163470000000 1.0
C      1  0.4220570000000  0.4606860000000  0.5800760000000 1.0
C      1  0.6050550000000  0.5121820000000  0.4959330000000 1.0
C      1  0.5642750000000  0.5494290000000  0.5663960000000 1.0
C      1  0.5789520000000  0.5442240000000  0.5122830000000 1.0
C      1  0.3901020000000  0.4184000000000  0.4464840000000 1.0
C      1  0.5426760000000  0.4548490000000  0.5884710000000 1.0
C      1  0.4751510000000  0.4879460000000  0.6078930000000 1.0
C      1  0.4948660000000  0.3914670000000  0.4729880000000 1.0
C      1  0.4577980000000  0.6060160000000  0.5060720000000 1.0
C      1  0.4111480000000  0.4496270000000  0.5333030000000 1.0
C      1  0.4878020000000  0.5669820000000  0.4827860000000 1.0
C      1  0.5160510000000  0.5103590000000  0.4105370000000 1.0
C      1  0.4937900000000  0.5669690000000  0.4538980000000 1.0
C      1  0.4814940000000  0.5197190000000  0.4554690000000 1.0
C      1  0.6210160000000  0.4417710000000  0.5197500000000 1.0
C      1  0.5092560000000  0.4504530000000  0.4615000000000 1.0
C      1  0.4231590000000  0.4973030000000  0.5186070000000 1.0
C      1  0.5210170000000  0.4927300000000  0.5848120000000 1.0
C      1  0.4600990000000  0.5289170000000  0.4733340000000 1.0
C      1  0.5770010000000  0.4150280000000  0.5134670000000 1.0
C      1  0.4623550000000  0.5542110000000  0.4865020000000 1.0
C      1  0.5229090000000  0.5438620000000  0.5398380000000 1.0
C      1  0.4828020000000  0.5367470000000  0.6072770000000 1.0
C      1  0.4576280000000  0.4306560000000  0.5650650000000 1.0
C      1  0.5728910000000  0.4496390000000  0.4438530000000 1.0
C      1  0.5483510000000  0.5577940000000  0.5424610000000 1.0
C      1  0.5337950000000  0.6011580000000  0.4906580000000 1.0
C      1  0.5632160000000  0.4984720000000  0.5473980000000 1.0
C      1  0.4987250000000  0.5093280000000  0.5831970000000 1.0
C      1  0.6128260000000  0.4664980000000  0.5203130000000 1.0
C      1  0.4242890000000  0.4759360000000  0.4436650000000 1.0
C      1  0.5284670000000  0.5504240000000  0.4907530000000 1.0
C      1  0.4370870000000  0.5134450000000  0.4759930000000 1.0
C      1  0.5877700000000  0.5063850000000  0.4323450000000 1.0
C      1  0.4908280000000  0.5056870000000  0.5557510000000 1.0
C      1  0.5398480000000  0.4126800000000  0.4503820000000 1.0
C      1  0.5510020000000  0.4833790000000  0.5225170000000 1.0
C      1  0.5242410000000  0.4946390000000  0.5097610000000 1.0
C      1  0.4833820000000  0.4592390000000  0.4061290000000 1.0
C      1  0.3871270000000  0.5274290000000  0.4717990000000 1.0
C      1  0.4591640000000  0.4169510000000  0.4394420000000 1.0
C      1  0.5182370000000  0.4658940000000  0.5991770000000 1.0
C      1  0.5157640000000  0.5985170000000  0.4661870000000 1.0
C      1  0.5531430000000  0.5370110000000  0.4971500000000 1.0
C      1  0.4106910000000  0.5379740000000  0.4303950000000 1.0
C      1  0.4533110000000  0.5023050000000  0.5953740000000 1.0
C      1  0.4909660000000  0.4716340000000  0.4604770000000 1.0
C      1  0.5895270000000  0.5502560000000  0.4656870000000 1.0
C      1  0.5851480000000  0.5227520000000  0.5377630000000 1.0
C      1  0.4851230000000  0.5013400000000  0.5033540000000 1.0
C      1  0.4600260000000  0.5988180000000  0.4753380000000 1.0
C      1  0.4956730000000  0.4498610000000  0.5061550000000 1.0
C      1  0.4099810000000  0.4342080000000  0.4491680000000 1.0
C      1  0.3857270000000  0.4810550000000  0.5025180000000 1.0
C      1  0.4686730000000  0.4557050000000  0.5453160000000 1.0
C      1  0.4155030000000  0.5157100000000  0.4978320000000 1.0
C      1  0.5707010000000  0.4900490000000  0.4135260000000 1.0
C      1  0.5604400000000  0.4636410000000  0.4209880000000 1.0
C      1  0.5709590000000  0.4778090000000  0.5027570000000 1.0
C      1  0.4419040000000  0.5542570000000  0.5810700000000 1.0
C      1  0.5373210000000  0.5179600000000  0.4548560000000 1.0
C      1  0.4980160000000  0.5563970000000  0.5321130000000 1.0
C      1  0.6001900000000  0.5403090000000  0.4905520000000 1.0
C      1  0.5033710000000  0.4404500000000  0.5702440000000 1.0
C      1  0.3936480000000  0.4747280000000  0.5314160000000 1.0
C      1  0.5131260000000  0.4657950000000  0.4011360000000 1.0
C      1  0.6158470000000  0.4850300000000  0.4946360000000 1.0
C      1  0.4429960000000  0.4140910000000  0.5115010000000 1.0
C      1  0.4059990000000  0.4987630000000  0.5415620000000 1.0
C      1  0.5790030000000  0.5010730000000  0.4876970000000 1.0
C      1  0.4757210000000  0.4324350000000  0.4193560000000 1.0
C      1  0.5545360000000  0.5436020000000  0.4370510000000 1.0
C      1  0.5242580000000  0.3964920000000  0.4701610000000 1.0
C      1  0.5161520000000  0.4144840000000  0.5683200000000 1.0
C      1  0.3983780000000  0.5485370000000  0.4562600000000 1.0
C      1  0.4253850000000  0.4882630000000  0.4153060000000 1.0
C      1  0.4690320000000  0.5850880000000  0.4172150000000 1.0
C      1  0.5044790000000  0.3887660000000  0.5231640000000 1.0
C      1  0.5216520000000  0.4138840000000  0.4910440000000 1.0
C      1  0.4407860000000  0.4265160000000  0.4622250000000 1.0
C      1  0.5420990000000  0.4280090000000  0.5725460000000 1.0
C      1  0.5513870000000  0.5361070000000  0.5886160000000 1.0
C      1  0.5235030000000  0.4960010000000  0.4371960000000 1.0
C      1  0.5247110000000  0.4894780000000  0.3894800000000 1.0
C      1  0.5518120000000  0.5014220000000  0.3934630000000 1.0
C      1  0.5089750000000  0.5154250000000  0.4974360000000 1.0
END
