TITL C-883729-9652-262 10.8504794370868 125000 -19278.5178806153 0 0 129 (C1) n - 1
REM
REM in /home/nfs/bkarasulu/CARBON/AIRSS/Generating-Clusters/ReaxFF-fromJPCA2015/Units_Real/with-SteepDescent/Only-C1/SD-CG/Try1-3A/FIRE-CG
REM
REM
REM
REM
REM
REM ./C.cell (11c1c37f851c82e70ff6c80c92926a4b)
REM
REM compiler GCC version 9.2.1 20190827 (Red Hat 9.2.1-1)
REM options -cpp -mtune=generic -march=x86-64 -g -O0 -fpre-include=/usr/include/finclude/math-vector-fortran.h
REM seed -368056114 -1512582123 -1154311351 -460459355 468562867 -1394382194 -296046933 -1324050090 -1646464593 487990312 -1355505313 -537772060 -943344652 1831878890 -365331853 -150380957 -570693491 1731220051 290906497 -1321210533 -330918850 -1964291044 -903624550 1827053589 -1716366138 807807762 366832009 1482258120 -1112449223 -569922102 787596510 -1840164321 983568926
REM
CELL 1.54180   50.00000   50.00000   50.00000   90.00000   90.00000   90.00000
LATT -1
SFAC C  
C      1  0.5685860000000  0.5519780000000  0.4756980000000 1.0
C      1  0.4677480000000  0.5018280000000  0.4974880000000 1.0
C      1  0.4240220000000  0.4943400000000  0.4670720000000 1.0
C      1  0.5571350000000  0.4753450000000  0.5714730000000 1.0
C      1  0.4591580000000  0.5675110000000  0.5509860000000 1.0
C      1  0.4512640000000  0.4627990000000  0.4827390000000 1.0
C      1  0.4314600000000  0.5666930000000  0.4932660000000 1.0
C      1  0.4703810000000  0.4991570000000  0.4506110000000 1.0
C      1  0.5822350000000  0.4917340000000  0.4978800000000 1.0
C      1  0.5259520000000  0.4946510000000  0.4099560000000 1.0
C      1  0.5252470000000  0.4191330000000  0.5540040000000 1.0
C      1  0.5070870000000  0.5922920000000  0.5466240000000 1.0
C      1  0.5470760000000  0.5232440000000  0.4424330000000 1.0
C      1  0.4845910000000  0.4879630000000  0.5940420000000 1.0
C      1  0.5317400000000  0.5440810000000  0.5338510000000 1.0
C      1  0.4938130000000  0.4094200000000  0.5161520000000 1.0
C      1  0.5507790000000  0.4509170000000  0.4459310000000 1.0
C      1  0.5544580000000  0.4261690000000  0.5591520000000 1.0
C      1  0.4431050000000  0.4165740000000  0.5258580000000 1.0
C      1  0.4671300000000  0.4999600000000  0.4206420000000 1.0
C      1  0.4226970000000  0.4837430000000  0.4396490000000 1.0
C      1  0.4087940000000  0.4741260000000  0.5312970000000 1.0
C      1  0.4983840000000  0.4987670000000  0.4867920000000 1.0
C      1  0.5183280000000  0.5625490000000  0.4567090000000 1.0
C      1  0.4818480000000  0.5828650000000  0.4339790000000 1.0
C      1  0.5205420000000  0.4138980000000  0.5260840000000 1.0
C      1  0.4461290000000  0.4751370000000  0.5716450000000 1.0
C      1  0.4947800000000  0.5929830000000  0.5219230000000 1.0
C      1  0.5638250000000  0.5980500000000  0.4861650000000 1.0
C      1  0.5027000000000  0.5024050000000  0.5710260000000 1.0
C      1  0.5654780000000  0.5117040000000  0.5122180000000 1.0
C      1  0.5735330000000  0.5711320000000  0.5418340000000 1.0
C      1  0.4806840000000  0.5461190000000  0.5101160000000 1.0
C      1  0.5269800000000  0.4324220000000  0.4441710000000 1.0
C      1  0.4990650000000  0.5120300000000  0.4587540000000 1.0
C      1  0.5153050000000  0.4450650000000  0.5908460000000 1.0
C      1  0.4605950000000  0.5902760000000  0.4536080000000 1.0
C      1  0.5562090000000  0.4889580000000  0.4100640000000 1.0
C      1  0.4578320000000  0.4982550000000  0.5895260000000 1.0
C      1  0.5090950000000  0.5878190000000  0.4708610000000 1.0
C      1  0.5514510000000  0.5065140000000  0.5691040000000 1.0
C      1  0.4979840000000  0.4409500000000  0.4406750000000 1.0
C      1  0.5297630000000  0.4133560000000  0.4646940000000 1.0
C      1  0.5441940000000  0.4602500000000  0.5133430000000 1.0
C      1  0.5271100000000  0.5170560000000  0.5823850000000 1.0
C      1  0.5421160000000  0.5887910000000  0.5043420000000 1.0
C      1  0.5693510000000  0.4344510000000  0.4672330000000 1.0
C      1  0.4710550000000  0.4247670000000  0.4491440000000 1.0
C      1  0.4361010000000  0.5366570000000  0.4381800000000 1.0
C      1  0.5576020000000  0.5713020000000  0.5640250000000 1.0
C      1  0.5197580000000  0.5892080000000  0.5691810000000 1.0
C      1  0.5023440000000  0.4657380000000  0.4901340000000 1.0
C      1  0.5370980000000  0.5713520000000  0.5839090000000 1.0
C      1  0.4628980000000  0.4716830000000  0.4142430000000 1.0
C      1  0.5043470000000  0.4343320000000  0.5661670000000 1.0
C      1  0.4042540000000  0.4577040000000  0.4866290000000 1.0
C      1  0.5848430000000  0.4895000000000  0.4405840000000 1.0
C      1  0.4596970000000  0.5261260000000  0.5799910000000 1.0
C      1  0.5210510000000  0.5453080000000  0.5883690000000 1.0
C      1  0.4053380000000  0.4985140000000  0.5138870000000 1.0
C      1  0.4303040000000  0.4418450000000  0.4796250000000 1.0
C      1  0.5704120000000  0.5405440000000  0.5049800000000 1.0
C      1  0.4672890000000  0.5218960000000  0.5160800000000 1.0
C      1  0.5099740000000  0.5370540000000  0.5158890000000 1.0
C      1  0.5507130000000  0.5644170000000  0.5217260000000 1.0
C      1  0.5147010000000  0.4782140000000  0.5534750000000 1.0
C      1  0.5181010000000  0.5169490000000  0.4294970000000 1.0
C      1  0.4790630000000  0.4023220000000  0.4648980000000 1.0
C      1  0.5515600000000  0.4189080000000  0.4836710000000 1.0
C      1  0.5141140000000  0.5934030000000  0.4983610000000 1.0
C      1  0.4476150000000  0.5372970000000  0.4660500000000 1.0
C      1  0.4923390000000  0.4578830000000  0.4640980000000 1.0
C      1  0.4073040000000  0.4494700000000  0.5137580000000 1.0
C      1  0.4934180000000  0.4617650000000  0.5960180000000 1.0
C      1  0.5702520000000  0.5095880000000  0.4250320000000 1.0
C      1  0.4412140000000  0.4609850000000  0.4313500000000 1.0
C      1  0.4875780000000  0.5984910000000  0.4567010000000 1.0
C      1  0.5685080000000  0.4687610000000  0.4272110000000 1.0
C      1  0.4891480000000  0.4577690000000  0.4140490000000 1.0
C      1  0.5393850000000  0.5018640000000  0.5155430000000 1.0
C      1  0.5299570000000  0.4629890000000  0.4891740000000 1.0
C      1  0.4852020000000  0.4592740000000  0.5170030000000 1.0
C      1  0.4696090000000  0.4107950000000  0.5315970000000 1.0
C      1  0.5471510000000  0.5492710000000  0.4570130000000 1.0
C      1  0.5065830000000  0.3964700000000  0.4695920000000 1.0
C      1  0.4682530000000  0.4711620000000  0.4608790000000 1.0
C      1  0.4753330000000  0.5718440000000  0.5272140000000 1.0
C      1  0.4586490000000  0.5150610000000  0.5406150000000 1.0
C      1  0.4332490000000  0.5567290000000  0.5423530000000 1.0
C      1  0.5791640000000  0.4512050000000  0.4864830000000 1.0
C      1  0.4901320000000  0.3968350000000  0.4910020000000 1.0
C      1  0.5454210000000  0.4254070000000  0.5133340000000 1.0
C      1  0.4620110000000  0.4727760000000  0.5078220000000 1.0
C      1  0.5478210000000  0.5242400000000  0.5477920000000 1.0
C      1  0.4217820000000  0.5114840000000  0.4290520000000 1.0
C      1  0.4903430000000  0.4561440000000  0.5463480000000 1.0
C      1  0.4519310000000  0.5453460000000  0.4141950000000 1.0
C      1  0.4968360000000  0.5400900000000  0.4665770000000 1.0
C      1  0.4315760000000  0.5275720000000  0.5451140000000 1.0
C      1  0.5025710000000  0.5634590000000  0.4303570000000 1.0
C      1  0.5757140000000  0.4655380000000  0.5096230000000 1.0
C      1  0.4793020000000  0.5176880000000  0.5601520000000 1.0
C      1  0.5008430000000  0.5380230000000  0.4175860000000 1.0
C      1  0.5912570000000  0.5551490000000  0.5220170000000 1.0
C      1  0.5303250000000  0.4682580000000  0.5781690000000 1.0
C      1  0.4746230000000  0.5262270000000  0.4093630000000 1.0
C      1  0.5396880000000  0.4739850000000  0.4643600000000 1.0
C      1  0.4268910000000  0.4293190000000  0.5067400000000 1.0
C      1  0.6052360000000  0.5709220000000  0.5013470000000 1.0
C      1  0.5668310000000  0.4330480000000  0.5345220000000 1.0
C      1  0.5841920000000  0.5767790000000  0.4798410000000 1.0
C      1  0.5078280000000  0.4756190000000  0.4115020000000 1.0
C      1  0.4484660000000  0.5094380000000  0.4728030000000 1.0
C      1  0.4622630000000  0.4535910000000  0.5588210000000 1.0
C      1  0.5503400000000  0.5005460000000  0.4648130000000 1.0
C      1  0.5686990000000  0.4520560000000  0.5580670000000 1.0
C      1  0.5340310000000  0.4800950000000  0.5309890000000 1.0
C      1  0.4701660000000  0.5551070000000  0.5764820000000 1.0
C      1  0.4043400000000  0.4870800000000  0.4869910000000 1.0
C      1  0.5789130000000  0.4974010000000  0.4689380000000 1.0
C      1  0.4544850000000  0.4273800000000  0.5494190000000 1.0
C      1  0.4973000000000  0.5583150000000  0.5822950000000 1.0
C      1  0.4270590000000  0.4754030000000  0.5523960000000 1.0
C      1  0.4458490000000  0.4384040000000  0.4494180000000 1.0
C      1  0.4196020000000  0.5546010000000  0.5155240000000 1.0
C      1  0.4426530000000  0.5781070000000  0.4722550000000 1.0
C      1  0.4719730000000  0.5485770000000  0.4775360000000 1.0
C      1  0.4136160000000  0.5248440000000  0.5223660000000 1.0
C      1  0.5168260000000  0.5132730000000  0.5047970000000 1.0
END
