TITL C-883740-3686-54 -1760522.56978474 125000 -12519.6183841587 0 0 85 (C1) n - 1
REM
REM in /home/nfs/bkarasulu/CARBON/AIRSS/Generating-Clusters/ReaxFF-fromJPCA2015/Units_Real/with-SteepDescent/Only-C1/SD-CG/Try1-3A/FIRE-CG
REM
REM
REM
REM
REM
REM ./C.cell (11c1c37f851c82e70ff6c80c92926a4b)
REM
REM compiler GCC version 9.2.1 20190827 (Red Hat 9.2.1-1)
REM options -cpp -mtune=generic -march=x86-64 -g -O0 -fpre-include=/usr/include/finclude/math-vector-fortran.h
REM seed 2114834916 -1095020924 -40154355 132519336 -689389287 -1964092339 152328533 -1023265355 -1455207128 -122090288 -1344822051 635486987 -2042316215 -654727916 1875512646 -1420242074 -1303974491 1475022409 -314406241 -431878401 -1934697214 -1146116566 -828793571 -1014877499 799571513 1401205142 1928689247 1142184650 -508621787 2046253482 1726161435 -165391302 1211286576
REM
CELL 1.54180   50.00000   50.00000   50.00000   90.00000   90.00000   90.00000
LATT -1
SFAC C  
C      1  0.5785630000000  0.4913080000000  0.4591160000000 1.0
C      1  0.4892820000000  0.4774970000000  0.5318860000000 1.0
C      1  0.4802550000000  0.5321520000000  0.5082130000000 1.0
C      1  0.5302890000000  0.5041420000000  0.5376160000000 1.0
C      1  0.5214470000000  0.5019640000000  0.4204380000000 1.0
C      1  0.4610000000000  0.5567570000000  0.5410430000000 1.0
C      1  0.4480710000000  0.5321240000000  0.4485020000000 1.0
C      1  0.5208630000000  0.4801120000000  0.4944240000000 1.0
C      1  0.4507980000000  0.4433890000000  0.5071550000000 1.0
C      1  0.5707990000000  0.5445240000000  0.5314090000000 1.0
C      1  0.5375230000000  0.5031190000000  0.5092070000000 1.0
C      1  0.4636930000000  0.4964170000000  0.5709700000000 1.0
C      1  0.5799600000000  0.4928630000000  0.5295630000000 1.0
C      1  0.5008430000000  0.5243240000000  0.4908460000000 1.0
C      1  0.5752180000000  0.5197720000000  0.4609240000000 1.0
C      1  0.4449780000000  0.5162180000000  0.4750330000000 1.0
C      1  0.5347850000000  0.4403370000000  0.5478830000000 1.0
C      1  0.4395160000000  0.4687180000000  0.5154860000000 1.0
C      1  0.5729660000000  0.4689890000000  0.4622100000000 1.0
C      1  0.5647430000000  0.4696100000000  0.5414560000000 1.0
C      1  0.4370920000000  0.5138990000000  0.4279910000000 1.0
C      1  0.4569960000000  0.4410260000000  0.4429770000000 1.0
C      1  0.4899340000000  0.4307330000000  0.5403360000000 1.0
C      1  0.5317940000000  0.5362640000000  0.5639820000000 1.0
C      1  0.5244010000000  0.4734390000000  0.5715330000000 1.0
C      1  0.4242830000000  0.5128170000000  0.4959830000000 1.0
C      1  0.4416550000000  0.5358640000000  0.5474160000000 1.0
C      1  0.5513800000000  0.4534710000000  0.4730900000000 1.0
C      1  0.5508670000000  0.5116820000000  0.5593480000000 1.0
C      1  0.4535890000000  0.5772130000000  0.4907740000000 1.0
C      1  0.5483610000000  0.5282350000000  0.4538530000000 1.0
C      1  0.5182440000000  0.4252250000000  0.4935110000000 1.0
C      1  0.5092330000000  0.5591480000000  0.4595630000000 1.0
C      1  0.4822550000000  0.5662470000000  0.4627420000000 1.0
C      1  0.5255420000000  0.5521900000000  0.5232860000000 1.0
C      1  0.5049400000000  0.4404230000000  0.4435820000000 1.0
C      1  0.4805640000000  0.5441430000000  0.5756590000000 1.0
C      1  0.5502970000000  0.5670310000000  0.4885350000000 1.0
C      1  0.5062320000000  0.4226440000000  0.4664810000000 1.0
C      1  0.4596170000000  0.4844190000000  0.5312950000000 1.0
C      1  0.4703380000000  0.5590590000000  0.4903650000000 1.0
C      1  0.4812430000000  0.4252540000000  0.4494240000000 1.0
C      1  0.4590720000000  0.5102240000000  0.5168430000000 1.0
C      1  0.4860220000000  0.5424010000000  0.5349840000000 1.0
C      1  0.5362910000000  0.5539730000000  0.4632140000000 1.0
C      1  0.4871590000000  0.5235300000000  0.4408950000000 1.0
C      1  0.5765860000000  0.5186160000000  0.5431510000000 1.0
C      1  0.4963460000000  0.4692160000000  0.4417810000000 1.0
C      1  0.4583010000000  0.5246760000000  0.5691530000000 1.0
C      1  0.4954470000000  0.4224130000000  0.5138600000000 1.0
C      1  0.4862460000000  0.4447650000000  0.5643730000000 1.0
C      1  0.5165940000000  0.4447330000000  0.5695140000000 1.0
C      1  0.5343180000000  0.5872140000000  0.5028840000000 1.0
C      1  0.4800090000000  0.4439540000000  0.5008700000000 1.0
C      1  0.5794590000000  0.5258370000000  0.4898560000000 1.0
C      1  0.4321970000000  0.4844000000000  0.4295550000000 1.0
C      1  0.4219390000000  0.4827560000000  0.4964360000000 1.0
C      1  0.5517370000000  0.4457700000000  0.5263950000000 1.0
C      1  0.4711120000000  0.4701730000000  0.5692430000000 1.0
C      1  0.4584530000000  0.4907220000000  0.4710520000000 1.0
C      1  0.4967250000000  0.4689320000000  0.5051160000000 1.0
C      1  0.4550340000000  0.4649860000000  0.4256750000000 1.0
C      1  0.4328380000000  0.5201010000000  0.5240160000000 1.0
C      1  0.5696190000000  0.5029140000000  0.5047470000000 1.0
C      1  0.5100820000000  0.4887010000000  0.5496390000000 1.0
C      1  0.4322990000000  0.4697890000000  0.4739300000000 1.0
C      1  0.4757300000000  0.5713000000000  0.5623470000000 1.0
C      1  0.5457650000000  0.5526790000000  0.5451070000000 1.0
C      1  0.5707310000000  0.5505790000000  0.5025130000000 1.0
C      1  0.5117610000000  0.5786090000000  0.5224450000000 1.0
C      1  0.4852950000000  0.4856250000000  0.4639650000000 1.0
C      1  0.5310940000000  0.5040300000000  0.4493280000000 1.0
C      1  0.4959240000000  0.5862020000000  0.5462760000000 1.0
C      1  0.4804260000000  0.4768160000000  0.4184150000000 1.0
C      1  0.5030470000000  0.5358360000000  0.5587570000000 1.0
C      1  0.4210870000000  0.4793230000000  0.4552910000000 1.0
C      1  0.4361670000000  0.4245680000000  0.4876520000000 1.0
C      1  0.4350370000000  0.4400280000000  0.4627020000000 1.0
C      1  0.5515830000000  0.4805620000000  0.5646400000000 1.0
C      1  0.5435420000000  0.4387480000000  0.4981170000000 1.0
C      1  0.5005570000000  0.5124340000000  0.4641330000000 1.0
C      1  0.4920970000000  0.5048370000000  0.4181580000000 1.0
C      1  0.5336490000000  0.4762160000000  0.4689570000000 1.0
C      1  0.5242450000000  0.5291680000000  0.5057850000000 1.0
C      1  0.4739280000000  0.5468810000000  0.4431250000000 1.0
END
