TITL C-884127-5181-127 -4.63441538527517 125000 -15513.0619652773 0 0 103 (C1) n - 1
REM
REM in /home/nfs/bkarasulu/CARBON/AIRSS/Generating-Clusters/ReaxFF-fromJPCA2015/Units_Real/with-SteepDescent/Only-C1/SD-CG/Try1-3A/FIRE-CG
REM
REM
REM
REM
REM
REM ./C.cell (11c1c37f851c82e70ff6c80c92926a4b)
REM
REM compiler GCC version 9.2.1 20190827 (Red Hat 9.2.1-1)
REM options -cpp -mtune=generic -march=x86-64 -g -O0 -fpre-include=/usr/include/finclude/math-vector-fortran.h
REM seed 943976007 -1686588691 495430974 -707162288 1544607373 416648179 2000650445 98554111 -1775156007 1902456859 1703420103 911886636 1843926780 1113967658 1310187665 -1173610169 1367921680 2142465866 -1508794598 -1522800821 -2050767980 1206669035 -337299982 -1217246171 866187716 1589369461 -1746565733 1830435938 -947863129 -1927024309 319280225 524036609 96021928
REM
CELL 1.54180   50.00000   50.00000   50.00000   90.00000   90.00000   90.00000
LATT -1
SFAC C  
C      1  0.5184390000000  0.5790520000000  0.5235380000000 1.0
C      1  0.4495450000000  0.5726980000000  0.4902010000000 1.0
C      1  0.4166480000000  0.5340940000000  0.5131690000000 1.0
C      1  0.4806350000000  0.4592020000000  0.4217380000000 1.0
C      1  0.5219530000000  0.5101860000000  0.4029940000000 1.0
C      1  0.4846800000000  0.5319620000000  0.5742660000000 1.0
C      1  0.4284590000000  0.5364940000000  0.5399260000000 1.0
C      1  0.5694350000000  0.4907650000000  0.5680930000000 1.0
C      1  0.4907280000000  0.4706630000000  0.5062080000000 1.0
C      1  0.5431490000000  0.5283140000000  0.5721200000000 1.0
C      1  0.5642020000000  0.5506130000000  0.4876750000000 1.0
C      1  0.4935590000000  0.4797480000000  0.4052820000000 1.0
C      1  0.5318300000000  0.4833710000000  0.5322060000000 1.0
C      1  0.5233910000000  0.4238580000000  0.4900370000000 1.0
C      1  0.4940540000000  0.4359560000000  0.5610580000000 1.0
C      1  0.5379750000000  0.4716660000000  0.4474660000000 1.0
C      1  0.5407490000000  0.5604610000000  0.4673340000000 1.0
C      1  0.4545610000000  0.5686670000000  0.4388810000000 1.0
C      1  0.5606330000000  0.4547840000000  0.5071290000000 1.0
C      1  0.4437180000000  0.4463190000000  0.4823150000000 1.0
C      1  0.5514930000000  0.4959510000000  0.4603770000000 1.0
C      1  0.5066490000000  0.4212010000000  0.5131280000000 1.0
C      1  0.5271650000000  0.5074100000000  0.5856360000000 1.0
C      1  0.5415790000000  0.4996080000000  0.4871860000000 1.0
C      1  0.5357510000000  0.4667270000000  0.4207920000000 1.0
C      1  0.4840550000000  0.5285010000000  0.5451860000000 1.0
C      1  0.5016260000000  0.5649860000000  0.4519630000000 1.0
C      1  0.4801380000000  0.4841700000000  0.5861480000000 1.0
C      1  0.4381060000000  0.4873560000000  0.5627000000000 1.0
C      1  0.4772910000000  0.4609310000000  0.5685350000000 1.0
C      1  0.5525200000000  0.4459910000000  0.4508540000000 1.0
C      1  0.4746960000000  0.5152070000000  0.4510210000000 1.0
C      1  0.4953250000000  0.5743220000000  0.5414860000000 1.0
C      1  0.4572300000000  0.4206680000000  0.5276530000000 1.0
C      1  0.5011480000000  0.5825600000000  0.5002910000000 1.0
C      1  0.4390310000000  0.5462300000000  0.4983660000000 1.0
C      1  0.5629360000000  0.5466320000000  0.5172660000000 1.0
C      1  0.4296730000000  0.4565230000000  0.5068040000000 1.0
C      1  0.4109050000000  0.5097310000000  0.4683070000000 1.0
C      1  0.5786400000000  0.4761640000000  0.5447850000000 1.0
C      1  0.4432240000000  0.4646200000000  0.4598460000000 1.0
C      1  0.4504170000000  0.5161990000000  0.4636930000000 1.0
C      1  0.4524720000000  0.5026980000000  0.5171120000000 1.0
C      1  0.4715990000000  0.5811620000000  0.5069610000000 1.0
C      1  0.4976060000000  0.5077760000000  0.5860150000000 1.0
C      1  0.5935900000000  0.5060090000000  0.4761900000000 1.0
C      1  0.4533920000000  0.5213990000000  0.4953920000000 1.0
C      1  0.5322720000000  0.4262280000000  0.4631730000000 1.0
C      1  0.5314810000000  0.4682240000000  0.5570310000000 1.0
C      1  0.5393250000000  0.5487650000000  0.4428570000000 1.0
C      1  0.5860270000000  0.4974660000000  0.5255220000000 1.0
C      1  0.5236690000000  0.4803880000000  0.3996590000000 1.0
C      1  0.5079410000000  0.4185550000000  0.4473590000000 1.0
C      1  0.5307080000000  0.5352570000000  0.5468250000000 1.0
C      1  0.4415070000000  0.4456580000000  0.5320590000000 1.0
C      1  0.4660140000000  0.4272040000000  0.4807600000000 1.0
C      1  0.4574750000000  0.5454020000000  0.5758740000000 1.0
C      1  0.5939670000000  0.4878230000000  0.4993220000000 1.0
C      1  0.4295090000000  0.4899540000000  0.4586980000000 1.0
C      1  0.5418240000000  0.5313290000000  0.4175080000000 1.0
C      1  0.5209470000000  0.5097940000000  0.5348600000000 1.0
C      1  0.5141300000000  0.5750200000000  0.4739470000000 1.0
C      1  0.4878870000000  0.4311710000000  0.4294010000000 1.0
C      1  0.4363920000000  0.5077610000000  0.5409010000000 1.0
C      1  0.4467440000000  0.5214510000000  0.5857930000000 1.0
C      1  0.4755100000000  0.4846440000000  0.5242000000000 1.0
C      1  0.5757620000000  0.5242710000000  0.5330740000000 1.0
C      1  0.5392550000000  0.5580450000000  0.5301430000000 1.0
C      1  0.4269320000000  0.5311090000000  0.4553300000000 1.0
C      1  0.4941010000000  0.5096630000000  0.4086400000000 1.0
C      1  0.5689900000000  0.5194250000000  0.5609970000000 1.0
C      1  0.4083070000000  0.5078650000000  0.4982610000000 1.0
C      1  0.4437530000000  0.5779170000000  0.4628850000000 1.0
C      1  0.4300770000000  0.5581420000000  0.4487700000000 1.0
C      1  0.4801310000000  0.5274370000000  0.4276630000000 1.0
C      1  0.5084150000000  0.4612720000000  0.4884470000000 1.0
C      1  0.4932860000000  0.5066480000000  0.5320870000000 1.0
C      1  0.4168350000000  0.4818840000000  0.5044460000000 1.0
C      1  0.4715260000000  0.4661080000000  0.4487030000000 1.0
C      1  0.4949530000000  0.4746650000000  0.4647250000000 1.0
C      1  0.5366060000000  0.4738040000000  0.5033870000000 1.0
C      1  0.5256270000000  0.5231910000000  0.4913930000000 1.0
C      1  0.5670390000000  0.5349330000000  0.4155780000000 1.0
C      1  0.5405040000000  0.4414650000000  0.5487690000000 1.0
C      1  0.5038530000000  0.5388010000000  0.5027560000000 1.0
C      1  0.4952790000000  0.5472870000000  0.5289180000000 1.0
C      1  0.4931140000000  0.5033620000000  0.4674320000000 1.0
C      1  0.5787920000000  0.5293260000000  0.4815750000000 1.0
C      1  0.4775580000000  0.4191660000000  0.5060530000000 1.0
C      1  0.4502800000000  0.4613940000000  0.5555910000000 1.0
C      1  0.5653410000000  0.4511850000000  0.5353070000000 1.0
C      1  0.4987940000000  0.5134770000000  0.4935200000000 1.0
C      1  0.5151190000000  0.4299480000000  0.5406940000000 1.0
C      1  0.4516160000000  0.4938810000000  0.5884270000000 1.0
C      1  0.4476780000000  0.5569330000000  0.5497030000000 1.0
C      1  0.5792200000000  0.4876140000000  0.4569930000000 1.0
C      1  0.4799630000000  0.4193080000000  0.4552790000000 1.0
C      1  0.5836250000000  0.4612500000000  0.4904200000000 1.0
C      1  0.4813970000000  0.5564740000000  0.4339610000000 1.0
C      1  0.5430730000000  0.4838410000000  0.5791790000000 1.0
C      1  0.4661940000000  0.5749920000000  0.5353460000000 1.0
C      1  0.5768820000000  0.4586610000000  0.4618250000000 1.0
C      1  0.4701980000000  0.4235530000000  0.5526500000000 1.0
END
