TITL C-883734-4173-119 8.71311640869668 125000 -19295.3808964708 0 0 128 (C1) n - 1
REM
REM in /home/nfs/bkarasulu/CARBON/AIRSS/Generating-Clusters/ReaxFF-fromJPCA2015/Units_Real/with-SteepDescent/Only-C1/SD-CG/Try1-3A/FIRE-CG
REM
REM
REM
REM
REM
REM ./C.cell (11c1c37f851c82e70ff6c80c92926a4b)
REM
REM compiler GCC version 9.2.1 20190827 (Red Hat 9.2.1-1)
REM options -cpp -mtune=generic -march=x86-64 -g -O0 -fpre-include=/usr/include/finclude/math-vector-fortran.h
REM seed 1074795250 -496794555 2039642600 -1792001086 -1381475123 -4127564 -629634698 -336777948 -374406022 1679861650 -196538564 1788446154 -1383906199 253803677 -1963881115 635110271 191459863 736520049 534391851 -1145878228 1888126879 -1935913557 211117471 1635693982 -1990824017 -999400760 1416172175 1696766197 663570986 -1224980739 14396392 -1535205704 1269207704
REM
CELL 1.54180   50.00000   50.00000   50.00000   90.00000   90.00000   90.00000
LATT -1
SFAC C  
C      1  0.5557830000000  0.5746240000000  0.5523710000000 1.0
C      1  0.4818670000000  0.5373450000000  0.4596510000000 1.0
C      1  0.5656550000000  0.4905400000000  0.5642630000000 1.0
C      1  0.5371260000000  0.4936390000000  0.4080110000000 1.0
C      1  0.5251120000000  0.4649390000000  0.4896350000000 1.0
C      1  0.5450560000000  0.4305020000000  0.4512200000000 1.0
C      1  0.5165550000000  0.4109340000000  0.4833430000000 1.0
C      1  0.4631190000000  0.4415220000000  0.5590630000000 1.0
C      1  0.4722640000000  0.5847720000000  0.4553380000000 1.0
C      1  0.4649470000000  0.4502810000000  0.4185050000000 1.0
C      1  0.4491310000000  0.4735710000000  0.5193780000000 1.0
C      1  0.5757130000000  0.4354770000000  0.4909260000000 1.0
C      1  0.5688210000000  0.4818110000000  0.4312070000000 1.0
C      1  0.4874510000000  0.4581690000000  0.5732020000000 1.0
C      1  0.4561350000000  0.4737830000000  0.4792910000000 1.0
C      1  0.5751330000000  0.5637450000000  0.5360080000000 1.0
C      1  0.4300720000000  0.5596590000000  0.4784710000000 1.0
C      1  0.4893190000000  0.4572990000000  0.5305280000000 1.0
C      1  0.5167340000000  0.4764290000000  0.4003980000000 1.0
C      1  0.5700780000000  0.4208950000000  0.4662720000000 1.0
C      1  0.5352920000000  0.4429520000000  0.5662100000000 1.0
C      1  0.5951720000000  0.5332590000000  0.4910810000000 1.0
C      1  0.5034650000000  0.5177390000000  0.4617070000000 1.0
C      1  0.4739520000000  0.4333370000000  0.5326730000000 1.0
C      1  0.5621180000000  0.5909040000000  0.4819150000000 1.0
C      1  0.4008590000000  0.4688560000000  0.5123690000000 1.0
C      1  0.4010130000000  0.4984420000000  0.5072890000000 1.0
C      1  0.4153320000000  0.5364350000000  0.5463570000000 1.0
C      1  0.5766550000000  0.5445110000000  0.4700490000000 1.0
C      1  0.4607790000000  0.4165760000000  0.5112650000000 1.0
C      1  0.4806810000000  0.5758040000000  0.5585470000000 1.0
C      1  0.4657980000000  0.4771160000000  0.4067060000000 1.0
C      1  0.4911590000000  0.4914400000000  0.4016240000000 1.0
C      1  0.5386280000000  0.4141800000000  0.5553810000000 1.0
C      1  0.4895750000000  0.4010080000000  0.4771710000000 1.0
C      1  0.5156330000000  0.4600340000000  0.5789870000000 1.0
C      1  0.4840820000000  0.5610070000000  0.4417600000000 1.0
C      1  0.5402280000000  0.4830300000000  0.5791990000000 1.0
C      1  0.4329990000000  0.4761400000000  0.4409780000000 1.0
C      1  0.5934750000000  0.5224600000000  0.5188740000000 1.0
C      1  0.5827640000000  0.5359560000000  0.5413850000000 1.0
C      1  0.5018200000000  0.3890550000000  0.5149860000000 1.0
C      1  0.5141680000000  0.5327640000000  0.4218210000000 1.0
C      1  0.4112470000000  0.5052990000000  0.4806970000000 1.0
C      1  0.4330450000000  0.5281700000000  0.4816480000000 1.0
C      1  0.5334990000000  0.5247200000000  0.5041790000000 1.0
C      1  0.5675290000000  0.5125800000000  0.4283250000000 1.0
C      1  0.4139020000000  0.4828950000000  0.4632030000000 1.0
C      1  0.5023680000000  0.5616200000000  0.5722120000000 1.0
C      1  0.4446860000000  0.4288130000000  0.4904510000000 1.0
C      1  0.5013260000000  0.4685520000000  0.5073420000000 1.0
C      1  0.4622730000000  0.5987540000000  0.5233720000000 1.0
C      1  0.5159850000000  0.4472790000000  0.4098410000000 1.0
C      1  0.4625130000000  0.5404650000000  0.5837430000000 1.0
C      1  0.4744620000000  0.6039340000000  0.4983820000000 1.0
C      1  0.4492620000000  0.4285510000000  0.4608170000000 1.0
C      1  0.4940600000000  0.4439590000000  0.4542470000000 1.0
C      1  0.4496290000000  0.5200280000000  0.5051200000000 1.0
C      1  0.5951200000000  0.4862770000000  0.4926640000000 1.0
C      1  0.4911700000000  0.4941780000000  0.5015950000000 1.0
C      1  0.4606980000000  0.5197920000000  0.4184650000000 1.0
C      1  0.5987460000000  0.5091900000000  0.4750970000000 1.0
C      1  0.4874800000000  0.5857770000000  0.5323600000000 1.0
C      1  0.4446190000000  0.4492430000000  0.4398410000000 1.0
C      1  0.4925270000000  0.4936850000000  0.4731340000000 1.0
C      1  0.4108860000000  0.4868030000000  0.5489200000000 1.0
C      1  0.5515050000000  0.5757550000000  0.5248060000000 1.0
C      1  0.5148590000000  0.5806300000000  0.4853810000000 1.0
C      1  0.4480900000000  0.5143060000000  0.5816100000000 1.0
C      1  0.5568560000000  0.4767970000000  0.4586540000000 1.0
C      1  0.5277580000000  0.5667030000000  0.4621450000000 1.0
C      1  0.4554830000000  0.5615920000000  0.5643910000000 1.0
C      1  0.4400710000000  0.4863030000000  0.5434430000000 1.0
C      1  0.4908620000000  0.5392980000000  0.5865640000000 1.0
C      1  0.5812850000000  0.4778000000000  0.5423920000000 1.0
C      1  0.5723890000000  0.4671950000000  0.4854790000000 1.0
C      1  0.4763430000000  0.3929920000000  0.5031830000000 1.0
C      1  0.4469230000000  0.5722680000000  0.4598610000000 1.0
C      1  0.5407870000000  0.4609580000000  0.5434840000000 1.0
C      1  0.5324710000000  0.4887440000000  0.4684050000000 1.0
C      1  0.4032110000000  0.5111220000000  0.5337050000000 1.0
C      1  0.5289720000000  0.5168970000000  0.4764820000000 1.0
C      1  0.4898530000000  0.5974550000000  0.4764480000000 1.0
C      1  0.5573530000000  0.5682490000000  0.4655850000000 1.0
C      1  0.4942000000000  0.5181810000000  0.5236920000000 1.0
C      1  0.4697170000000  0.5318640000000  0.5179720000000 1.0
C      1  0.5224600000000  0.4373070000000  0.4701810000000 1.0
C      1  0.5947070000000  0.4931710000000  0.5206820000000 1.0
C      1  0.5694490000000  0.4292150000000  0.5185050000000 1.0
C      1  0.4835130000000  0.4814630000000  0.5551050000000 1.0
C      1  0.5263320000000  0.3996130000000  0.5091690000000 1.0
C      1  0.5805300000000  0.5221790000000  0.4531190000000 1.0
C      1  0.5426290000000  0.5562450000000  0.5691590000000 1.0
C      1  0.4469890000000  0.5689730000000  0.5000460000000 1.0
C      1  0.4468120000000  0.4931700000000  0.4210890000000 1.0
C      1  0.5047210000000  0.5015300000000  0.5482450000000 1.0
C      1  0.4916020000000  0.4397940000000  0.4239650000000 1.0
C      1  0.4427030000000  0.4568120000000  0.4974610000000 1.0
C      1  0.5415880000000  0.5897290000000  0.5008350000000 1.0
C      1  0.5155200000000  0.5412050000000  0.5215810000000 1.0
C      1  0.4390040000000  0.5800880000000  0.5243360000000 1.0
C      1  0.5729520000000  0.5193590000000  0.5639080000000 1.0
C      1  0.4608680000000  0.4929260000000  0.5016420000000 1.0
C      1  0.5485610000000  0.4103730000000  0.5284580000000 1.0
C      1  0.5401010000000  0.4351070000000  0.4222890000000 1.0
C      1  0.4504000000000  0.5421120000000  0.4333290000000 1.0
C      1  0.4763530000000  0.4190200000000  0.4581010000000 1.0
C      1  0.5131210000000  0.5567560000000  0.4387070000000 1.0
C      1  0.5541310000000  0.5317650000000  0.5812980000000 1.0
C      1  0.4794930000000  0.4704330000000  0.4629120000000 1.0
C      1  0.5493950000000  0.4740990000000  0.5037720000000 1.0
C      1  0.4351260000000  0.4467270000000  0.5522720000000 1.0
C      1  0.5681900000000  0.4527710000000  0.5361700000000 1.0
C      1  0.4902820000000  0.5182230000000  0.4120640000000 1.0
C      1  0.5103920000000  0.5212850000000  0.5715250000000 1.0
C      1  0.5200700000000  0.5453970000000  0.5555660000000 1.0
C      1  0.5405310000000  0.5197680000000  0.4158070000000 1.0
C      1  0.4108790000000  0.4584480000000  0.5408390000000 1.0
C      1  0.4025930000000  0.4625520000000  0.4837000000000 1.0
C      1  0.4579520000000  0.4946640000000  0.5625910000000 1.0
C      1  0.5439700000000  0.5001280000000  0.5162020000000 1.0
C      1  0.4340360000000  0.5609710000000  0.5450080000000 1.0
C      1  0.4989480000000  0.5657000000000  0.5111430000000 1.0
C      1  0.4245830000000  0.5208990000000  0.5671350000000 1.0
C      1  0.4538820000000  0.5302710000000  0.4589350000000 1.0
C      1  0.5297510000000  0.4870100000000  0.5376350000000 1.0
C      1  0.5352650000000  0.5098950000000  0.5874070000000 1.0
C      1  0.4718790000000  0.5542380000000  0.5033500000000 1.0
END
