TITL C-884136-4169-116 20.5561436338944 125000 -17654.7378647515 0 0 120 (C1) n - 1
REM
REM in /home/nfs/bkarasulu/CARBON/AIRSS/Generating-Clusters/ReaxFF-fromJPCA2015/Units_Real/with-SteepDescent/Only-C1/SD-CG/Try1-3A/FIRE-CG
REM
REM
REM
REM
REM
REM ./C.cell (11c1c37f851c82e70ff6c80c92926a4b)
REM
REM compiler GCC version 9.2.1 20190827 (Red Hat 9.2.1-1)
REM options -cpp -mtune=generic -march=x86-64 -g -O0 -fpre-include=/usr/include/finclude/math-vector-fortran.h
REM seed 1863488559 75865035 233337579 1892331978 -392641327 -67680861 319878081 55026042 1572994127 -420831906 -984188128 1026228210 -468099673 548056983 -1758049428 1648730357 -42055121 -15056137 1491910461 1807909349 1507586331 203273440 830826094 -425199169 1049852107 1284084759 -683164687 388956675 157685441 -768161959 -920005373 -1598521801 -1146380878
REM
CELL 1.54180   50.00000   50.00000   50.00000   90.00000   90.00000   90.00000
LATT -1
SFAC C  
C      1  0.4119610000000  0.4791380000000  0.4976210000000 1.0
C      1  0.4933460000000  0.5393550000000  0.4786220000000 1.0
C      1  0.4360650000000  0.4922810000000  0.4613520000000 1.0
C      1  0.4350680000000  0.4976530000000  0.5731850000000 1.0
C      1  0.4552450000000  0.5421790000000  0.5034640000000 1.0
C      1  0.5900190000000  0.4905280000000  0.5175400000000 1.0
C      1  0.4776370000000  0.4228890000000  0.5462820000000 1.0
C      1  0.5128690000000  0.5795830000000  0.4691390000000 1.0
C      1  0.5163830000000  0.4314300000000  0.4486250000000 1.0
C      1  0.4824650000000  0.5512480000000  0.4195100000000 1.0
C      1  0.4845820000000  0.5698060000000  0.4783730000000 1.0
C      1  0.4182920000000  0.5210800000000  0.5291800000000 1.0
C      1  0.4420010000000  0.4337780000000  0.4856460000000 1.0
C      1  0.5520510000000  0.4586620000000  0.5000300000000 1.0
C      1  0.5685450000000  0.4314310000000  0.5414470000000 1.0
C      1  0.4373680000000  0.5041870000000  0.5446300000000 1.0
C      1  0.5417350000000  0.5525700000000  0.4973000000000 1.0
C      1  0.5818060000000  0.4781460000000  0.5628470000000 1.0
C      1  0.4287180000000  0.4662500000000  0.5171810000000 1.0
C      1  0.5107420000000  0.4793190000000  0.3853970000000 1.0
C      1  0.4267070000000  0.5419110000000  0.4485980000000 1.0
C      1  0.5565120000000  0.5590540000000  0.5411210000000 1.0
C      1  0.4550280000000  0.4797530000000  0.5088610000000 1.0
C      1  0.4722910000000  0.5294680000000  0.5287570000000 1.0
C      1  0.4619950000000  0.5695530000000  0.4322090000000 1.0
C      1  0.5354870000000  0.4073050000000  0.5099240000000 1.0
C      1  0.5609140000000  0.4871560000000  0.4157050000000 1.0
C      1  0.5008740000000  0.4936540000000  0.4311120000000 1.0
C      1  0.4218320000000  0.4684600000000  0.4711760000000 1.0
C      1  0.4584240000000  0.5718930000000  0.4609280000000 1.0
C      1  0.5110630000000  0.5494790000000  0.4226280000000 1.0
C      1  0.4917670000000  0.4436230000000  0.5115590000000 1.0
C      1  0.4329850000000  0.5606500000000  0.5026610000000 1.0
C      1  0.5485940000000  0.4631020000000  0.5809490000000 1.0
C      1  0.5104720000000  0.5666590000000  0.5639660000000 1.0
C      1  0.5783810000000  0.5425360000000  0.5270660000000 1.0
C      1  0.5460900000000  0.5097060000000  0.4054980000000 1.0
C      1  0.4591810000000  0.5823390000000  0.5516000000000 1.0
C      1  0.5194960000000  0.4660300000000  0.5797790000000 1.0
C      1  0.5308040000000  0.4549410000000  0.5202930000000 1.0
C      1  0.4766140000000  0.4211230000000  0.4677500000000 1.0
C      1  0.5410710000000  0.4479730000000  0.4462170000000 1.0
C      1  0.4639490000000  0.4959770000000  0.5334530000000 1.0
C      1  0.5786370000000  0.4699970000000  0.5011650000000 1.0
C      1  0.4542070000000  0.5055260000000  0.4265750000000 1.0
C      1  0.5198290000000  0.5885640000000  0.5193800000000 1.0
C      1  0.4607370000000  0.5314130000000  0.4140570000000 1.0
C      1  0.4864180000000  0.4351910000000  0.4438360000000 1.0
C      1  0.5723230000000  0.5024520000000  0.4375170000000 1.0
C      1  0.5234920000000  0.5269030000000  0.4052700000000 1.0
C      1  0.5729980000000  0.5703070000000  0.5196470000000 1.0
C      1  0.5211660000000  0.4940820000000  0.4764050000000 1.0
C      1  0.4728740000000  0.5365570000000  0.5816630000000 1.0
C      1  0.5108990000000  0.4895300000000  0.5629130000000 1.0
C      1  0.5035520000000  0.5422330000000  0.5805930000000 1.0
C      1  0.5873950000000  0.5192510000000  0.5115440000000 1.0
C      1  0.5870330000000  0.4906520000000  0.5407150000000 1.0
C      1  0.5197920000000  0.5188000000000  0.5812750000000 1.0
C      1  0.4130940000000  0.5082840000000  0.5035530000000 1.0
C      1  0.4424710000000  0.4493110000000  0.4630640000000 1.0
C      1  0.4996320000000  0.5228740000000  0.5250630000000 1.0
C      1  0.4731680000000  0.4832000000000  0.4339640000000 1.0
C      1  0.4531290000000  0.4178860000000  0.5339420000000 1.0
C      1  0.5642190000000  0.4132840000000  0.5191350000000 1.0
C      1  0.5256050000000  0.5159250000000  0.5218730000000 1.0
C      1  0.4303050000000  0.5131200000000  0.4422910000000 1.0
C      1  0.4567760000000  0.5125310000000  0.5881000000000 1.0
C      1  0.4531500000000  0.5039500000000  0.4823820000000 1.0
C      1  0.4354750000000  0.4322960000000  0.5523470000000 1.0
C      1  0.4214340000000  0.4567810000000  0.5441800000000 1.0
C      1  0.4752430000000  0.4711140000000  0.4878260000000 1.0
C      1  0.5220810000000  0.5369800000000  0.4844960000000 1.0
C      1  0.4367910000000  0.5219710000000  0.4932820000000 1.0
C      1  0.5207650000000  0.5004280000000  0.4500410000000 1.0
C      1  0.4958410000000  0.4913850000000  0.4876240000000 1.0
C      1  0.4816810000000  0.4044380000000  0.4913830000000 1.0
C      1  0.4764840000000  0.5766830000000  0.5066340000000 1.0
C      1  0.4220200000000  0.5505390000000  0.5284410000000 1.0
C      1  0.4391640000000  0.5595380000000  0.5504290000000 1.0
C      1  0.5867540000000  0.5434810000000  0.4675150000000 1.0
C      1  0.5458630000000  0.5122190000000  0.5709640000000 1.0
C      1  0.4842080000000  0.5743190000000  0.5620400000000 1.0
C      1  0.5337820000000  0.5011800000000  0.5464110000000 1.0
C      1  0.5459620000000  0.5481990000000  0.4453120000000 1.0
C      1  0.5298400000000  0.5708780000000  0.5403840000000 1.0
C      1  0.4982210000000  0.4481700000000  0.5853310000000 1.0
C      1  0.4658600000000  0.5938280000000  0.5253280000000 1.0
C      1  0.5814180000000  0.4701200000000  0.4729890000000 1.0
C      1  0.4672080000000  0.4564900000000  0.4439270000000 1.0
C      1  0.4970930000000  0.4185710000000  0.5258300000000 1.0
C      1  0.4433350000000  0.4458080000000  0.5779840000000 1.0
C      1  0.5621250000000  0.4888840000000  0.5805620000000 1.0
C      1  0.4701250000000  0.4512480000000  0.5872210000000 1.0
C      1  0.5929880000000  0.5183670000000  0.4815430000000 1.0
C      1  0.5460490000000  0.4611440000000  0.4202870000000 1.0
C      1  0.4922220000000  0.5974310000000  0.5169660000000 1.0
C      1  0.4889590000000  0.4789190000000  0.5441420000000 1.0
C      1  0.4269830000000  0.4690310000000  0.5709840000000 1.0
C      1  0.4805190000000  0.5149670000000  0.4795520000000 1.0
C      1  0.4592770000000  0.5396960000000  0.5560920000000 1.0
C      1  0.5228260000000  0.5652250000000  0.4453240000000 1.0
C      1  0.5269060000000  0.4575310000000  0.3979790000000 1.0
C      1  0.5055040000000  0.5029860000000  0.4033440000000 1.0
C      1  0.4346810000000  0.5595890000000  0.4714700000000 1.0
C      1  0.5576800000000  0.5328450000000  0.4661880000000 1.0
C      1  0.4559040000000  0.4156000000000  0.5033690000000 1.0
C      1  0.5458420000000  0.5183530000000  0.4447310000000 1.0
C      1  0.4820780000000  0.4493360000000  0.5612490000000 1.0
C      1  0.5553840000000  0.5768420000000  0.4957740000000 1.0
C      1  0.5240710000000  0.4191710000000  0.4718190000000 1.0
C      1  0.4405740000000  0.5507230000000  0.4242430000000 1.0
C      1  0.5248360000000  0.4273850000000  0.5279610000000 1.0
C      1  0.5363970000000  0.5120210000000  0.4918770000000 1.0
C      1  0.4830600000000  0.4446600000000  0.4861210000000 1.0
C      1  0.5870970000000  0.4960440000000  0.4614230000000 1.0
C      1  0.5684770000000  0.4515570000000  0.5623970000000 1.0
C      1  0.5557690000000  0.4558250000000  0.4701690000000 1.0
C      1  0.5129420000000  0.4031610000000  0.4902430000000 1.0
C      1  0.5291280000000  0.5912480000000  0.4908310000000 1.0
C      1  0.5047480000000  0.4691140000000  0.5203340000000 1.0
END
