TITL C-884128-4793-372 0.322480508523855 125000 -27985.8635509407 0 0 185 (C1) n - 1
REM
REM in /home/nfs/bkarasulu/CARBON/AIRSS/Generating-Clusters/ReaxFF-fromJPCA2015/Units_Real/with-SteepDescent/Only-C1/SD-CG/Try1-3A/FIRE-CG
REM
REM
REM
REM
REM
REM ./C.cell (11c1c37f851c82e70ff6c80c92926a4b)
REM
REM compiler GCC version 9.2.1 20190827 (Red Hat 9.2.1-1)
REM options -cpp -mtune=generic -march=x86-64 -g -O0 -fpre-include=/usr/include/finclude/math-vector-fortran.h
REM seed 288384506 804216258 -1259163253 -1379742598 -142271152 1057174625 1104949341 -1953788851 872358854 433422160 102937669 1078784037 812680177 1213899717 2033197826 -1283589742 924296598 -667199777 1806470345 733049869 -1387454901 585830746 -58129166 -643235959 -1476780267 -92044559 -1174784223 1573403702 -1906904590 353153974 1172087225 935307076 -47529753
REM
CELL 1.54180   50.00000   50.00000   50.00000   90.00000   90.00000   90.00000
LATT -1
SFAC C  
C      1  0.4629060000000  0.3974140000000  0.5141480000000 1.0
C      1  0.4556940000000  0.5518520000000  0.4819560000000 1.0
C      1  0.5977490000000  0.4568780000000  0.5020050000000 1.0
C      1  0.6042790000000  0.4793200000000  0.4589320000000 1.0
C      1  0.5294590000000  0.5199490000000  0.5663670000000 1.0
C      1  0.4230730000000  0.4730770000000  0.5652430000000 1.0
C      1  0.4526160000000  0.4279370000000  0.5652070000000 1.0
C      1  0.5034800000000  0.5336520000000  0.4787740000000 1.0
C      1  0.4558780000000  0.4481820000000  0.5884790000000 1.0
C      1  0.4179690000000  0.4554260000000  0.4897390000000 1.0
C      1  0.3899730000000  0.4884960000000  0.5134610000000 1.0
C      1  0.5365630000000  0.4810630000000  0.3954320000000 1.0
C      1  0.4480540000000  0.5311410000000  0.5225070000000 1.0
C      1  0.4832950000000  0.4727440000000  0.5503870000000 1.0
C      1  0.4976930000000  0.4874970000000  0.4862340000000 1.0
C      1  0.4251050000000  0.5620700000000  0.4495580000000 1.0
C      1  0.4167820000000  0.4628390000000  0.4405720000000 1.0
C      1  0.5916420000000  0.4823990000000  0.5652030000000 1.0
C      1  0.5758560000000  0.4901400000000  0.5927170000000 1.0
C      1  0.4570400000000  0.4386600000000  0.4476060000000 1.0
C      1  0.5370960000000  0.5900590000000  0.5195230000000 1.0
C      1  0.4410150000000  0.5541290000000  0.5067950000000 1.0
C      1  0.4770660000000  0.4239310000000  0.4328770000000 1.0
C      1  0.5117490000000  0.6097420000000  0.5175970000000 1.0
C      1  0.5575400000000  0.4997300000000  0.4721020000000 1.0
C      1  0.5038700000000  0.4216260000000  0.4526750000000 1.0
C      1  0.5609130000000  0.4136300000000  0.5340190000000 1.0
C      1  0.5456920000000  0.4332260000000  0.4205560000000 1.0
C      1  0.5329600000000  0.5709040000000  0.5420260000000 1.0
C      1  0.5588400000000  0.5569300000000  0.4755380000000 1.0
C      1  0.4737660000000  0.5045280000000  0.4466770000000 1.0
C      1  0.5129100000000  0.5489570000000  0.5315060000000 1.0
C      1  0.4787750000000  0.5714040000000  0.5784710000000 1.0
C      1  0.3935230000000  0.5238890000000  0.5523910000000 1.0
C      1  0.4340620000000  0.5775140000000  0.5514460000000 1.0
C      1  0.4795220000000  0.5204510000000  0.5549350000000 1.0
C      1  0.4962520000000  0.6025760000000  0.5413200000000 1.0
C      1  0.5875490000000  0.5740920000000  0.5120250000000 1.0
C      1  0.4993410000000  0.5176760000000  0.4042060000000 1.0
C      1  0.5391310000000  0.5074200000000  0.5190890000000 1.0
C      1  0.5015100000000  0.5867550000000  0.5665980000000 1.0
C      1  0.4952040000000  0.5666250000000  0.5128870000000 1.0
C      1  0.5781810000000  0.4574930000000  0.5581540000000 1.0
C      1  0.4036340000000  0.5534920000000  0.4879540000000 1.0
C      1  0.5490300000000  0.5447000000000  0.4281820000000 1.0
C      1  0.3969990000000  0.5520660000000  0.5449760000000 1.0
C      1  0.5732220000000  0.5308370000000  0.5096650000000 1.0
C      1  0.4427510000000  0.4952780000000  0.4872440000000 1.0
C      1  0.5841100000000  0.5489390000000  0.4687950000000 1.0
C      1  0.5341180000000  0.4518980000000  0.4011430000000 1.0
C      1  0.5589190000000  0.5437100000000  0.5954370000000 1.0
C      1  0.4747390000000  0.5963700000000  0.4778540000000 1.0
C      1  0.4776120000000  0.5870920000000  0.5242690000000 1.0
C      1  0.4664880000000  0.4955610000000  0.5582630000000 1.0
C      1  0.4708760000000  0.3856830000000  0.4879460000000 1.0
C      1  0.5106310000000  0.4944620000000  0.3905680000000 1.0
C      1  0.6075820000000  0.5055430000000  0.4707680000000 1.0
C      1  0.3793190000000  0.5108030000000  0.4694570000000 1.0
C      1  0.4174390000000  0.5585480000000  0.5651630000000 1.0
C      1  0.5829090000000  0.5198190000000  0.4601070000000 1.0
C      1  0.5683510000000  0.5161960000000  0.5954210000000 1.0
C      1  0.3969780000000  0.5438280000000  0.5154810000000 1.0
C      1  0.4070070000000  0.4658370000000  0.5171730000000 1.0
C      1  0.5237660000000  0.4991830000000  0.5855210000000 1.0
C      1  0.5655940000000  0.5900780000000  0.5037070000000 1.0
C      1  0.5231290000000  0.4845250000000  0.5249110000000 1.0
C      1  0.4263930000000  0.4840330000000  0.4228460000000 1.0
C      1  0.4901970000000  0.5869650000000  0.4281680000000 1.0
C      1  0.4253560000000  0.4238800000000  0.4917490000000 1.0
C      1  0.5218820000000  0.3838880000000  0.5013960000000 1.0
C      1  0.6017160000000  0.5059210000000  0.5461250000000 1.0
C      1  0.5759020000000  0.5313020000000  0.4325460000000 1.0
C      1  0.5364910000000  0.5715720000000  0.4326320000000 1.0
C      1  0.5320080000000  0.4133840000000  0.5372270000000 1.0
C      1  0.4188280000000  0.4556210000000  0.5411910000000 1.0
C      1  0.4777830000000  0.4828460000000  0.6096420000000 1.0
C      1  0.4899610000000  0.5285850000000  0.4341180000000 1.0
C      1  0.5559720000000  0.4592980000000  0.5032970000000 1.0
C      1  0.4511340000000  0.3977580000000  0.4724940000000 1.0
C      1  0.5296840000000  0.5486080000000  0.5870190000000 1.0
C      1  0.4169680000000  0.5145320000000  0.5684720000000 1.0
C      1  0.5048900000000  0.4540910000000  0.4035830000000 1.0
C      1  0.4539570000000  0.4975370000000  0.6008280000000 1.0
C      1  0.5846360000000  0.4579080000000  0.4281560000000 1.0
C      1  0.5329920000000  0.5208630000000  0.4237730000000 1.0
C      1  0.4603110000000  0.5655240000000  0.5567260000000 1.0
C      1  0.5783520000000  0.5062650000000  0.4185510000000 1.0
C      1  0.4153420000000  0.5342560000000  0.4428320000000 1.0
C      1  0.4357150000000  0.4316190000000  0.5407160000000 1.0
C      1  0.3920160000000  0.5159130000000  0.5241040000000 1.0
C      1  0.4709210000000  0.4114590000000  0.5536040000000 1.0
C      1  0.5774840000000  0.4772100000000  0.5142700000000 1.0
C      1  0.4501730000000  0.5265800000000  0.4105900000000 1.0
C      1  0.5103040000000  0.5074650000000  0.4711350000000 1.0
C      1  0.4436270000000  0.4674420000000  0.4827050000000 1.0
C      1  0.4769780000000  0.5478860000000  0.5961270000000 1.0
C      1  0.5307670000000  0.4320230000000  0.4456640000000 1.0
C      1  0.5635120000000  0.5041820000000  0.5010850000000 1.0
C      1  0.5347360000000  0.4599380000000  0.5233380000000 1.0
C      1  0.5253720000000  0.5328550000000  0.5069240000000 1.0
C      1  0.5671810000000  0.5618270000000  0.5749330000000 1.0
C      1  0.4321040000000  0.5783530000000  0.5218510000000 1.0
C      1  0.5251390000000  0.4785490000000  0.4425400000000 1.0
C      1  0.4435090000000  0.4690010000000  0.4050310000000 1.0
C      1  0.4981120000000  0.4958150000000  0.5952200000000 1.0
C      1  0.5381740000000  0.4752290000000  0.5827780000000 1.0
C      1  0.4999980000000  0.5172790000000  0.6128440000000 1.0
C      1  0.5540510000000  0.4709010000000  0.4763930000000 1.0
C      1  0.4982550000000  0.5489240000000  0.4537790000000 1.0
C      1  0.5806320000000  0.5743870000000  0.5383390000000 1.0
C      1  0.4832520000000  0.5754660000000  0.4536330000000 1.0
C      1  0.5957520000000  0.4538890000000  0.4730030000000 1.0
C      1  0.5058380000000  0.4471950000000  0.5859710000000 1.0
C      1  0.5788910000000  0.4317450000000  0.4624180000000 1.0
C      1  0.4814350000000  0.4956220000000  0.5097930000000 1.0
C      1  0.4808420000000  0.4546600000000  0.6005370000000 1.0
C      1  0.5734390000000  0.4332370000000  0.4328090000000 1.0
C      1  0.6126440000000  0.5083900000000  0.5215560000000 1.0
C      1  0.5158670000000  0.3953770000000  0.4615370000000 1.0
C      1  0.5335040000000  0.4518760000000  0.5961180000000 1.0
C      1  0.4544120000000  0.5050290000000  0.5117380000000 1.0
C      1  0.4372480000000  0.4966500000000  0.5553650000000 1.0
C      1  0.4589190000000  0.5120930000000  0.4703370000000 1.0
C      1  0.4306800000000  0.4143570000000  0.4654180000000 1.0
C      1  0.4537140000000  0.5268710000000  0.5954420000000 1.0
C      1  0.5499140000000  0.5472140000000  0.5000420000000 1.0
C      1  0.4900970000000  0.4386240000000  0.4792490000000 1.0
C      1  0.4976020000000  0.4412680000000  0.5071310000000 1.0
C      1  0.5309390000000  0.5044450000000  0.4527060000000 1.0
C      1  0.5373260000000  0.4589350000000  0.4569230000000 1.0
C      1  0.4670530000000  0.5483760000000  0.4229860000000 1.0
C      1  0.4213200000000  0.5740610000000  0.4759720000000 1.0
C      1  0.5002740000000  0.4512560000000  0.5583010000000 1.0
C      1  0.5150420000000  0.4396930000000  0.5318320000000 1.0
C      1  0.4913390000000  0.4729530000000  0.3854090000000 1.0
C      1  0.5511290000000  0.5030370000000  0.4087050000000 1.0
C      1  0.4743690000000  0.5312720000000  0.4849220000000 1.0
C      1  0.4290420000000  0.5365400000000  0.5827720000000 1.0
C      1  0.4617620000000  0.5393390000000  0.5455760000000 1.0
C      1  0.5819680000000  0.4327950000000  0.5439360000000 1.0
C      1  0.4282010000000  0.5142630000000  0.4251050000000 1.0
C      1  0.5061260000000  0.5280450000000  0.5515560000000 1.0
C      1  0.5952480000000  0.4320610000000  0.5174230000000 1.0
C      1  0.4440520000000  0.4388550000000  0.4100060000000 1.0
C      1  0.3742150000000  0.4923620000000  0.4899240000000 1.0
C      1  0.5755650000000  0.4119420000000  0.5078370000000 1.0
C      1  0.4987370000000  0.6088210000000  0.4906520000000 1.0
C      1  0.5001620000000  0.3808380000000  0.4818810000000 1.0
C      1  0.5191730000000  0.5736550000000  0.4982870000000 1.0
C      1  0.6142170000000  0.5192380000000  0.4958930000000 1.0
C      1  0.4772850000000  0.4771720000000  0.4442070000000 1.0
C      1  0.5141600000000  0.3931400000000  0.5283930000000 1.0
C      1  0.5948490000000  0.4831610000000  0.4302820000000 1.0
C      1  0.5694810000000  0.4804470000000  0.5449790000000 1.0
C      1  0.5645130000000  0.4127480000000  0.4807030000000 1.0
C      1  0.5127410000000  0.5776930000000  0.4159380000000 1.0
C      1  0.4401240000000  0.4165610000000  0.5157010000000 1.0
C      1  0.5628470000000  0.5836920000000  0.4745540000000 1.0
C      1  0.4026590000000  0.4650520000000  0.4649100000000 1.0
C      1  0.4711910000000  0.5113830000000  0.3975950000000 1.0
C      1  0.5529460000000  0.5104830000000  0.5474700000000 1.0
C      1  0.5008060000000  0.4687820000000  0.4293960000000 1.0
C      1  0.3812230000000  0.4827550000000  0.4655050000000 1.0
C      1  0.3988470000000  0.5326160000000  0.4665630000000 1.0
C      1  0.4648440000000  0.4572180000000  0.4662840000000 1.0
C      1  0.4675390000000  0.4231760000000  0.4075560000000 1.0
C      1  0.4966760000000  0.4865620000000  0.5304370000000 1.0
C      1  0.5966390000000  0.5454340000000  0.4962660000000 1.0
C      1  0.5049730000000  0.4594640000000  0.4880950000000 1.0
C      1  0.4512240000000  0.5984210000000  0.5127250000000 1.0
C      1  0.5169520000000  0.5913080000000  0.4745680000000 1.0
C      1  0.4399330000000  0.4726370000000  0.5899680000000 1.0
C      1  0.5399580000000  0.5886720000000  0.4560910000000 1.0
C      1  0.5046420000000  0.5439110000000  0.6056520000000 1.0
C      1  0.4465400000000  0.5930680000000  0.4848780000000 1.0
C      1  0.4840730000000  0.3957850000000  0.5352700000000 1.0
C      1  0.5390010000000  0.3976490000000  0.4803000000000 1.0
C      1  0.5572340000000  0.4684080000000  0.6006470000000 1.0
C      1  0.4646600000000  0.4832560000000  0.3909190000000 1.0
C      1  0.4546750000000  0.5608800000000  0.4509980000000 1.0
C      1  0.5281070000000  0.5747670000000  0.5702840000000 1.0
C      1  0.4858140000000  0.5679270000000  0.4095690000000 1.0
C      1  0.5785650000000  0.5255360000000  0.5423060000000 1.0
C      1  0.4305400000000  0.4360280000000  0.4388800000000 1.0
C      1  0.5861360000000  0.5539120000000  0.5561250000000 1.0
END
