TITL C-883726-8501-194 23.9866792390398 125000 -20062.9017733894 0 0 135 (C1) n - 1
REM
REM in /home/nfs/bkarasulu/CARBON/AIRSS/Generating-Clusters/ReaxFF-fromJPCA2015/Units_Real/with-SteepDescent/Only-C1/SD-CG/Try1-3A/FIRE-CG
REM
REM
REM
REM
REM
REM ./C.cell (11c1c37f851c82e70ff6c80c92926a4b)
REM
REM compiler GCC version 9.2.1 20190827 (Red Hat 9.2.1-1)
REM options -cpp -mtune=generic -march=x86-64 -g -O0 -fpre-include=/usr/include/finclude/math-vector-fortran.h
REM seed -1460320092 -1135741093 -1801372601 601953333 1641641148 593896262 1476178563 1576780784 300091215 799929200 435413814 1859940377 -134048941 1852178297 1855112977 -2112252969 1733426081 -326102128 715816820 624702782 -1722697220 1616197477 -498439068 311736560 -1494500390 -2078878663 -1264355115 1138141528 1304684783 225955232 1005999531 1068796637 203133362
REM
CELL 1.54180   50.00000   50.00000   50.00000   90.00000   90.00000   90.00000
LATT -1
SFAC C  
C      1  0.6018400000000  0.5168370000000  0.4776680000000 1.0
C      1  0.4560890000000  0.4985950000000  0.4100200000000 1.0
C      1  0.4369980000000  0.5589390000000  0.5272720000000 1.0
C      1  0.5751440000000  0.4453970000000  0.5296310000000 1.0
C      1  0.4740870000000  0.5241950000000  0.5212370000000 1.0
C      1  0.4649150000000  0.4491250000000  0.4731540000000 1.0
C      1  0.4502310000000  0.5786630000000  0.4769690000000 1.0
C      1  0.4710140000000  0.4799460000000  0.4299730000000 1.0
C      1  0.4153290000000  0.4302720000000  0.5102980000000 1.0
C      1  0.4161010000000  0.5354580000000  0.4667650000000 1.0
C      1  0.3998320000000  0.4926660000000  0.4845760000000 1.0
C      1  0.4982290000000  0.4131150000000  0.4579410000000 1.0
C      1  0.5175820000000  0.3962280000000  0.4968120000000 1.0
C      1  0.5083980000000  0.4964760000000  0.3968750000000 1.0
C      1  0.5557520000000  0.4804520000000  0.4861020000000 1.0
C      1  0.5105790000000  0.4039600000000  0.5431510000000 1.0
C      1  0.5697750000000  0.5580970000000  0.4946430000000 1.0
C      1  0.5912030000000  0.4636190000000  0.5168360000000 1.0
C      1  0.5381150000000  0.4709490000000  0.4648780000000 1.0
C      1  0.4178460000000  0.4496620000000  0.4621680000000 1.0
C      1  0.4778200000000  0.4059600000000  0.4794140000000 1.0
C      1  0.4543810000000  0.4848660000000  0.5845190000000 1.0
C      1  0.5017650000000  0.5705570000000  0.5348270000000 1.0
C      1  0.5173750000000  0.4230260000000  0.5054910000000 1.0
C      1  0.4796330000000  0.5053280000000  0.3940750000000 1.0
C      1  0.4853640000000  0.4556110000000  0.5665870000000 1.0
C      1  0.5551260000000  0.5011050000000  0.4175310000000 1.0
C      1  0.5387700000000  0.4096840000000  0.5396620000000 1.0
C      1  0.5027700000000  0.4868070000000  0.6015880000000 1.0
C      1  0.4421890000000  0.4644770000000  0.5680840000000 1.0
C      1  0.5245840000000  0.4202630000000  0.5615710000000 1.0
C      1  0.5915360000000  0.5050950000000  0.4547270000000 1.0
C      1  0.5489550000000  0.4974760000000  0.5340580000000 1.0
C      1  0.5352850000000  0.5600330000000  0.4290060000000 1.0
C      1  0.4436130000000  0.4230270000000  0.5127950000000 1.0
C      1  0.5572410000000  0.5550050000000  0.4460800000000 1.0
C      1  0.4793670000000  0.5108560000000  0.4696870000000 1.0
C      1  0.5109430000000  0.4665730000000  0.4023880000000 1.0
C      1  0.5312980000000  0.4818660000000  0.5960470000000 1.0
C      1  0.5625270000000  0.4729670000000  0.4234210000000 1.0
C      1  0.5302600000000  0.5248830000000  0.5894900000000 1.0
C      1  0.5181560000000  0.5422860000000  0.4808680000000 1.0
C      1  0.4448600000000  0.4958170000000  0.4872330000000 1.0
C      1  0.5449930000000  0.5647650000000  0.5642420000000 1.0
C      1  0.4037680000000  0.4367900000000  0.4843850000000 1.0
C      1  0.5620160000000  0.4943010000000  0.5596630000000 1.0
C      1  0.4352240000000  0.5185780000000  0.4192740000000 1.0
C      1  0.4855880000000  0.5785020000000  0.4234020000000 1.0
C      1  0.5012180000000  0.4836280000000  0.4886270000000 1.0
C      1  0.5195610000000  0.4927910000000  0.4670370000000 1.0
C      1  0.4843600000000  0.4059120000000  0.5304040000000 1.0
C      1  0.4610150000000  0.4226230000000  0.5369440000000 1.0
C      1  0.4105030000000  0.5013940000000  0.5461330000000 1.0
C      1  0.5568370000000  0.5946610000000  0.4762610000000 1.0
C      1  0.4507880000000  0.5400400000000  0.4151520000000 1.0
C      1  0.4778780000000  0.4744470000000  0.5399630000000 1.0
C      1  0.5124160000000  0.5232080000000  0.5418520000000 1.0
C      1  0.5248800000000  0.4046490000000  0.4690020000000 1.0
C      1  0.5585830000000  0.4243380000000  0.5234480000000 1.0
C      1  0.5860690000000  0.5068140000000  0.5471000000000 1.0
C      1  0.4558370000000  0.4611970000000  0.4481270000000 1.0
C      1  0.4153120000000  0.5198220000000  0.4431360000000 1.0
C      1  0.5822090000000  0.4822220000000  0.4722540000000 1.0
C      1  0.4060300000000  0.5218300000000  0.5283020000000 1.0
C      1  0.5447020000000  0.4790930000000  0.5127400000000 1.0
C      1  0.4236320000000  0.4808780000000  0.4711850000000 1.0
C      1  0.4966420000000  0.5327310000000  0.4397310000000 1.0
C      1  0.5168670000000  0.4479440000000  0.5658180000000 1.0
C      1  0.4401470000000  0.5372460000000  0.5674630000000 1.0
C      1  0.4026640000000  0.4972150000000  0.4559510000000 1.0
C      1  0.4753180000000  0.5030230000000  0.5437180000000 1.0
C      1  0.5880500000000  0.5421580000000  0.5123640000000 1.0
C      1  0.4960770000000  0.5427750000000  0.5277670000000 1.0
C      1  0.4623110000000  0.5523060000000  0.4800100000000 1.0
C      1  0.5323660000000  0.5518240000000  0.5864200000000 1.0
C      1  0.4566310000000  0.5615480000000  0.5653510000000 1.0
C      1  0.5291850000000  0.5129940000000  0.4092500000000 1.0
C      1  0.5219940000000  0.5893430000000  0.4989950000000 1.0
C      1  0.4728250000000  0.5021430000000  0.4951070000000 1.0
C      1  0.5146470000000  0.5784510000000  0.4307750000000 1.0
C      1  0.4066260000000  0.5191150000000  0.4955380000000 1.0
C      1  0.4365910000000  0.5557070000000  0.4639910000000 1.0
C      1  0.5707770000000  0.5707680000000  0.4686000000000 1.0
C      1  0.4366510000000  0.4411530000000  0.4437000000000 1.0
C      1  0.4797580000000  0.5886240000000  0.5272190000000 1.0
C      1  0.5026340000000  0.5134080000000  0.5882760000000 1.0
C      1  0.5364050000000  0.4665980000000  0.5731230000000 1.0
C      1  0.5707510000000  0.5174060000000  0.4368230000000 1.0
C      1  0.4747310000000  0.5301050000000  0.5921730000000 1.0
C      1  0.4949800000000  0.5777310000000  0.4528330000000 1.0
C      1  0.5357830000000  0.5203140000000  0.5290370000000 1.0
C      1  0.4595780000000  0.4415780000000  0.5600040000000 1.0
C      1  0.5656600000000  0.4261630000000  0.4936600000000 1.0
C      1  0.5312300000000  0.5191010000000  0.4691990000000 1.0
C      1  0.5191310000000  0.5778460000000  0.5579540000000 1.0
C      1  0.5191790000000  0.5381700000000  0.4213970000000 1.0
C      1  0.4537920000000  0.4724090000000  0.5259020000000 1.0
C      1  0.4336680000000  0.5172800000000  0.4996950000000 1.0
C      1  0.4553240000000  0.5770230000000  0.5398570000000 1.0
C      1  0.5489750000000  0.5034490000000  0.5849890000000 1.0
C      1  0.4838890000000  0.5068660000000  0.4449720000000 1.0
C      1  0.5539960000000  0.5288530000000  0.4547010000000 1.0
C      1  0.5727590000000  0.4510680000000  0.4400360000000 1.0
C      1  0.4207900000000  0.5414020000000  0.5444610000000 1.0
C      1  0.5476850000000  0.4228630000000  0.4699370000000 1.0
C      1  0.5075520000000  0.5666920000000  0.5824050000000 1.0
C      1  0.6025400000000  0.5157100000000  0.5053730000000 1.0
C      1  0.4763600000000  0.5965450000000  0.4744770000000 1.0
C      1  0.5961320000000  0.4925240000000  0.5234940000000 1.0
C      1  0.4047290000000  0.4575370000000  0.5050720000000 1.0
C      1  0.4926910000000  0.5953840000000  0.5020420000000 1.0
C      1  0.4875690000000  0.4588440000000  0.4866030000000 1.0
C      1  0.5435160000000  0.5450370000000  0.5222590000000 1.0
C      1  0.4957840000000  0.4344310000000  0.4399110000000 1.0
C      1  0.4796330000000  0.5569130000000  0.5836370000000 1.0
C      1  0.5620600000000  0.5550820000000  0.5426820000000 1.0
C      1  0.4194430000000  0.4749290000000  0.5517680000000 1.0
C      1  0.4800420000000  0.4731350000000  0.5911620000000 1.0
C      1  0.5047160000000  0.4482170000000  0.5072730000000 1.0
C      1  0.5386870000000  0.6057930000000  0.4858690000000 1.0
C      1  0.4260700000000  0.4707400000000  0.5222340000000 1.0
C      1  0.5882020000000  0.4441890000000  0.4908170000000 1.0
C      1  0.4517050000000  0.5155540000000  0.5838810000000 1.0
C      1  0.4562710000000  0.4233790000000  0.4858620000000 1.0
C      1  0.4506380000000  0.5386450000000  0.5084260000000 1.0
C      1  0.4987820000000  0.5057810000000  0.5595380000000 1.0
C      1  0.4921880000000  0.4565260000000  0.4227540000000 1.0
C      1  0.4939360000000  0.5498840000000  0.4648510000000 1.0
C      1  0.5459600000000  0.4453510000000  0.4509670000000 1.0
C      1  0.4883150000000  0.3934370000000  0.5038260000000 1.0
C      1  0.5349890000000  0.5587460000000  0.4984690000000 1.0
C      1  0.4667720000000  0.5600310000000  0.4169840000000 1.0
C      1  0.5841550000000  0.5362620000000  0.5406740000000 1.0
C      1  0.5166700000000  0.4739040000000  0.5109850000000 1.0
C      1  0.5905290000000  0.4553940000000  0.4641580000000 1.0
END
