TITL C-884133-6611-336 -2.45823474351071 125000 -13088.1835968303 0 0 88 (C1) n - 1
REM
REM in /home/nfs/bkarasulu/CARBON/AIRSS/Generating-Clusters/ReaxFF-fromJPCA2015/Units_Real/with-SteepDescent/Only-C1/SD-CG/Try1-3A/FIRE-CG
REM
REM
REM
REM
REM
REM ./C.cell (11c1c37f851c82e70ff6c80c92926a4b)
REM
REM compiler GCC version 9.2.1 20190827 (Red Hat 9.2.1-1)
REM options -cpp -mtune=generic -march=x86-64 -g -O0 -fpre-include=/usr/include/finclude/math-vector-fortran.h
REM seed 660488826 1598571645 -424891485 -1259424371 -1143408352 -1890281458 -1390837633 1844544746 945706666 1157123595 1921341839 -725815675 2011401250 1368284247 -1858145254 1780321420 -168002456 -1499083136 896271684 -967588381 -636010041 -1633709414 1861891455 608330038 -323867276 -468051100 -990510691 1448389303 -692247598 275823445 -321603688 2101374505 -2118804095
REM
CELL 1.54180   50.00000   50.00000   50.00000   90.00000   90.00000   90.00000
LATT -1
SFAC C  
C      1  0.4349470000000  0.4861750000000  0.5093100000000 1.0
C      1  0.5264240000000  0.4415060000000  0.4315420000000 1.0
C      1  0.5621340000000  0.4699550000000  0.4478450000000 1.0
C      1  0.5381930000000  0.4371240000000  0.4803520000000 1.0
C      1  0.4762500000000  0.5872070000000  0.5109190000000 1.0
C      1  0.4328910000000  0.5418470000000  0.4554240000000 1.0
C      1  0.4685130000000  0.5130670000000  0.4526610000000 1.0
C      1  0.4302810000000  0.4562760000000  0.4196520000000 1.0
C      1  0.4923260000000  0.5803060000000  0.5283060000000 1.0
C      1  0.4265670000000  0.4362250000000  0.5164630000000 1.0
C      1  0.5088690000000  0.4778220000000  0.5257030000000 1.0
C      1  0.5087790000000  0.5528390000000  0.5644610000000 1.0
C      1  0.5148620000000  0.5718750000000  0.5433970000000 1.0
C      1  0.4905210000000  0.4771430000000  0.5035730000000 1.0
C      1  0.5157320000000  0.5486700000000  0.4732850000000 1.0
C      1  0.4257850000000  0.4386610000000  0.4885860000000 1.0
C      1  0.5570240000000  0.5458860000000  0.5322770000000 1.0
C      1  0.4960630000000  0.4750890000000  0.4740140000000 1.0
C      1  0.5381750000000  0.4928490000000  0.5928050000000 1.0
C      1  0.5171790000000  0.4913730000000  0.4660190000000 1.0
C      1  0.4745530000000  0.5359430000000  0.4334000000000 1.0
C      1  0.5565480000000  0.4728710000000  0.5516320000000 1.0
C      1  0.5025600000000  0.5630620000000  0.4504510000000 1.0
C      1  0.4877780000000  0.4239480000000  0.5016600000000 1.0
C      1  0.5713050000000  0.5328080000000  0.5094330000000 1.0
C      1  0.5515630000000  0.4798840000000  0.5057660000000 1.0
C      1  0.5489750000000  0.4842810000000  0.4262490000000 1.0
C      1  0.5017840000000  0.4316300000000  0.4400130000000 1.0
C      1  0.5779900000000  0.4859860000000  0.4937260000000 1.0
C      1  0.4263040000000  0.4871230000000  0.5370890000000 1.0
C      1  0.4700200000000  0.5201540000000  0.5506600000000 1.0
C      1  0.5432020000000  0.5577880000000  0.4795660000000 1.0
C      1  0.5337160000000  0.5038630000000  0.5035290000000 1.0
C      1  0.4296500000000  0.4865700000000  0.4446250000000 1.0
C      1  0.5242090000000  0.4691360000000  0.4195370000000 1.0
C      1  0.4831900000000  0.4410380000000  0.5535320000000 1.0
C      1  0.5165860000000  0.4252450000000  0.4995310000000 1.0
C      1  0.4683700000000  0.4968520000000  0.5053090000000 1.0
C      1  0.4358250000000  0.4575630000000  0.4447340000000 1.0
C      1  0.4477230000000  0.4312630000000  0.5341580000000 1.0
C      1  0.4999710000000  0.4787490000000  0.4308670000000 1.0
C      1  0.5112800000000  0.5911570000000  0.4924750000000 1.0
C      1  0.5392900000000  0.5679070000000  0.5271170000000 1.0
C      1  0.5753420000000  0.4925450000000  0.5403910000000 1.0
C      1  0.5501170000000  0.5131620000000  0.4311290000000 1.0
C      1  0.4769990000000  0.5740260000000  0.4583080000000 1.0
C      1  0.5164340000000  0.5083420000000  0.5863510000000 1.0
C      1  0.5097620000000  0.5189060000000  0.5152540000000 1.0
C      1  0.4819000000000  0.4261300000000  0.4513120000000 1.0
C      1  0.5363550000000  0.5791120000000  0.4997580000000 1.0
C      1  0.4377880000000  0.5129090000000  0.4485280000000 1.0
C      1  0.4264240000000  0.5480190000000  0.4829940000000 1.0
C      1  0.4610450000000  0.5612030000000  0.5795960000000 1.0
C      1  0.5271750000000  0.5327310000000  0.5714580000000 1.0
C      1  0.4466380000000  0.4777380000000  0.5565130000000 1.0
C      1  0.5712710000000  0.5091970000000  0.5641540000000 1.0
C      1  0.4836390000000  0.5904330000000  0.4835740000000 1.0
C      1  0.5057480000000  0.4565620000000  0.5620370000000 1.0
C      1  0.4265960000000  0.5352410000000  0.5105750000000 1.0
C      1  0.4963740000000  0.4857070000000  0.5724370000000 1.0
C      1  0.5641540000000  0.5164590000000  0.4595140000000 1.0
C      1  0.4208070000000  0.4609590000000  0.5061740000000 1.0
C      1  0.4814300000000  0.5149140000000  0.5246510000000 1.0
C      1  0.5830260000000  0.5061670000000  0.5144170000000 1.0
C      1  0.4511870000000  0.5415270000000  0.4964610000000 1.0
C      1  0.4996810000000  0.5327680000000  0.4913480000000 1.0
C      1  0.4783680000000  0.5461480000000  0.5672470000000 1.0
C      1  0.4798400000000  0.4840640000000  0.4492170000000 1.0
C      1  0.4548220000000  0.4491840000000  0.5562030000000 1.0
C      1  0.4666010000000  0.4958510000000  0.5656340000000 1.0
C      1  0.4458790000000  0.4355240000000  0.4685230000000 1.0
C      1  0.5362550000000  0.5088630000000  0.4746790000000 1.0
C      1  0.4190300000000  0.5093960000000  0.5203260000000 1.0
C      1  0.5607220000000  0.4838390000000  0.5789350000000 1.0
C      1  0.4703150000000  0.4233060000000  0.4761540000000 1.0
C      1  0.5535040000000  0.5316320000000  0.5579000000000 1.0
C      1  0.5019560000000  0.5444900000000  0.4270360000000 1.0
C      1  0.5267280000000  0.5285100000000  0.4248870000000 1.0
C      1  0.5651800000000  0.5392410000000  0.4816500000000 1.0
C      1  0.4719700000000  0.5228010000000  0.4847240000000 1.0
C      1  0.4572930000000  0.5560570000000  0.4462620000000 1.0
C      1  0.5503360000000  0.4500480000000  0.5037440000000 1.0
C      1  0.5280650000000  0.4579430000000  0.5417200000000 1.0
C      1  0.5758870000000  0.4892990000000  0.4649130000000 1.0
C      1  0.5453170000000  0.4459550000000  0.4538160000000 1.0
C      1  0.5095460000000  0.4949710000000  0.5479760000000 1.0
C      1  0.5327390000000  0.4354700000000  0.5219620000000 1.0
C      1  0.4758490000000  0.4259360000000  0.5279050000000 1.0
END
