TITL C-884134-5972-476 -10.2217422840748 125000 -14226.462602945 0 0 96 (C1) n - 1
REM
REM in /home/nfs/bkarasulu/CARBON/AIRSS/Generating-Clusters/ReaxFF-fromJPCA2015/Units_Real/with-SteepDescent/Only-C1/SD-CG/Try1-3A/FIRE-CG
REM
REM
REM
REM
REM
REM ./C.cell (11c1c37f851c82e70ff6c80c92926a4b)
REM
REM compiler GCC version 9.2.1 20190827 (Red Hat 9.2.1-1)
REM options -cpp -mtune=generic -march=x86-64 -g -O0 -fpre-include=/usr/include/finclude/math-vector-fortran.h
REM seed 1187570472 1371894578 897698763 -713807554 754119264 -1844032025 2044224289 513745642 -1723078335 345439082 -2053213549 -237295554 -1534374257 -1096935324 17291289 471256948 2058427822 632741039 -898603998 -257479007 -2133430767 -1442798694 777582319 1373583432 1580234536 1034096669 -1873961772 -32811430 -103717890 -818677377 -2018953728 234929206 -1385533221
REM
CELL 1.54180   50.00000   50.00000   50.00000   90.00000   90.00000   90.00000
LATT -1
SFAC C  
C      1  0.5126910000000  0.5352260000000  0.4267350000000 1.0
C      1  0.5205780000000  0.4894370000000  0.5178760000000 1.0
C      1  0.5188960000000  0.4462340000000  0.4850500000000 1.0
C      1  0.4823820000000  0.4572590000000  0.5681140000000 1.0
C      1  0.4115250000000  0.4561900000000  0.4991810000000 1.0
C      1  0.5429410000000  0.5541460000000  0.5187300000000 1.0
C      1  0.5404360000000  0.4872930000000  0.4983010000000 1.0
C      1  0.5006090000000  0.4357420000000  0.5619590000000 1.0
C      1  0.5082290000000  0.4672150000000  0.5280560000000 1.0
C      1  0.4698410000000  0.4687680000000  0.4230500000000 1.0
C      1  0.4625880000000  0.4328670000000  0.4571010000000 1.0
C      1  0.5197930000000  0.5121510000000  0.5336740000000 1.0
C      1  0.5111530000000  0.5058060000000  0.4182180000000 1.0
C      1  0.5633840000000  0.4587150000000  0.4686080000000 1.0
C      1  0.4599110000000  0.4593930000000  0.5445150000000 1.0
C      1  0.4773880000000  0.4416320000000  0.4357920000000 1.0
C      1  0.5297480000000  0.5190250000000  0.5768080000000 1.0
C      1  0.5090800000000  0.4119010000000  0.4632530000000 1.0
C      1  0.5678980000000  0.5379450000000  0.5212190000000 1.0
C      1  0.4286360000000  0.5014540000000  0.5571920000000 1.0
C      1  0.5024730000000  0.5892090000000  0.5140050000000 1.0
C      1  0.4483080000000  0.4800600000000  0.4366550000000 1.0
C      1  0.4843440000000  0.5322980000000  0.5753090000000 1.0
C      1  0.4905790000000  0.4862100000000  0.4671500000000 1.0
C      1  0.5515200000000  0.4337680000000  0.5385650000000 1.0
C      1  0.4478700000000  0.5615440000000  0.5216290000000 1.0
C      1  0.4314130000000  0.5477250000000  0.5377530000000 1.0
C      1  0.4523440000000  0.4232190000000  0.4812150000000 1.0
C      1  0.4957460000000  0.4081480000000  0.5136220000000 1.0
C      1  0.5352920000000  0.4907370000000  0.4178900000000 1.0
C      1  0.4680790000000  0.5673410000000  0.5421310000000 1.0
C      1  0.5808630000000  0.5269960000000  0.4982330000000 1.0
C      1  0.4801440000000  0.4645310000000  0.5229380000000 1.0
C      1  0.5415720000000  0.4628100000000  0.4199170000000 1.0
C      1  0.5309420000000  0.5484610000000  0.4446390000000 1.0
C      1  0.5050170000000  0.4295740000000  0.4393730000000 1.0
C      1  0.4655940000000  0.5610210000000  0.4484710000000 1.0
C      1  0.5406930000000  0.5171620000000  0.5517290000000 1.0
C      1  0.4836430000000  0.4954440000000  0.4199550000000 1.0
C      1  0.4231950000000  0.5274110000000  0.4905500000000 1.0
C      1  0.4328950000000  0.4769910000000  0.5425560000000 1.0
C      1  0.5151760000000  0.4173590000000  0.4919520000000 1.0
C      1  0.5092380000000  0.5080810000000  0.4668380000000 1.0
C      1  0.4056620000000  0.4839520000000  0.4962610000000 1.0
C      1  0.4324860000000  0.4364460000000  0.5036320000000 1.0
C      1  0.5716950000000  0.4433040000000  0.5378530000000 1.0
C      1  0.4424480000000  0.4370320000000  0.5305210000000 1.0
C      1  0.5470200000000  0.5815300000000  0.5225080000000 1.0
C      1  0.4929550000000  0.5735640000000  0.4897450000000 1.0
C      1  0.5350950000000  0.5844300000000  0.4769120000000 1.0
C      1  0.4764470000000  0.5042590000000  0.5835690000000 1.0
C      1  0.4787940000000  0.5399150000000  0.5470970000000 1.0
C      1  0.4668270000000  0.5046900000000  0.4658400000000 1.0
C      1  0.5294560000000  0.5931420000000  0.5052040000000 1.0
C      1  0.5752750000000  0.4934260000000  0.4519400000000 1.0
C      1  0.5617230000000  0.5354270000000  0.4781570000000 1.0
C      1  0.5478400000000  0.5579660000000  0.4642780000000 1.0
C      1  0.5116440000000  0.5420540000000  0.5763530000000 1.0
C      1  0.4442760000000  0.5473930000000  0.4364120000000 1.0
C      1  0.4982110000000  0.5274020000000  0.4859100000000 1.0
C      1  0.5310700000000  0.4394100000000  0.4301430000000 1.0
C      1  0.5670830000000  0.5180190000000  0.5413630000000 1.0
C      1  0.4705220000000  0.5242710000000  0.4866340000000 1.0
C      1  0.4844080000000  0.5408740000000  0.4310830000000 1.0
C      1  0.4148030000000  0.5257570000000  0.5416580000000 1.0
C      1  0.5356490000000  0.5101310000000  0.4571940000000 1.0
C      1  0.4748510000000  0.4522950000000  0.4983090000000 1.0
C      1  0.4949140000000  0.4808220000000  0.5786180000000 1.0
C      1  0.4108780000000  0.5206010000000  0.5138800000000 1.0
C      1  0.5664800000000  0.4719670000000  0.5467970000000 1.0
C      1  0.5403700000000  0.5680270000000  0.5455210000000 1.0
C      1  0.5095390000000  0.5872160000000  0.4650120000000 1.0
C      1  0.4953120000000  0.5790340000000  0.5404640000000 1.0
C      1  0.5234060000000  0.4901910000000  0.5763340000000 1.0
C      1  0.4942950000000  0.4613080000000  0.4802690000000 1.0
C      1  0.4748680000000  0.4235880000000  0.5001720000000 1.0
C      1  0.4392210000000  0.4932810000000  0.4592040000000 1.0
C      1  0.5101690000000  0.5469900000000  0.5041490000000 1.0
C      1  0.4998150000000  0.5328900000000  0.5276670000000 1.0
C      1  0.4131880000000  0.4733810000000  0.5216020000000 1.0
C      1  0.5425780000000  0.4615820000000  0.4863900000000 1.0
C      1  0.4507970000000  0.5460530000000  0.4931040000000 1.0
C      1  0.5150580000000  0.5658200000000  0.5586500000000 1.0
C      1  0.5848550000000  0.4979620000000  0.5014580000000 1.0
C      1  0.4522810000000  0.5037330000000  0.5706830000000 1.0
C      1  0.4970250000000  0.4139010000000  0.5425730000000 1.0
C      1  0.5410130000000  0.4719690000000  0.5618490000000 1.0
C      1  0.4685570000000  0.5169140000000  0.4336670000000 1.0
C      1  0.5549290000000  0.5044040000000  0.4353200000000 1.0
C      1  0.4666080000000  0.5662000000000  0.4776080000000 1.0
C      1  0.5239510000000  0.4511020000000  0.5477910000000 1.0
C      1  0.5775230000000  0.4934470000000  0.5293380000000 1.0
C      1  0.5546580000000  0.4505560000000  0.4418560000000 1.0
C      1  0.4173340000000  0.5026810000000  0.4769620000000 1.0
C      1  0.5829240000000  0.4813270000000  0.4758060000000 1.0
C      1  0.5465650000000  0.5118680000000  0.4821740000000 1.0
END
