TITL C-884140-4336-167 14.6285482773098 125000 -7774.2224481122 0 0 54 (C1) n - 1
REM
REM in /home/nfs/bkarasulu/CARBON/AIRSS/Generating-Clusters/ReaxFF-fromJPCA2015/Units_Real/with-SteepDescent/Only-C1/SD-CG/Try1-3A/FIRE-CG
REM
REM
REM
REM
REM
REM ./C.cell (11c1c37f851c82e70ff6c80c92926a4b)
REM
REM compiler GCC version 9.2.1 20190827 (Red Hat 9.2.1-1)
REM options -cpp -mtune=generic -march=x86-64 -g -O0 -fpre-include=/usr/include/finclude/math-vector-fortran.h
REM seed 1045938255 -1401617477 -495405637 -242901676 -1515329310 977718355 2089158955 -1467052874 -1616581078 -1277545295 1782985297 516071260 68829250 -376682023 494253073 -203019008 925443496 1669674217 1049224576 1923267484 -1987154985 -1003411858 276081055 -1379085228 -612026112 -532533898 -1850078611 936053569 -375247865 -1280131414 -2132573559 2015728996 -737325865
REM
CELL 1.54180   50.00000   50.00000   50.00000   90.00000   90.00000   90.00000
LATT -1
SFAC C  
C      1  0.5634100000000  0.4788340000000  0.5094590000000 1.0
C      1  0.5265500000000  0.5149830000000  0.4593050000000 1.0
C      1  0.4779910000000  0.5610730000000  0.4688060000000 1.0
C      1  0.4912130000000  0.4666740000000  0.5598400000000 1.0
C      1  0.4607100000000  0.5672000000000  0.4467390000000 1.0
C      1  0.4959170000000  0.5430940000000  0.5514430000000 1.0
C      1  0.4454540000000  0.4863810000000  0.5551110000000 1.0
C      1  0.4851650000000  0.5135340000000  0.5248250000000 1.0
C      1  0.4279170000000  0.5252930000000  0.4928450000000 1.0
C      1  0.5488140000000  0.5284610000000  0.4725020000000 1.0
C      1  0.4419430000000  0.5433650000000  0.4566560000000 1.0
C      1  0.5419610000000  0.4766760000000  0.5314190000000 1.0
C      1  0.5262690000000  0.5391190000000  0.5390410000000 1.0
C      1  0.4628620000000  0.4955870000000  0.4345490000000 1.0
C      1  0.5500950000000  0.5484610000000  0.4947660000000 1.0
C      1  0.4983730000000  0.4796150000000  0.4297480000000 1.0
C      1  0.4516580000000  0.4418940000000  0.5265350000000 1.0
C      1  0.5328770000000  0.4460220000000  0.4823150000000 1.0
C      1  0.5692530000000  0.5079460000000  0.4741840000000 1.0
C      1  0.4897420000000  0.4898760000000  0.4835430000000 1.0
C      1  0.5009190000000  0.5610430000000  0.5035040000000 1.0
C      1  0.5520870000000  0.5196500000000  0.5446500000000 1.0
C      1  0.5729190000000  0.5175620000000  0.5225840000000 1.0
C      1  0.5194700000000  0.4655180000000  0.4411250000000 1.0
C      1  0.4288140000000  0.4970920000000  0.4903790000000 1.0
C      1  0.5493260000000  0.4951640000000  0.5582000000000 1.0
C      1  0.5771140000000  0.5005960000000  0.5006690000000 1.0
C      1  0.4920100000000  0.4876580000000  0.5126260000000 1.0
C      1  0.5545450000000  0.4650260000000  0.4846860000000 1.0
C      1  0.4383670000000  0.4674380000000  0.5322430000000 1.0
C      1  0.5132830000000  0.5176210000000  0.5266610000000 1.0
C      1  0.4609260000000  0.4529230000000  0.4989990000000 1.0
C      1  0.5277360000000  0.5552650000000  0.5127470000000 1.0
C      1  0.5282060000000  0.4492830000000  0.5307190000000 1.0
C      1  0.4317880000000  0.5457350000000  0.4823180000000 1.0
C      1  0.4445750000000  0.5125690000000  0.4478070000000 1.0
C      1  0.4751670000000  0.4715540000000  0.4429400000000 1.0
C      1  0.5247050000000  0.4433600000000  0.5046560000000 1.0
C      1  0.4745230000000  0.4888310000000  0.5657920000000 1.0
C      1  0.4791610000000  0.4391510000000  0.5195560000000 1.0
C      1  0.5196910000000  0.4921560000000  0.5206720000000 1.0
C      1  0.5108090000000  0.4501470000000  0.4657240000000 1.0
C      1  0.5003490000000  0.4462170000000  0.5391710000000 1.0
C      1  0.5585420000000  0.4837290000000  0.4624270000000 1.0
C      1  0.4435160000000  0.5150730000000  0.5549120000000 1.0
C      1  0.5758490000000  0.5447370000000  0.5100650000000 1.0
C      1  0.5356460000000  0.4899350000000  0.4455390000000 1.0
C      1  0.4872090000000  0.5620020000000  0.5315470000000 1.0
C      1  0.5006370000000  0.5149050000000  0.4721950000000 1.0
C      1  0.4396420000000  0.4949770000000  0.4679850000000 1.0
C      1  0.4767940000000  0.5184100000000  0.5534440000000 1.0
C      1  0.4844360000000  0.4629110000000  0.4726830000000 1.0
C      1  0.4918230000000  0.5419270000000  0.4824820000000 1.0
C      1  0.4412400000000  0.4757500000000  0.5046610000000 1.0
END
