TITL C-884128-4793-249 21.9058885739167 125000 -20972.9788426506 0 0 140 (C1) n - 1
REM
REM in /home/nfs/bkarasulu/CARBON/AIRSS/Generating-Clusters/ReaxFF-fromJPCA2015/Units_Real/with-SteepDescent/Only-C1/SD-CG/Try1-3A/FIRE-CG
REM
REM
REM
REM
REM
REM ./C.cell (11c1c37f851c82e70ff6c80c92926a4b)
REM
REM compiler GCC version 9.2.1 20190827 (Red Hat 9.2.1-1)
REM options -cpp -mtune=generic -march=x86-64 -g -O0 -fpre-include=/usr/include/finclude/math-vector-fortran.h
REM seed 2129547580 716370782 180354590 485055002 1003546678 328581658 -1722292898 441541333 1897033827 1033837676 -1092512004 1105819205 2012732733 538412139 2108422043 386670681 164270454 1620609966 1985456999 1224344891 -1347042005 1161325803 -1536656871 -1026466291 1683860879 662138859 -1464281871 748646346 499549913 617963912 982899736 -718142781 1488491576
REM
CELL 1.54180   50.00000   50.00000   50.00000   90.00000   90.00000   90.00000
LATT -1
SFAC C  
C      1  0.5389020000000  0.5132630000000  0.5078420000000 1.0
C      1  0.5346730000000  0.4441090000000  0.4090320000000 1.0
C      1  0.5036470000000  0.3934290000000  0.5563470000000 1.0
C      1  0.4372640000000  0.5287170000000  0.5647950000000 1.0
C      1  0.5359150000000  0.4738890000000  0.4994910000000 1.0
C      1  0.5724520000000  0.5583640000000  0.5465310000000 1.0
C      1  0.5436990000000  0.4499260000000  0.4393940000000 1.0
C      1  0.5122450000000  0.4264710000000  0.4144950000000 1.0
C      1  0.4303970000000  0.4884780000000  0.4670410000000 1.0
C      1  0.5226830000000  0.4707120000000  0.4081500000000 1.0
C      1  0.4508570000000  0.4753200000000  0.3979450000000 1.0
C      1  0.4101850000000  0.4678570000000  0.4762440000000 1.0
C      1  0.4937830000000  0.5974250000000  0.4653500000000 1.0
C      1  0.4816580000000  0.5207170000000  0.5459950000000 1.0
C      1  0.4183420000000  0.5306160000000  0.4694610000000 1.0
C      1  0.4809070000000  0.4002430000000  0.5359190000000 1.0
C      1  0.4353160000000  0.4789780000000  0.4240800000000 1.0
C      1  0.4642610000000  0.5152140000000  0.4362730000000 1.0
C      1  0.5708310000000  0.4610500000000  0.4500050000000 1.0
C      1  0.4065930000000  0.5297110000000  0.4953570000000 1.0
C      1  0.5163190000000  0.5091880000000  0.4639130000000 1.0
C      1  0.5123500000000  0.4637760000000  0.5190100000000 1.0
C      1  0.5233560000000  0.5083840000000  0.5321060000000 1.0
C      1  0.5516330000000  0.4131140000000  0.4762810000000 1.0
C      1  0.5955870000000  0.5275570000000  0.4633050000000 1.0
C      1  0.5664090000000  0.4270240000000  0.5447320000000 1.0
C      1  0.4365390000000  0.5585150000000  0.4287390000000 1.0
C      1  0.4889730000000  0.3984850000000  0.5075980000000 1.0
C      1  0.4833580000000  0.4737110000000  0.5150150000000 1.0
C      1  0.4231420000000  0.4833540000000  0.5375110000000 1.0
C      1  0.5668730000000  0.5083510000000  0.4257070000000 1.0
C      1  0.4471840000000  0.5052240000000  0.5783390000000 1.0
C      1  0.4246360000000  0.4430330000000  0.4778210000000 1.0
C      1  0.4935600000000  0.5854770000000  0.5532510000000 1.0
C      1  0.4435710000000  0.5897740000000  0.5007810000000 1.0
C      1  0.5362830000000  0.5899010000000  0.5269670000000 1.0
C      1  0.4627260000000  0.5661780000000  0.4226440000000 1.0
C      1  0.5827300000000  0.4533170000000  0.4748750000000 1.0
C      1  0.4742780000000  0.4063000000000  0.4849560000000 1.0
C      1  0.5183790000000  0.5557090000000  0.5928340000000 1.0
C      1  0.5202490000000  0.5263250000000  0.5807830000000 1.0
C      1  0.5491910000000  0.4805540000000  0.5473390000000 1.0
C      1  0.5008030000000  0.5081950000000  0.5954620000000 1.0
C      1  0.5688380000000  0.4149160000000  0.5142440000000 1.0
C      1  0.5642550000000  0.5478950000000  0.5217610000000 1.0
C      1  0.5706760000000  0.5673980000000  0.4663720000000 1.0
C      1  0.5196040000000  0.4359050000000  0.5254490000000 1.0
C      1  0.4715410000000  0.4989590000000  0.5306120000000 1.0
C      1  0.5358550000000  0.4248810000000  0.4550850000000 1.0
C      1  0.5167210000000  0.4099540000000  0.5138560000000 1.0
C      1  0.5649260000000  0.5765700000000  0.5229090000000 1.0
C      1  0.5130950000000  0.4153900000000  0.5719600000000 1.0
C      1  0.4893980000000  0.5566530000000  0.4198340000000 1.0
C      1  0.4631210000000  0.4170940000000  0.4614660000000 1.0
C      1  0.5982870000000  0.4765140000000  0.4834340000000 1.0
C      1  0.5557900000000  0.4691560000000  0.5209610000000 1.0
C      1  0.5442110000000  0.5391910000000  0.5052530000000 1.0
C      1  0.4866570000000  0.4351610000000  0.4575320000000 1.0
C      1  0.4235400000000  0.5007870000000  0.4391740000000 1.0
C      1  0.4579660000000  0.4161370000000  0.5463720000000 1.0
C      1  0.5208310000000  0.4705050000000  0.4368120000000 1.0
C      1  0.5664740000000  0.4995830000000  0.5795370000000 1.0
C      1  0.4030510000000  0.5057990000000  0.5358840000000 1.0
C      1  0.5915290000000  0.4997930000000  0.5629480000000 1.0
C      1  0.4168820000000  0.4604660000000  0.5210910000000 1.0
C      1  0.4671580000000  0.5250510000000  0.4845110000000 1.0
C      1  0.5223170000000  0.5558510000000  0.4953900000000 1.0
C      1  0.5516650000000  0.5235110000000  0.5800810000000 1.0
C      1  0.5042210000000  0.4885780000000  0.4483350000000 1.0
C      1  0.5586480000000  0.5507440000000  0.5708250000000 1.0
C      1  0.4156640000000  0.5304370000000  0.5444840000000 1.0
C      1  0.4973560000000  0.5572010000000  0.5109930000000 1.0
C      1  0.4477860000000  0.4582370000000  0.5703190000000 1.0
C      1  0.4829820000000  0.4550260000000  0.4797200000000 1.0
C      1  0.4005310000000  0.4757490000000  0.5024680000000 1.0
C      1  0.5570910000000  0.5489730000000  0.4477950000000 1.0
C      1  0.4331710000000  0.5697460000000  0.5196380000000 1.0
C      1  0.5729250000000  0.4438720000000  0.5658630000000 1.0
C      1  0.5439490000000  0.4031250000000  0.5037890000000 1.0
C      1  0.4906670000000  0.4815840000000  0.4881170000000 1.0
C      1  0.3958290000000  0.5042080000000  0.5084250000000 1.0
C      1  0.5458510000000  0.4435490000000  0.5312630000000 1.0
C      1  0.4751430000000  0.5700800000000  0.5702000000000 1.0
C      1  0.5362650000000  0.5691960000000  0.5743520000000 1.0
C      1  0.4830010000000  0.4461470000000  0.5878820000000 1.0
C      1  0.4824170000000  0.4718680000000  0.5984750000000 1.0
C      1  0.4801620000000  0.5282360000000  0.4153030000000 1.0
C      1  0.5551700000000  0.4690180000000  0.5758200000000 1.0
C      1  0.5228560000000  0.4998200000000  0.4024370000000 1.0
C      1  0.4674550000000  0.4523330000000  0.5036070000000 1.0
C      1  0.4456750000000  0.4974000000000  0.5176770000000 1.0
C      1  0.5116420000000  0.4394470000000  0.5855810000000 1.0
C      1  0.4610600000000  0.4353390000000  0.5721570000000 1.0
C      1  0.4734090000000  0.4985570000000  0.5910500000000 1.0
C      1  0.5295450000000  0.5806650000000  0.4813970000000 1.0
C      1  0.5224970000000  0.5995860000000  0.5031300000000 1.0
C      1  0.5783780000000  0.5313030000000  0.4397980000000 1.0
C      1  0.4749670000000  0.4900980000000  0.4441160000000 1.0
C      1  0.4352110000000  0.4246880000000  0.5312350000000 1.0
C      1  0.4146810000000  0.5468590000000  0.5198410000000 1.0
C      1  0.5092270000000  0.5250550000000  0.5509040000000 1.0
C      1  0.4950470000000  0.6077440000000  0.4936220000000 1.0
C      1  0.4924450000000  0.5092320000000  0.4811860000000 1.0
C      1  0.5093750000000  0.4807470000000  0.6005570000000 1.0
C      1  0.5394490000000  0.5158990000000  0.4196110000000 1.0
C      1  0.5133670000000  0.5597330000000  0.4370960000000 1.0
C      1  0.4380280000000  0.4456300000000  0.5065280000000 1.0
C      1  0.4552560000000  0.5522700000000  0.5274490000000 1.0
C      1  0.5216520000000  0.4814180000000  0.5411850000000 1.0
C      1  0.5303840000000  0.5356570000000  0.4421990000000 1.0
C      1  0.4442780000000  0.4404090000000  0.4576190000000 1.0
C      1  0.4858810000000  0.4309440000000  0.3990250000000 1.0
C      1  0.4370980000000  0.5748390000000  0.4759640000000 1.0
C      1  0.4740250000000  0.4908620000000  0.3935800000000 1.0
C      1  0.5937710000000  0.5517960000000  0.4798710000000 1.0
C      1  0.5750100000000  0.4272420000000  0.4884590000000 1.0
C      1  0.5235580000000  0.5843260000000  0.5521300000000 1.0
C      1  0.4337350000000  0.5288480000000  0.4435770000000 1.0
C      1  0.6028170000000  0.4832100000000  0.5129770000000 1.0
C      1  0.4859950000000  0.5816810000000  0.5250410000000 1.0
C      1  0.4922150000000  0.5645260000000  0.5906750000000 1.0
C      1  0.5352670000000  0.4979340000000  0.4846000000000 1.0
C      1  0.4598000000000  0.5546360000000  0.4704230000000 1.0
C      1  0.4450640000000  0.5035320000000  0.4900400000000 1.0
C      1  0.4615040000000  0.5443080000000  0.5558740000000 1.0
C      1  0.4341200000000  0.4810590000000  0.5674230000000 1.0
C      1  0.4662880000000  0.4509750000000  0.3957230000000 1.0
C      1  0.5955390000000  0.4982960000000  0.4645180000000 1.0
C      1  0.4704230000000  0.6000790000000  0.5078460000000 1.0
C      1  0.4350330000000  0.5789550000000  0.4480440000000 1.0
C      1  0.4947030000000  0.5091990000000  0.3963830000000 1.0
C      1  0.4516580000000  0.4690360000000  0.4468110000000 1.0
C      1  0.5791300000000  0.4873280000000  0.4427510000000 1.0
C      1  0.5869280000000  0.4872120000000  0.5362480000000 1.0
C      1  0.5096090000000  0.4217880000000  0.4435140000000 1.0
C      1  0.5289460000000  0.4625060000000  0.5895240000000 1.0
C      1  0.5791760000000  0.5727180000000  0.4928700000000 1.0
C      1  0.4744280000000  0.5409930000000  0.5092100000000 1.0
C      1  0.4787980000000  0.5734480000000  0.4664320000000 1.0
C      1  0.5176430000000  0.5832000000000  0.4541760000000 1.0
END
