TITL C-884129-4740-169 8.6780383900631 125000 -11791.3286147246 0 0 81 (C1) n - 1
REM
REM in /home/nfs/bkarasulu/CARBON/AIRSS/Generating-Clusters/ReaxFF-fromJPCA2015/Units_Real/with-SteepDescent/Only-C1/SD-CG/Try1-3A/FIRE-CG
REM
REM
REM
REM
REM
REM ./C.cell (11c1c37f851c82e70ff6c80c92926a4b)
REM
REM compiler GCC version 9.2.1 20190827 (Red Hat 9.2.1-1)
REM options -cpp -mtune=generic -march=x86-64 -g -O0 -fpre-include=/usr/include/finclude/math-vector-fortran.h
REM seed -984072167 1806699564 -242576706 -1261894536 -1006973195 -1982019460 1267097983 2132927693 -815867930 1594782657 -971491766 1356524930 670978066 -135418551 -72989633 114829728 -107982273 336755500 -1861414045 -1647362680 921832189 1706665936 -111994815 -29333930 91379214 281422844 -1080532485 1401938160 1473107858 1771594307 -985578620 -769708112 -27818947
REM
CELL 1.54180   50.00000   50.00000   50.00000   90.00000   90.00000   90.00000
LATT -1
SFAC C  
C      1  0.5021000000000  0.5324570000000  0.4369550000000 1.0
C      1  0.4539660000000  0.5542930000000  0.5524680000000 1.0
C      1  0.4693250000000  0.4592390000000  0.5037750000000 1.0
C      1  0.4487190000000  0.4709610000000  0.4411630000000 1.0
C      1  0.5371300000000  0.4815140000000  0.5617670000000 1.0
C      1  0.5552890000000  0.4707200000000  0.4633770000000 1.0
C      1  0.5300220000000  0.4744120000000  0.4474150000000 1.0
C      1  0.4415650000000  0.5156880000000  0.5335720000000 1.0
C      1  0.4875550000000  0.5273450000000  0.5793160000000 1.0
C      1  0.4618840000000  0.5814820000000  0.5459880000000 1.0
C      1  0.4597020000000  0.5437870000000  0.4641560000000 1.0
C      1  0.5203990000000  0.5577360000000  0.4780000000000 1.0
C      1  0.4540690000000  0.5894740000000  0.5187160000000 1.0
C      1  0.5452160000000  0.5621830000000  0.4950470000000 1.0
C      1  0.5466350000000  0.4569120000000  0.5471650000000 1.0
C      1  0.4737030000000  0.4640000000000  0.4263540000000 1.0
C      1  0.5574290000000  0.4601850000000  0.5202990000000 1.0
C      1  0.4966310000000  0.5762900000000  0.4839730000000 1.0
C      1  0.4978860000000  0.4470680000000  0.4325860000000 1.0
C      1  0.4642820000000  0.5002120000000  0.4727110000000 1.0
C      1  0.5374420000000  0.4251360000000  0.4633320000000 1.0
C      1  0.4597640000000  0.5243540000000  0.4386840000000 1.0
C      1  0.4247650000000  0.5267780000000  0.4986060000000 1.0
C      1  0.4761130000000  0.5354970000000  0.5113450000000 1.0
C      1  0.5245500000000  0.5483270000000  0.5374380000000 1.0
C      1  0.4607170000000  0.5322210000000  0.5710810000000 1.0
C      1  0.4693990000000  0.5714450000000  0.4745790000000 1.0
C      1  0.4523970000000  0.5403990000000  0.5269360000000 1.0
C      1  0.5382050000000  0.5005500000000  0.4334340000000 1.0
C      1  0.5167780000000  0.5316640000000  0.4985200000000 1.0
C      1  0.4316710000000  0.4749530000000  0.5150410000000 1.0
C      1  0.4896290000000  0.5099170000000  0.5521630000000 1.0
C      1  0.5061730000000  0.4702780000000  0.4668460000000 1.0
C      1  0.4593100000000  0.4504810000000  0.5305130000000 1.0
C      1  0.5119410000000  0.4525450000000  0.5193510000000 1.0
C      1  0.5469570000000  0.5338700000000  0.5507300000000 1.0
C      1  0.5293460000000  0.5696620000000  0.5186460000000 1.0
C      1  0.4786950000000  0.4314680000000  0.4993820000000 1.0
C      1  0.5098060000000  0.4256210000000  0.5279410000000 1.0
C      1  0.5689770000000  0.4847290000000  0.5093750000000 1.0
C      1  0.4816190000000  0.5933130000000  0.5275140000000 1.0
C      1  0.5750710000000  0.5292290000000  0.5406580000000 1.0
C      1  0.4480130000000  0.5750890000000  0.4935320000000 1.0
C      1  0.4316610000000  0.4605140000000  0.4900710000000 1.0
C      1  0.4795730000000  0.4275090000000  0.5281180000000 1.0
C      1  0.5004940000000  0.4243610000000  0.4825100000000 1.0
C      1  0.5097280000000  0.4869780000000  0.4891890000000 1.0
C      1  0.5028690000000  0.5306180000000  0.5254620000000 1.0
C      1  0.5285120000000  0.4221140000000  0.4916360000000 1.0
C      1  0.5820290000000  0.5326880000000  0.5143110000000 1.0
C      1  0.4903570000000  0.4857420000000  0.4179800000000 1.0
C      1  0.5652120000000  0.4911110000000  0.4810640000000 1.0
C      1  0.5129670000000  0.4468350000000  0.5700290000000 1.0
C      1  0.4234980000000  0.5026070000000  0.5162290000000 1.0
C      1  0.5294130000000  0.4332170000000  0.5518520000000 1.0
C      1  0.5350840000000  0.5003400000000  0.4080750000000 1.0
C      1  0.5450890000000  0.5069520000000  0.5572100000000 1.0
C      1  0.4779310000000  0.4748990000000  0.4679250000000 1.0
C      1  0.4839470000000  0.5159390000000  0.4246170000000 1.0
C      1  0.5509470000000  0.4402460000000  0.4997840000000 1.0
C      1  0.5815520000000  0.5063320000000  0.5241400000000 1.0
C      1  0.5225300000000  0.5453010000000  0.4494470000000 1.0
C      1  0.4729770000000  0.5255040000000  0.4841130000000 1.0
C      1  0.5408600000000  0.5219070000000  0.4555390000000 1.0
C      1  0.5649250000000  0.5405180000000  0.4929280000000 1.0
C      1  0.4528980000000  0.4580950000000  0.4673680000000 1.0
C      1  0.4602700000000  0.5025490000000  0.5502690000000 1.0
C      1  0.4629560000000  0.4615690000000  0.5759010000000 1.0
C      1  0.5038070000000  0.5838450000000  0.5105020000000 1.0
C      1  0.5623970000000  0.5190850000000  0.4743390000000 1.0
C      1  0.5565490000000  0.4445050000000  0.4723020000000 1.0
C      1  0.5212650000000  0.5122420000000  0.4817720000000 1.0
C      1  0.5052230000000  0.4855660000000  0.5586390000000 1.0
C      1  0.4516740000000  0.4719460000000  0.5504620000000 1.0
C      1  0.4340550000000  0.5499400000000  0.4843570000000 1.0
C      1  0.4474690000000  0.4998280000000  0.4484070000000 1.0
C      1  0.5088640000000  0.4309560000000  0.4553370000000 1.0
C      1  0.4870570000000  0.4828810000000  0.5075980000000 1.0
C      1  0.4929250000000  0.4641510000000  0.5784810000000 1.0
C      1  0.5055000000000  0.4780820000000  0.5291310000000 1.0
C      1  0.5140900000000  0.4690470000000  0.4224560000000 1.0
END
