TITL C-883734-4173-228 -0.381452236127763 125000 -2828.04546231311 0 0 21 (C1) n - 1
REM
REM in /home/nfs/bkarasulu/CARBON/AIRSS/Generating-Clusters/ReaxFF-fromJPCA2015/Units_Real/with-SteepDescent/Only-C1/SD-CG/Try1-3A/FIRE-CG
REM
REM
REM
REM
REM
REM ./C.cell (11c1c37f851c82e70ff6c80c92926a4b)
REM
REM compiler GCC version 9.2.1 20190827 (Red Hat 9.2.1-1)
REM options -cpp -mtune=generic -march=x86-64 -g -O0 -fpre-include=/usr/include/finclude/math-vector-fortran.h
REM seed 1183494548 -1685274616 -1609918782 -1822597070 1705971672 -312622693 94969187 -161768088 1317462141 1893222817 -1634006570 -1234473101 -38704681 -2061044444 67403026 2062453685 59431859 345233263 1441806383 947528451 148815263 2033594868 -1025159967 -325915086 -2015082540 -18156202 1482316982 1301230418 -1104096701 -216982876 -1338220210 -1768991462 383986531
REM
CELL 1.54180   50.00000   50.00000   50.00000   90.00000   90.00000   90.00000
LATT -1
SFAC C  
C      1  0.5103620000000  0.4975670000000  0.5136740000000 1.0
C      1  0.4813420000000  0.5457820000000  0.5245740000000 1.0
C      1  0.5165620000000  0.5251680000000  0.5130740000000 1.0
C      1  0.4655640000000  0.5259340000000  0.5341790000000 1.0
C      1  0.4983560000000  0.4944500000000  0.4681500000000 1.0
C      1  0.4896660000000  0.4734710000000  0.4476600000000 1.0
C      1  0.4401900000000  0.5196500000000  0.5454940000000 1.0
C      1  0.5347340000000  0.4904460000000  0.4964120000000 1.0
C      1  0.4863070000000  0.4577610000000  0.4929920000000 1.0
C      1  0.5326850000000  0.5333860000000  0.4656610000000 1.0
C      1  0.5479160000000  0.5402430000000  0.4454230000000 1.0
C      1  0.5106630000000  0.5524670000000  0.5113390000000 1.0
C      1  0.5089140000000  0.4494940000000  0.5102950000000 1.0
C      1  0.4512310000000  0.4891900000000  0.5461570000000 1.0
C      1  0.5348940000000  0.4606030000000  0.5011280000000 1.0
C      1  0.4951620000000  0.4624980000000  0.5344260000000 1.0
C      1  0.4829480000000  0.4494470000000  0.4638550000000 1.0
C      1  0.5257550000000  0.5031680000000  0.4714950000000 1.0
C      1  0.4885160000000  0.4870880000000  0.4948560000000 1.0
C      1  0.5205260000000  0.5559080000000  0.4844800000000 1.0
C      1  0.4777070000000  0.4862780000000  0.5346800000000 1.0
END
