TITL C-883729-9652-203 57.6995727646298 125000 -27967.312563249 0 0 189 (C1) n - 1
REM
REM in /home/nfs/bkarasulu/CARBON/AIRSS/Generating-Clusters/ReaxFF-fromJPCA2015/Units_Real/with-SteepDescent/Only-C1/SD-CG/Try1-3A/FIRE-CG
REM
REM
REM
REM
REM
REM ./C.cell (11c1c37f851c82e70ff6c80c92926a4b)
REM
REM compiler GCC version 9.2.1 20190827 (Red Hat 9.2.1-1)
REM options -cpp -mtune=generic -march=x86-64 -g -O0 -fpre-include=/usr/include/finclude/math-vector-fortran.h
REM seed 1456053557 -110046984 1343386043 72661646 -777746682 -737897987 530465742 148477916 652971997 752971008 502423493 -592795944 185098038 1471376880 -890752166 -2097247337 -31229359 -738524417 -1492531261 -2061481369 -252937628 -1859325240 2137114483 -1029868147 -783585390 20368324 1013501592 771147856 671000724 1682550869 -2128906545 -438250427 -965218120
REM
CELL 1.54180   50.00000   50.00000   50.00000   90.00000   90.00000   90.00000
LATT -1
SFAC C  
C      1  0.5281390000000  0.5326390000000  0.4877360000000 1.0
C      1  0.4415540000000  0.5173240000000  0.5314410000000 1.0
C      1  0.4375810000000  0.4894620000000  0.4766100000000 1.0
C      1  0.4723120000000  0.5085930000000  0.6164310000000 1.0
C      1  0.5089310000000  0.4451360000000  0.5498690000000 1.0
C      1  0.5378590000000  0.3833890000000  0.5318630000000 1.0
C      1  0.5818330000000  0.4909780000000  0.4917230000000 1.0
C      1  0.6040180000000  0.5351420000000  0.4919390000000 1.0
C      1  0.5364700000000  0.4451040000000  0.4922860000000 1.0
C      1  0.3939620000000  0.4803400000000  0.5415570000000 1.0
C      1  0.5946020000000  0.5487190000000  0.4677420000000 1.0
C      1  0.5102680000000  0.5442760000000  0.4012780000000 1.0
C      1  0.4853410000000  0.4907890000000  0.5768700000000 1.0
C      1  0.4576470000000  0.4810710000000  0.5117580000000 1.0
C      1  0.6017580000000  0.4804400000000  0.4715820000000 1.0
C      1  0.5241610000000  0.5650330000000  0.5665550000000 1.0
C      1  0.4941150000000  0.4420110000000  0.5246670000000 1.0
C      1  0.5239990000000  0.5810040000000  0.4304800000000 1.0
C      1  0.5351990000000  0.5457150000000  0.5489940000000 1.0
C      1  0.5805250000000  0.5691130000000  0.4828510000000 1.0
C      1  0.4612740000000  0.5559520000000  0.6022760000000 1.0
C      1  0.3907490000000  0.4912670000000  0.4936300000000 1.0
C      1  0.5665010000000  0.5205140000000  0.5959640000000 1.0
C      1  0.5869410000000  0.5347890000000  0.4425320000000 1.0
C      1  0.5774580000000  0.5566040000000  0.5593630000000 1.0
C      1  0.4497330000000  0.4690790000000  0.4552530000000 1.0
C      1  0.5855370000000  0.5702380000000  0.5123670000000 1.0
C      1  0.4952260000000  0.4950740000000  0.4267760000000 1.0
C      1  0.4788050000000  0.3989690000000  0.4578500000000 1.0
C      1  0.5792780000000  0.4057360000000  0.5080030000000 1.0
C      1  0.4953690000000  0.5759350000000  0.5648180000000 1.0
C      1  0.5771360000000  0.5037540000000  0.4337360000000 1.0
C      1  0.5036680000000  0.4238080000000  0.4849170000000 1.0
C      1  0.4160930000000  0.4850550000000  0.5610420000000 1.0
C      1  0.4125110000000  0.4489180000000  0.5075870000000 1.0
C      1  0.5836770000000  0.4521540000000  0.4414510000000 1.0
C      1  0.6181080000000  0.5069650000000  0.5439280000000 1.0
C      1  0.5313000000000  0.4042550000000  0.5679160000000 1.0
C      1  0.5031340000000  0.5137820000000  0.5739240000000 1.0
C      1  0.5795310000000  0.5544960000000  0.4229750000000 1.0
C      1  0.5364890000000  0.4292910000000  0.5530920000000 1.0
C      1  0.4951570000000  0.4720090000000  0.4816080000000 1.0
C      1  0.5609780000000  0.5297420000000  0.3946300000000 1.0
C      1  0.4409310000000  0.3917630000000  0.4927700000000 1.0
C      1  0.4038820000000  0.5312520000000  0.4639870000000 1.0
C      1  0.4564330000000  0.5240170000000  0.4220790000000 1.0
C      1  0.3937150000000  0.5019740000000  0.5209180000000 1.0
C      1  0.5922380000000  0.4794920000000  0.4438170000000 1.0
C      1  0.3874810000000  0.5439040000000  0.4826640000000 1.0
C      1  0.5418310000000  0.5898430000000  0.5310500000000 1.0
C      1  0.4909140000000  0.4246710000000  0.4598990000000 1.0
C      1  0.3990030000000  0.5673580000000  0.4942750000000 1.0
C      1  0.5301660000000  0.5647550000000  0.4069900000000 1.0
C      1  0.4977930000000  0.6089440000000  0.5064560000000 1.0
C      1  0.5626180000000  0.4784820000000  0.5080760000000 1.0
C      1  0.3856630000000  0.5155320000000  0.4786260000000 1.0
C      1  0.5118690000000  0.3978310000000  0.4953380000000 1.0
C      1  0.5097470000000  0.4675890000000  0.4269160000000 1.0
C      1  0.4864790000000  0.5295440000000  0.5510330000000 1.0
C      1  0.4518130000000  0.4336690000000  0.4953100000000 1.0
C      1  0.5847120000000  0.4225520000000  0.5322580000000 1.0
C      1  0.4231290000000  0.4589440000000  0.5726720000000 1.0
C      1  0.4688070000000  0.4247730000000  0.5728180000000 1.0
C      1  0.5788170000000  0.5190750000000  0.4949390000000 1.0
C      1  0.4320080000000  0.4163790000000  0.5090550000000 1.0
C      1  0.4757890000000  0.5523660000000  0.4572430000000 1.0
C      1  0.5164170000000  0.5867880000000  0.5138100000000 1.0
C      1  0.5599210000000  0.4387120000000  0.5381740000000 1.0
C      1  0.4580250000000  0.5749620000000  0.5353780000000 1.0
C      1  0.4597930000000  0.5513670000000  0.4967260000000 1.0
C      1  0.5339140000000  0.4714640000000  0.4488630000000 1.0
C      1  0.4579000000000  0.5282280000000  0.5561050000000 1.0
C      1  0.4074570000000  0.5023310000000  0.4356780000000 1.0
C      1  0.4760110000000  0.4992800000000  0.3882970000000 1.0
C      1  0.4584150000000  0.5252220000000  0.5043340000000 1.0
C      1  0.4351850000000  0.5837710000000  0.4589660000000 1.0
C      1  0.4385950000000  0.5904520000000  0.4864720000000 1.0
C      1  0.4486830000000  0.4195920000000  0.5336470000000 1.0
C      1  0.4844860000000  0.5618530000000  0.5408540000000 1.0
C      1  0.5198360000000  0.4926690000000  0.5274880000000 1.0
C      1  0.6004610000000  0.4454760000000  0.5304200000000 1.0
C      1  0.4937390000000  0.4344090000000  0.5765810000000 1.0
C      1  0.4353200000000  0.5415880000000  0.4280950000000 1.0
C      1  0.5171210000000  0.5167500000000  0.4146340000000 1.0
C      1  0.4487900000000  0.4239590000000  0.4429950000000 1.0
C      1  0.5445980000000  0.4480410000000  0.4025530000000 1.0
C      1  0.5579730000000  0.5821460000000  0.4681090000000 1.0
C      1  0.4928190000000  0.4434070000000  0.4316880000000 1.0
C      1  0.5583060000000  0.3850180000000  0.5122870000000 1.0
C      1  0.4695030000000  0.4560110000000  0.3984840000000 1.0
C      1  0.4997060000000  0.6047180000000  0.4552610000000 1.0
C      1  0.4770780000000  0.4772730000000  0.4625000000000 1.0
C      1  0.5450970000000  0.4816240000000  0.5918350000000 1.0
C      1  0.4927300000000  0.4491790000000  0.5945050000000 1.0
C      1  0.5325850000000  0.4174700000000  0.4538300000000 1.0
C      1  0.6095520000000  0.4552850000000  0.4832920000000 1.0
C      1  0.5392830000000  0.3873960000000  0.4896340000000 1.0
C      1  0.4068000000000  0.4562340000000  0.5346160000000 1.0
C      1  0.6001640000000  0.5358060000000  0.5442420000000 1.0
C      1  0.5261600000000  0.4920810000000  0.5710900000000 1.0
C      1  0.5722980000000  0.4746340000000  0.5804250000000 1.0
C      1  0.4190830000000  0.5510370000000  0.5672040000000 1.0
C      1  0.5913740000000  0.4388340000000  0.4684420000000 1.0
C      1  0.4996810000000  0.5614860000000  0.5106320000000 1.0
C      1  0.4521240000000  0.4520990000000  0.5707820000000 1.0
C      1  0.5340490000000  0.5218640000000  0.4401330000000 1.0
C      1  0.4037440000000  0.4546810000000  0.4571070000000 1.0
C      1  0.4719900000000  0.5282250000000  0.3954000000000 1.0
C      1  0.4336330000000  0.5461760000000  0.5902600000000 1.0
C      1  0.4133250000000  0.5839790000000  0.4762050000000 1.0
C      1  0.4355410000000  0.4727340000000  0.5002520000000 1.0
C      1  0.5351440000000  0.4976890000000  0.3981310000000 1.0
C      1  0.4473100000000  0.5722830000000  0.5083680000000 1.0
C      1  0.5335260000000  0.5521420000000  0.5906410000000 1.0
C      1  0.4431560000000  0.5198390000000  0.5808240000000 1.0
C      1  0.5358720000000  0.5699520000000  0.4546760000000 1.0
C      1  0.5314690000000  0.5427660000000  0.4595850000000 1.0
C      1  0.5560920000000  0.4517460000000  0.5118960000000 1.0
C      1  0.5332720000000  0.6317510000000  0.4758070000000 1.0
C      1  0.4686070000000  0.3881290000000  0.4849770000000 1.0
C      1  0.5065900000000  0.4474870000000  0.4993590000000 1.0
C      1  0.4093690000000  0.4748630000000  0.4349760000000 1.0
C      1  0.5104130000000  0.5326330000000  0.6010170000000 1.0
C      1  0.5698130000000  0.5731210000000  0.5370560000000 1.0
C      1  0.4910290000000  0.5002680000000  0.4541580000000 1.0
C      1  0.4807910000000  0.5624200000000  0.4834640000000 1.0
C      1  0.4922710000000  0.4748470000000  0.5993870000000 1.0
C      1  0.5157560000000  0.4899680000000  0.4702510000000 1.0
C      1  0.5579450000000  0.5569160000000  0.4005510000000 1.0
C      1  0.4884350000000  0.3857870000000  0.5080380000000 1.0
C      1  0.4417400000000  0.4697960000000  0.5934130000000 1.0
C      1  0.4498370000000  0.5644670000000  0.4406430000000 1.0
C      1  0.4668140000000  0.4803190000000  0.5556990000000 1.0
C      1  0.5452710000000  0.6061960000000  0.4713680000000 1.0
C      1  0.5792610000000  0.5035240000000  0.5752260000000 1.0
C      1  0.4357120000000  0.4702450000000  0.4306530000000 1.0
C      1  0.4409970000000  0.4922580000000  0.5477900000000 1.0
C      1  0.5530480000000  0.4032410000000  0.4692380000000 1.0
C      1  0.4060540000000  0.5495880000000  0.5424490000000 1.0
C      1  0.4674290000000  0.4357320000000  0.5193480000000 1.0
C      1  0.5153660000000  0.3856150000000  0.5481220000000 1.0
C      1  0.5353240000000  0.6124530000000  0.5400130000000 1.0
C      1  0.5318380000000  0.5053150000000  0.4862520000000 1.0
C      1  0.4733830000000  0.5729000000000  0.4223090000000 1.0
C      1  0.4196480000000  0.4313200000000  0.4472200000000 1.0
C      1  0.4656410000000  0.4963230000000  0.4180220000000 1.0
C      1  0.4524060000000  0.5138990000000  0.4789210000000 1.0
C      1  0.4496700000000  0.4974180000000  0.6000030000000 1.0
C      1  0.4875390000000  0.3898220000000  0.5370210000000 1.0
C      1  0.5038340000000  0.6193640000000  0.4777210000000 1.0
C      1  0.4112500000000  0.5239690000000  0.5292040000000 1.0
C      1  0.4686620000000  0.5242750000000  0.4550800000000 1.0
C      1  0.5778100000000  0.4155700000000  0.4807630000000 1.0
C      1  0.4808530000000  0.5360190000000  0.6114670000000 1.0
C      1  0.4908930000000  0.4739770000000  0.3887820000000 1.0
C      1  0.4692650000000  0.4357050000000  0.4204870000000 1.0
C      1  0.6173150000000  0.4831890000000  0.5303610000000 1.0
C      1  0.5383810000000  0.4451210000000  0.4632050000000 1.0
C      1  0.5200190000000  0.5110430000000  0.6190090000000 1.0
C      1  0.5210390000000  0.4739630000000  0.5494430000000 1.0
C      1  0.4108600000000  0.5295430000000  0.4361010000000 1.0
C      1  0.6167290000000  0.4596200000000  0.5135470000000 1.0
C      1  0.5632490000000  0.5035390000000  0.4036380000000 1.0
C      1  0.3973710000000  0.4632560000000  0.4851760000000 1.0
C      1  0.4666560000000  0.4048740000000  0.5510660000000 1.0
C      1  0.4549140000000  0.4388320000000  0.4671510000000 1.0
C      1  0.5545970000000  0.5306980000000  0.5064910000000 1.0
C      1  0.4186750000000  0.5975440000000  0.5294660000000 1.0
C      1  0.6043510000000  0.5492150000000  0.5176490000000 1.0
C      1  0.4830870000000  0.5543530000000  0.4013000000000 1.0
C      1  0.5639470000000  0.4480310000000  0.4211880000000 1.0
C      1  0.4995960000000  0.5327370000000  0.5034550000000 1.0
C      1  0.5215480000000  0.4711410000000  0.3967120000000 1.0
C      1  0.5614680000000  0.5468780000000  0.5838470000000 1.0
C      1  0.5497240000000  0.4977700000000  0.4446310000000 1.0
C      1  0.4485150000000  0.4754400000000  0.4072070000000 1.0
C      1  0.4718820000000  0.6116570000000  0.5190510000000 1.0
C      1  0.4035940000000  0.5738960000000  0.5225510000000 1.0
C      1  0.5398620000000  0.4935360000000  0.5087390000000 1.0
C      1  0.4766220000000  0.4868990000000  0.5279420000000 1.0
C      1  0.4957480000000  0.5897540000000  0.4321210000000 1.0
C      1  0.5781860000000  0.5161000000000  0.5478740000000 1.0
C      1  0.4967750000000  0.4934290000000  0.6207520000000 1.0
C      1  0.4481810000000  0.6027040000000  0.5353570000000 1.0
C      1  0.5519300000000  0.5274830000000  0.5354580000000 1.0
C      1  0.5470640000000  0.5041470000000  0.6109740000000 1.0
C      1  0.5068720000000  0.4035830000000  0.4504510000000 1.0
C      1  0.4787760000000  0.5684390000000  0.5855090000000 1.0
C      1  0.4960390000000  0.5119850000000  0.5248630000000 1.0
END
