TITL C-884139-6216-18 1636447.12339062 125000 -20529.3645087791 0 0 135 (C1) n - 1
REM
REM in /home/nfs/bkarasulu/CARBON/AIRSS/Generating-Clusters/ReaxFF-fromJPCA2015/Units_Real/with-SteepDescent/Only-C1/SD-CG/Try1-3A/FIRE-CG
REM
REM
REM
REM
REM
REM ./C.cell (11c1c37f851c82e70ff6c80c92926a4b)
REM
REM compiler GCC version 9.2.1 20190827 (Red Hat 9.2.1-1)
REM options -cpp -mtune=generic -march=x86-64 -g -O0 -fpre-include=/usr/include/finclude/math-vector-fortran.h
REM seed -1445697170 -2076478548 -1413135205 -1257859218 1664830916 850485487 -1482090704 439922503 1868715255 -1348027756 -106814230 -1248982083 -2104563039 -1796023792 1278259656 570543786 -36616322 -1648532187 -1063744807 -1682289751 -17074895 2064683735 1129745025 2020253313 503362599 -2056224692 -1065177559 -1922155456 -808468298 -1648526407 -2049778688 -1142060396 1502540858
REM
CELL 1.54180   50.00000   50.00000   50.00000   90.00000   90.00000   90.00000
LATT -1
SFAC C  
C      1  0.5381670000000  0.5347740000000  0.4547200000000 1.0
C      1  0.4582890000000  0.4089640000000  0.5370800000000 1.0
C      1  0.4785280000000  0.5345720000000  0.4135500000000 1.0
C      1  0.5413990000000  0.5074190000000  0.4651610000000 1.0
C      1  0.4550130000000  0.4033630000000  0.4700190000000 1.0
C      1  0.5955580000000  0.5125010000000  0.5276770000000 1.0
C      1  0.4256340000000  0.4328280000000  0.5069350000000 1.0
C      1  0.4269010000000  0.4763740000000  0.5520300000000 1.0
C      1  0.5616010000000  0.4982190000000  0.4823660000000 1.0
C      1  0.4838760000000  0.4768830000000  0.5509740000000 1.0
C      1  0.5664690000000  0.4080110000000  0.5157720000000 1.0
C      1  0.4626280000000  0.4454690000000  0.5707690000000 1.0
C      1  0.4795640000000  0.4285210000000  0.5510900000000 1.0
C      1  0.4746180000000  0.4671300000000  0.4345680000000 1.0
C      1  0.5444770000000  0.5190710000000  0.5970540000000 1.0
C      1  0.4686330000000  0.5579510000000  0.5718940000000 1.0
C      1  0.4638420000000  0.4923820000000  0.3954350000000 1.0
C      1  0.5288150000000  0.5103020000000  0.4117900000000 1.0
C      1  0.4102180000000  0.5274600000000  0.5301040000000 1.0
C      1  0.5055820000000  0.3989200000000  0.4732910000000 1.0
C      1  0.4263940000000  0.5536390000000  0.4622430000000 1.0
C      1  0.3943550000000  0.5023940000000  0.5280660000000 1.0
C      1  0.5237600000000  0.4182010000000  0.4621720000000 1.0
C      1  0.5662900000000  0.4242730000000  0.4932160000000 1.0
C      1  0.4469380000000  0.5550010000000  0.5531680000000 1.0
C      1  0.5505230000000  0.4980200000000  0.5086090000000 1.0
C      1  0.4554370000000  0.4533610000000  0.4792850000000 1.0
C      1  0.5546520000000  0.5490040000000  0.5681320000000 1.0
C      1  0.5753990000000  0.5663610000000  0.4757410000000 1.0
C      1  0.5771060000000  0.4557910000000  0.5355010000000 1.0
C      1  0.5778310000000  0.5051700000000  0.5491220000000 1.0
C      1  0.4899100000000  0.5335370000000  0.6050610000000 1.0
C      1  0.5555400000000  0.5214080000000  0.4175790000000 1.0
C      1  0.4661370000000  0.5456750000000  0.5966750000000 1.0
C      1  0.5283300000000  0.4836140000000  0.4234770000000 1.0
C      1  0.4472440000000  0.4690500000000  0.5021430000000 1.0
C      1  0.4983580000000  0.5612940000000  0.5332470000000 1.0
C      1  0.5145200000000  0.4683810000000  0.4689890000000 1.0
C      1  0.5292900000000  0.4445480000000  0.4735700000000 1.0
C      1  0.5303410000000  0.5847370000000  0.4624970000000 1.0
C      1  0.5108230000000  0.4221090000000  0.5537160000000 1.0
C      1  0.5573790000000  0.5264970000000  0.5489250000000 1.0
C      1  0.5041660000000  0.4678530000000  0.5942070000000 1.0
C      1  0.4645120000000  0.5362210000000  0.5119340000000 1.0
C      1  0.4650740000000  0.4495530000000  0.3978200000000 1.0
C      1  0.3849160000000  0.5109730000000  0.5027110000000 1.0
C      1  0.4526760000000  0.4674230000000  0.3791170000000 1.0
C      1  0.4769840000000  0.5780350000000  0.4470700000000 1.0
C      1  0.4755050000000  0.4713970000000  0.5819550000000 1.0
C      1  0.4581760000000  0.4951820000000  0.5049550000000 1.0
C      1  0.5893460000000  0.5316210000000  0.5061300000000 1.0
C      1  0.4916960000000  0.5353610000000  0.4691170000000 1.0
C      1  0.5909550000000  0.5140880000000  0.4805280000000 1.0
C      1  0.4397250000000  0.5031640000000  0.5612500000000 1.0
C      1  0.4461590000000  0.5735440000000  0.5301760000000 1.0
C      1  0.5565200000000  0.4725370000000  0.5806810000000 1.0
C      1  0.5037850000000  0.5839340000000  0.4602960000000 1.0
C      1  0.4253810000000  0.4797570000000  0.4544800000000 1.0
C      1  0.5114960000000  0.5388560000000  0.4571200000000 1.0
C      1  0.4996060000000  0.5141550000000  0.4174760000000 1.0
C      1  0.4887620000000  0.5296720000000  0.4967440000000 1.0
C      1  0.5463250000000  0.5763060000000  0.5600230000000 1.0
C      1  0.4081550000000  0.4770880000000  0.5307500000000 1.0
C      1  0.5189640000000  0.5846420000000  0.5668530000000 1.0
C      1  0.4172650000000  0.5037340000000  0.4393430000000 1.0
C      1  0.5314210000000  0.4326540000000  0.5349510000000 1.0
C      1  0.5613850000000  0.4309950000000  0.5347730000000 1.0
C      1  0.4900440000000  0.4167080000000  0.4325600000000 1.0
C      1  0.4362830000000  0.4272390000000  0.5340950000000 1.0
C      1  0.4652270000000  0.5181720000000  0.6019020000000 1.0
C      1  0.5431670000000  0.5707100000000  0.5096940000000 1.0
C      1  0.4811070000000  0.5018730000000  0.4886970000000 1.0
C      1  0.5583340000000  0.4437190000000  0.4747280000000 1.0
C      1  0.5891540000000  0.5241730000000  0.4513080000000 1.0
C      1  0.5510500000000  0.5828030000000  0.4810430000000 1.0
C      1  0.4311930000000  0.5300130000000  0.5500430000000 1.0
C      1  0.5767650000000  0.5056170000000  0.4319480000000 1.0
C      1  0.5169470000000  0.3835640000000  0.4971260000000 1.0
C      1  0.4840100000000  0.4884150000000  0.4158270000000 1.0
C      1  0.4553210000000  0.5190480000000  0.4041680000000 1.0
C      1  0.5013360000000  0.5822200000000  0.4908510000000 1.0
C      1  0.5741690000000  0.5549300000000  0.5018980000000 1.0
C      1  0.5170820000000  0.6013310000000  0.5432060000000 1.0
C      1  0.4337240000000  0.5225400000000  0.4240550000000 1.0
C      1  0.5384600000000  0.5456230000000  0.5927770000000 1.0
C      1  0.4672850000000  0.5557480000000  0.4312390000000 1.0
C      1  0.5711860000000  0.4766130000000  0.5554860000000 1.0
C      1  0.4400560000000  0.5695800000000  0.4803390000000 1.0
C      1  0.5242970000000  0.4882230000000  0.4526730000000 1.0
C      1  0.4161280000000  0.4621900000000  0.5046140000000 1.0
C      1  0.5302050000000  0.4565240000000  0.5913610000000 1.0
C      1  0.4816030000000  0.4548450000000  0.5335140000000 1.0
C      1  0.4886650000000  0.5038890000000  0.5414650000000 1.0
C      1  0.5804150000000  0.5514490000000  0.4502110000000 1.0
C      1  0.5503600000000  0.4962340000000  0.5895740000000 1.0
C      1  0.4386590000000  0.4500070000000  0.5557820000000 1.0
C      1  0.4444690000000  0.5567100000000  0.5065390000000 1.0
C      1  0.5430940000000  0.3920570000000  0.5071760000000 1.0
C      1  0.5299360000000  0.4805150000000  0.5174640000000 1.0
C      1  0.5743670000000  0.4701910000000  0.4679230000000 1.0
C      1  0.4577740000000  0.4979070000000  0.5831860000000 1.0
C      1  0.5133610000000  0.5607740000000  0.5086160000000 1.0
C      1  0.5570700000000  0.5457080000000  0.4334620000000 1.0
C      1  0.3997790000000  0.5350860000000  0.5030260000000 1.0
C      1  0.5366090000000  0.4423340000000  0.4253810000000 1.0
C      1  0.4080970000000  0.4750650000000  0.4771180000000 1.0
C      1  0.5736230000000  0.4775900000000  0.4382850000000 1.0
C      1  0.5985550000000  0.4665710000000  0.4857570000000 1.0
C      1  0.4813380000000  0.4012570000000  0.4560850000000 1.0
C      1  0.4422900000000  0.4264080000000  0.4834340000000 1.0
C      1  0.5970850000000  0.4643920000000  0.5154130000000 1.0
C      1  0.6097970000000  0.4904440000000  0.5170440000000 1.0
C      1  0.4609780000000  0.5865210000000  0.4698880000000 1.0
C      1  0.5196590000000  0.4206330000000  0.4325640000000 1.0
C      1  0.4401060000000  0.5469560000000  0.4377550000000 1.0
C      1  0.4652430000000  0.5945030000000  0.5221270000000 1.0
C      1  0.4749600000000  0.4398400000000  0.4218920000000 1.0
C      1  0.5213980000000  0.4345310000000  0.5757980000000 1.0
C      1  0.3987840000000  0.5150810000000  0.4586290000000 1.0
C      1  0.4961290000000  0.4767070000000  0.4876720000000 1.0
C      1  0.4980360000000  0.5595380000000  0.5650360000000 1.0
C      1  0.5102130000000  0.5409430000000  0.5862170000000 1.0
C      1  0.4903320000000  0.5894890000000  0.5365060000000 1.0
C      1  0.3892320000000  0.4961780000000  0.4786080000000 1.0
C      1  0.5400630000000  0.5196360000000  0.5259650000000 1.0
C      1  0.4958370000000  0.4560560000000  0.5080300000000 1.0
C      1  0.5162400000000  0.5027480000000  0.5313370000000 1.0
C      1  0.6109930000000  0.4926430000000  0.4887860000000 1.0
C      1  0.4527590000000  0.4686870000000  0.4543470000000 1.0
C      1  0.4630240000000  0.5124120000000  0.5284400000000 1.0
C      1  0.4751820000000  0.5944470000000  0.4945490000000 1.0
C      1  0.4072480000000  0.5373870000000  0.4747600000000 1.0
C      1  0.5426530000000  0.5889260000000  0.5331310000000 1.0
C      1  0.5526850000000  0.4649650000000  0.4212950000000 1.0
C      1  0.5234480000000  0.4522420000000  0.5147020000000 1.0
END
