TITL C-883740-3686-13 2131483.28660531 125000 -14529.2915090413 0 0 98 (C1) n - 1
REM
REM in /home/nfs/bkarasulu/CARBON/AIRSS/Generating-Clusters/ReaxFF-fromJPCA2015/Units_Real/with-SteepDescent/Only-C1/SD-CG/Try1-3A/FIRE-CG
REM
REM
REM
REM
REM
REM ./C.cell (11c1c37f851c82e70ff6c80c92926a4b)
REM
REM compiler GCC version 9.2.1 20190827 (Red Hat 9.2.1-1)
REM options -cpp -mtune=generic -march=x86-64 -g -O0 -fpre-include=/usr/include/finclude/math-vector-fortran.h
REM seed 115814354 2130134677 778851388 711314765 -542147164 -1043329367 1869165028 1286889774 119564953 -1932898503 1754365551 -1797146210 -716657677 -2107150660 -789594748 1791579431 -1199348062 -1675087130 -1585647551 -1026386599 1544720012 1227112341 -1426261127 -1724138869 -1999774418 -946924672 245015115 1422072995 -1405654500 -880286754 -382255945 -696683206 -868858140
REM
CELL 1.54180   50.00000   50.00000   50.00000   90.00000   90.00000   90.00000
LATT -1
SFAC C  
C      1  0.5236860000000  0.4675390000000  0.5211210000000 1.0
C      1  0.4786130000000  0.5826370000000  0.4602130000000 1.0
C      1  0.4368350000000  0.4631890000000  0.4954020000000 1.0
C      1  0.5543780000000  0.5458130000000  0.5362450000000 1.0
C      1  0.4190000000000  0.5674840000000  0.5406500000000 1.0
C      1  0.4926120000000  0.5522790000000  0.5652890000000 1.0
C      1  0.4240110000000  0.4840050000000  0.4516930000000 1.0
C      1  0.5115890000000  0.5023320000000  0.5439040000000 1.0
C      1  0.4764670000000  0.4298000000000  0.4608110000000 1.0
C      1  0.4528690000000  0.4883940000000  0.4985720000000 1.0
C      1  0.5389320000000  0.4844690000000  0.5020560000000 1.0
C      1  0.4293340000000  0.4523940000000  0.5211740000000 1.0
C      1  0.4985350000000  0.5640730000000  0.4529630000000 1.0
C      1  0.5624470000000  0.4427220000000  0.5150050000000 1.0
C      1  0.4305170000000  0.5072360000000  0.5077030000000 1.0
C      1  0.5048470000000  0.5221650000000  0.5295410000000 1.0
C      1  0.5296990000000  0.4777940000000  0.4298330000000 1.0
C      1  0.4625400000000  0.4852690000000  0.4149640000000 1.0
C      1  0.4526040000000  0.4694220000000  0.5618940000000 1.0
C      1  0.5718240000000  0.4965630000000  0.5323610000000 1.0
C      1  0.5481480000000  0.5001250000000  0.4264120000000 1.0
C      1  0.5056810000000  0.5255830000000  0.4080630000000 1.0
C      1  0.5709190000000  0.5624130000000  0.4828570000000 1.0
C      1  0.5338870000000  0.5646480000000  0.5318670000000 1.0
C      1  0.4826440000000  0.5107620000000  0.4579190000000 1.0
C      1  0.4205720000000  0.5000320000000  0.5345020000000 1.0
C      1  0.5016920000000  0.4224790000000  0.4465770000000 1.0
C      1  0.5788100000000  0.5344230000000  0.4890980000000 1.0
C      1  0.4776780000000  0.5311540000000  0.4174300000000 1.0
C      1  0.4386950000000  0.5087660000000  0.4454430000000 1.0
C      1  0.4607930000000  0.4529900000000  0.4539380000000 1.0
C      1  0.5164590000000  0.5463600000000  0.4930560000000 1.0
C      1  0.5162040000000  0.4178450000000  0.4684300000000 1.0
C      1  0.5075840000000  0.5013790000000  0.4702440000000 1.0
C      1  0.5419760000000  0.5483360000000  0.4346030000000 1.0
C      1  0.5334260000000  0.4987590000000  0.5689810000000 1.0
C      1  0.5196710000000  0.4556080000000  0.5726930000000 1.0
C      1  0.5756370000000  0.4702150000000  0.5191690000000 1.0
C      1  0.4551520000000  0.5124540000000  0.4711010000000 1.0
C      1  0.4604860000000  0.5381440000000  0.5332450000000 1.0
C      1  0.4646070000000  0.4921330000000  0.5769460000000 1.0
C      1  0.5183470000000  0.4178590000000  0.5159750000000 1.0
C      1  0.4313980000000  0.4727630000000  0.5421740000000 1.0
C      1  0.4720090000000  0.4902420000000  0.5221450000000 1.0
C      1  0.5330020000000  0.4147260000000  0.4902600000000 1.0
C      1  0.5287060000000  0.5684760000000  0.4511850000000 1.0
C      1  0.4346460000000  0.4597920000000  0.4660050000000 1.0
C      1  0.5686050000000  0.4967800000000  0.4474200000000 1.0
C      1  0.5407920000000  0.4299860000000  0.5316230000000 1.0
C      1  0.4493460000000  0.5759590000000  0.5417020000000 1.0
C      1  0.5674860000000  0.4810050000000  0.4931990000000 1.0
C      1  0.4979320000000  0.4799690000000  0.5299040000000 1.0
C      1  0.5512440000000  0.5341990000000  0.4581080000000 1.0
C      1  0.5641540000000  0.5237770000000  0.5153570000000 1.0
C      1  0.5029830000000  0.5894820000000  0.5010440000000 1.0
C      1  0.5209850000000  0.4363000000000  0.4255020000000 1.0
C      1  0.5714380000000  0.4735060000000  0.4648460000000 1.0
C      1  0.5035070000000  0.5286660000000  0.5792570000000 1.0
C      1  0.4821320000000  0.5871910000000  0.4818720000000 1.0
C      1  0.4867470000000  0.5373050000000  0.4445800000000 1.0
C      1  0.4933540000000  0.4500160000000  0.5697080000000 1.0
C      1  0.4231140000000  0.5165600000000  0.5586070000000 1.0
C      1  0.5194890000000  0.4776730000000  0.4591300000000 1.0
C      1  0.5628490000000  0.4453310000000  0.4623080000000 1.0
C      1  0.5626440000000  0.5043840000000  0.5585160000000 1.0
C      1  0.5575140000000  0.4324050000000  0.4886430000000 1.0
C      1  0.5767550000000  0.5211760000000  0.4621350000000 1.0
C      1  0.4661200000000  0.5119810000000  0.5405470000000 1.0
C      1  0.5336120000000  0.5249490000000  0.4175820000000 1.0
C      1  0.5121860000000  0.4614330000000  0.4128770000000 1.0
C      1  0.4520140000000  0.5504770000000  0.5079180000000 1.0
C      1  0.4735410000000  0.4756240000000  0.4392750000000 1.0
C      1  0.4923820000000  0.5006960000000  0.5835920000000 1.0
C      1  0.4158090000000  0.5397870000000  0.5465970000000 1.0
C      1  0.5277140000000  0.5730960000000  0.5002310000000 1.0
C      1  0.4636870000000  0.5548700000000  0.5574220000000 1.0
C      1  0.5472270000000  0.4368430000000  0.4385020000000 1.0
C      1  0.4547080000000  0.5124040000000  0.4205760000000 1.0
C      1  0.5559170000000  0.5327520000000  0.5622050000000 1.0
C      1  0.5384750000000  0.5135340000000  0.5037400000000 1.0
C      1  0.4977590000000  0.5434990000000  0.5142940000000 1.0
C      1  0.4746010000000  0.4164560000000  0.4882730000000 1.0
C      1  0.4904500000000  0.5758090000000  0.5227200000000 1.0
C      1  0.4402840000000  0.5291310000000  0.4917250000000 1.0
C      1  0.4524850000000  0.5162180000000  0.5664610000000 1.0
C      1  0.5343000000000  0.4544970000000  0.5454710000000 1.0
C      1  0.5452560000000  0.5749040000000  0.4749880000000 1.0
C      1  0.5090790000000  0.5679490000000  0.5464840000000 1.0
C      1  0.4412940000000  0.4250800000000  0.5255390000000 1.0
C      1  0.5143360000000  0.4817870000000  0.5859210000000 1.0
C      1  0.4505290000000  0.4147630000000  0.5010850000000 1.0
C      1  0.4840330000000  0.4670530000000  0.4143840000000 1.0
C      1  0.4611590000000  0.5777600000000  0.5149820000000 1.0
C      1  0.5328310000000  0.5269400000000  0.5795600000000 1.0
C      1  0.4893330000000  0.4206050000000  0.5153250000000 1.0
C      1  0.5281980000000  0.5246050000000  0.4797060000000 1.0
C      1  0.4688910000000  0.4250300000000  0.5363390000000 1.0
C      1  0.4685540000000  0.4437520000000  0.5605070000000 1.0
END
