TITL C-884138-6203-267 0.659904573130246 125000 -2439.23625103698 0 0 18 (C1) n - 1
REM
REM in /home/nfs/bkarasulu/CARBON/AIRSS/Generating-Clusters/ReaxFF-fromJPCA2015/Units_Real/with-SteepDescent/Only-C1/SD-CG/Try1-3A/FIRE-CG
REM
REM
REM
REM
REM
REM ./C.cell (11c1c37f851c82e70ff6c80c92926a4b)
REM
REM compiler GCC version 9.2.1 20190827 (Red Hat 9.2.1-1)
REM options -cpp -mtune=generic -march=x86-64 -g -O0 -fpre-include=/usr/include/finclude/math-vector-fortran.h
REM seed -1208324318 1172565158 -1215401780 -891386812 -2118491022 -1499385799 -1679847263 -405442421 1857841418 1444815195 -1027332155 232948817 724617572 -2082878317 1351838095 -964951499 -880192986 -31723942 912542622 -1213946774 1663080533 -527079654 -76738376 1546267834 1105504072 -1371879853 -214620937 1802079513 -2005378694 2064545857 -425092580 -1699664989 1334388152
REM
CELL 1.54180   50.00000   50.00000   50.00000   90.00000   90.00000   90.00000
LATT -1
SFAC C  
C      1  0.4623290000000  0.4547920000000  0.4970180000000 1.0
C      1  0.4853710000000  0.4731700000000  0.5455580000000 1.0
C      1  0.5016020000000  0.5389290000000  0.5114870000000 1.0
C      1  0.4795550000000  0.4695270000000  0.5170800000000 1.0
C      1  0.4756490000000  0.4888390000000  0.4560850000000 1.0
C      1  0.5389200000000  0.5274400000000  0.4605700000000 1.0
C      1  0.4646600000000  0.4647330000000  0.4690940000000 1.0
C      1  0.4848520000000  0.5169480000000  0.4979600000000 1.0
C      1  0.5039940000000  0.4978030000000  0.5401740000000 1.0
C      1  0.4952640000000  0.4928550000000  0.5105960000000 1.0
C      1  0.5256010000000  0.4782600000000  0.5558840000000 1.0
C      1  0.4720380000000  0.5143260000000  0.4710560000000 1.0
C      1  0.5040070000000  0.4890740000000  0.4429260000000 1.0
C      1  0.5245850000000  0.5466050000000  0.4956530000000 1.0
C      1  0.5070060000000  0.4558940000000  0.5596270000000 1.0
C      1  0.5045820000000  0.5291500000000  0.5386610000000 1.0
C      1  0.5465280000000  0.5532730000000  0.4798050000000 1.0
C      1  0.5234560000000  0.5083820000000  0.4507680000000 1.0
END
