TITL C-883730-8503-218 16.3862360557299 125000 -8480.96118207377 0 0 58 (C1) n - 1
REM
REM in /home/nfs/bkarasulu/CARBON/AIRSS/Generating-Clusters/ReaxFF-fromJPCA2015/Units_Real/with-SteepDescent/Only-C1/SD-CG/Try1-3A/FIRE-CG
REM
REM
REM
REM
REM
REM ./C.cell (11c1c37f851c82e70ff6c80c92926a4b)
REM
REM compiler GCC version 9.2.1 20190827 (Red Hat 9.2.1-1)
REM options -cpp -mtune=generic -march=x86-64 -g -O0 -fpre-include=/usr/include/finclude/math-vector-fortran.h
REM seed 812061557 -1302068596 -526166890 -1176253213 1286282658 -219532557 538591376 315315042 -928147007 1861049933 1081689858 -1110250766 -1392205763 -1432154812 447270396 811172259 -768390747 -389869953 -578956593 1058689539 -1302312836 -1469008614 -931063382 -1859534073 -925748403 -1016742029 1469900019 1470342784 -1816733215 1980931088 -1483831155 146364223 -1627813169
REM
CELL 1.54180   50.00000   50.00000   50.00000   90.00000   90.00000   90.00000
LATT -1
SFAC C  
C      1  0.5287240000000  0.4785150000000  0.5530880000000 1.0
C      1  0.4758930000000  0.4519580000000  0.4579400000000 1.0
C      1  0.4568650000000  0.5316560000000  0.5620930000000 1.0
C      1  0.4424760000000  0.4887180000000  0.4609040000000 1.0
C      1  0.5244030000000  0.5358980000000  0.5120410000000 1.0
C      1  0.5793980000000  0.4638260000000  0.4715420000000 1.0
C      1  0.5170770000000  0.4495480000000  0.5130060000000 1.0
C      1  0.4913490000000  0.5030770000000  0.4974420000000 1.0
C      1  0.5060700000000  0.4993970000000  0.4754230000000 1.0
C      1  0.5263660000000  0.5376120000000  0.4573770000000 1.0
C      1  0.5020960000000  0.5205380000000  0.4578580000000 1.0
C      1  0.5550850000000  0.5315530000000  0.5210150000000 1.0
C      1  0.4693440000000  0.5696520000000  0.4739870000000 1.0
C      1  0.4821050000000  0.4860740000000  0.5581490000000 1.0
C      1  0.4535500000000  0.4611110000000  0.5298130000000 1.0
C      1  0.4885690000000  0.4472550000000  0.5470360000000 1.0
C      1  0.5316750000000  0.4860650000000  0.4790270000000 1.0
C      1  0.4751850000000  0.4897650000000  0.4252920000000 1.0
C      1  0.5567950000000  0.5002800000000  0.4797810000000 1.0
C      1  0.4699070000000  0.4597670000000  0.5538210000000 1.0
C      1  0.5152650000000  0.4519060000000  0.5419250000000 1.0
C      1  0.4557750000000  0.5033710000000  0.4391150000000 1.0
C      1  0.4752520000000  0.5269390000000  0.4447200000000 1.0
C      1  0.4937330000000  0.4930130000000  0.5842650000000 1.0
C      1  0.5641390000000  0.5138780000000  0.5428520000000 1.0
C      1  0.4425790000000  0.5016830000000  0.4869660000000 1.0
C      1  0.5276140000000  0.4567050000000  0.4499310000000 1.0
C      1  0.5373320000000  0.4664450000000  0.5008370000000 1.0
C      1  0.5612020000000  0.5242750000000  0.4920810000000 1.0
C      1  0.4854830000000  0.5545410000000  0.5417140000000 1.0
C      1  0.5332890000000  0.4982550000000  0.4250530000000 1.0
C      1  0.5562860000000  0.4848410000000  0.5407580000000 1.0
C      1  0.5220370000000  0.4950450000000  0.5796070000000 1.0
C      1  0.5555280000000  0.4529830000000  0.4578520000000 1.0
C      1  0.4390700000000  0.5126750000000  0.5449290000000 1.0
C      1  0.4976030000000  0.4796950000000  0.4191430000000 1.0
C      1  0.5074380000000  0.5113560000000  0.5182430000000 1.0
C      1  0.5059380000000  0.5196140000000  0.5806820000000 1.0
C      1  0.5361770000000  0.5212470000000  0.4363610000000 1.0
C      1  0.5763840000000  0.4860760000000  0.4917880000000 1.0
C      1  0.4870440000000  0.5648140000000  0.4961110000000 1.0
C      1  0.4373240000000  0.5344950000000  0.5248880000000 1.0
C      1  0.4656750000000  0.4893620000000  0.4995300000000 1.0
C      1  0.4949500000000  0.4469770000000  0.4938510000000 1.0
C      1  0.4694280000000  0.5556440000000  0.4456170000000 1.0
C      1  0.5021770000000  0.4469330000000  0.4655920000000 1.0
C      1  0.5026920000000  0.5587180000000  0.5180180000000 1.0
C      1  0.5617890000000  0.4734240000000  0.5147060000000 1.0
C      1  0.5049660000000  0.4951060000000  0.5413530000000 1.0
C      1  0.4662600000000  0.4593120000000  0.4981120000000 1.0
C      1  0.4448150000000  0.4859490000000  0.5370860000000 1.0
C      1  0.4525340000000  0.4621950000000  0.4690250000000 1.0
C      1  0.4864440000000  0.5349860000000  0.5641060000000 1.0
C      1  0.4495440000000  0.5514420000000  0.4821660000000 1.0
C      1  0.4363290000000  0.5303580000000  0.4954330000000 1.0
C      1  0.5239850000000  0.4717020000000  0.4238990000000 1.0
C      1  0.4553520000000  0.5518530000000  0.5407640000000 1.0
C      1  0.5376350000000  0.5399230000000  0.4842840000000 1.0
END
