TITL C-884127-5181-402 -3.04706632913194 125000 -3971.47486847472 0 0 28 (C1) n - 1
REM
REM in /home/nfs/bkarasulu/CARBON/AIRSS/Generating-Clusters/ReaxFF-fromJPCA2015/Units_Real/with-SteepDescent/Only-C1/SD-CG/Try1-3A/FIRE-CG
REM
REM
REM
REM
REM
REM ./C.cell (11c1c37f851c82e70ff6c80c92926a4b)
REM
REM compiler GCC version 9.2.1 20190827 (Red Hat 9.2.1-1)
REM options -cpp -mtune=generic -march=x86-64 -g -O0 -fpre-include=/usr/include/finclude/math-vector-fortran.h
REM seed 1381799318 46970039 -1599030699 -536497694 -345924245 5498438 -465582814 1183014788 -1819846724 -1085518611 1935904049 -1550130124 -2009405117 531703180 1234605512 627357093 1761360601 420673358 1533090253 -749561953 -1623234424 -268687764 -871532130 1533956684 -1336366895 421539011 243893266 1419967668 -379205809 -1898341626 1340162166 -716186625 1254431511
REM
CELL 1.54180   50.00000   50.00000   50.00000   90.00000   90.00000   90.00000
LATT -1
SFAC C  
C      1  0.4589830000000  0.5000800000000  0.4665100000000 1.0
C      1  0.4352020000000  0.5086770000000  0.4827990000000 1.0
C      1  0.4793630000000  0.4893830000000  0.5065390000000 1.0
C      1  0.5196300000000  0.4493380000000  0.5140730000000 1.0
C      1  0.5262180000000  0.4903960000000  0.5515870000000 1.0
C      1  0.4702840000000  0.4769330000000  0.4816130000000 1.0
C      1  0.5298740000000  0.5193600000000  0.5400220000000 1.0
C      1  0.4608390000000  0.5407880000000  0.5121240000000 1.0
C      1  0.4590140000000  0.4981780000000  0.5258950000000 1.0
C      1  0.4987710000000  0.4957750000000  0.5549240000000 1.0
C      1  0.5160520000000  0.4541050000000  0.4607840000000 1.0
C      1  0.5684180000000  0.5001930000000  0.4368870000000 1.0
C      1  0.5523300000000  0.5118160000000  0.4510440000000 1.0
C      1  0.5074980000000  0.5279950000000  0.5229160000000 1.0
C      1  0.5068350000000  0.5150470000000  0.4737160000000 1.0
C      1  0.5019620000000  0.5076750000000  0.5013480000000 1.0
C      1  0.4416390000000  0.5173210000000  0.5110780000000 1.0
C      1  0.5340820000000  0.5250000000000  0.4671020000000 1.0
C      1  0.4911860000000  0.4391410000000  0.5023140000000 1.0
C      1  0.5227230000000  0.4692420000000  0.5330170000000 1.0
C      1  0.4744670000000  0.5093190000000  0.5489370000000 1.0
C      1  0.4806750000000  0.5342310000000  0.5333460000000 1.0
C      1  0.4797500000000  0.5224350000000  0.4639360000000 1.0
C      1  0.4865650000000  0.4525630000000  0.4767650000000 1.0
C      1  0.4678040000000  0.5373020000000  0.4848280000000 1.0
C      1  0.5502270000000  0.5260240000000  0.5197160000000 1.0
C      1  0.5268320000000  0.4524190000000  0.4861580000000 1.0
C      1  0.5527780000000  0.5292650000000  0.4900220000000 1.0
END
