TITL C-883731-9874-386 -3.1765458865213 125000 -26705.1504487726 0 0 176 (C1) n - 1
REM
REM in /home/nfs/bkarasulu/CARBON/AIRSS/Generating-Clusters/ReaxFF-fromJPCA2015/Units_Real/with-SteepDescent/Only-C1/SD-CG/Try1-3A/FIRE-CG
REM
REM
REM
REM
REM
REM ./C.cell (11c1c37f851c82e70ff6c80c92926a4b)
REM
REM compiler GCC version 9.2.1 20190827 (Red Hat 9.2.1-1)
REM options -cpp -mtune=generic -march=x86-64 -g -O0 -fpre-include=/usr/include/finclude/math-vector-fortran.h
REM seed -1025154671 -1273990788 -443290280 1566588113 -902292610 -930705953 719960417 1514346676 -1246435164 -1049460130 2114409853 1252165467 -1868528863 1882118355 -2128261098 225854142 -895987850 1259454161 1674274778 -1674553832 -793859052 1655924665 -125160890 1695269736 -2067991875 -1296000760 -1911414591 715824225 -741352915 -784191689 521188166 211831164 1352909509
REM
CELL 1.54180   50.00000   50.00000   50.00000   90.00000   90.00000   90.00000
LATT -1
SFAC C  
C      1  0.4901490000000  0.4191480000000  0.4133620000000 1.0
C      1  0.5765930000000  0.5105880000000  0.4278040000000 1.0
C      1  0.5547600000000  0.5750670000000  0.4976180000000 1.0
C      1  0.5546380000000  0.4487470000000  0.5618260000000 1.0
C      1  0.5243750000000  0.5947840000000  0.4540420000000 1.0
C      1  0.4607030000000  0.5209100000000  0.4505660000000 1.0
C      1  0.5186340000000  0.5032940000000  0.6017960000000 1.0
C      1  0.5716140000000  0.5312790000000  0.5804350000000 1.0
C      1  0.5117140000000  0.4936970000000  0.5048490000000 1.0
C      1  0.4441560000000  0.4791660000000  0.4529430000000 1.0
C      1  0.4712350000000  0.4394110000000  0.4281060000000 1.0
C      1  0.5337050000000  0.4912760000000  0.5311300000000 1.0
C      1  0.5559530000000  0.5558280000000  0.5750860000000 1.0
C      1  0.4255780000000  0.5149330000000  0.4834190000000 1.0
C      1  0.4235250000000  0.4394660000000  0.4713140000000 1.0
C      1  0.5607420000000  0.5098600000000  0.4804910000000 1.0
C      1  0.4767190000000  0.6100360000000  0.4703370000000 1.0
C      1  0.5825820000000  0.5160370000000  0.5570120000000 1.0
C      1  0.4576510000000  0.5092000000000  0.5894800000000 1.0
C      1  0.4790600000000  0.3875610000000  0.5073580000000 1.0
C      1  0.5654510000000  0.4116030000000  0.4902260000000 1.0
C      1  0.4845980000000  0.5449580000000  0.6029360000000 1.0
C      1  0.5074070000000  0.5964050000000  0.5644530000000 1.0
C      1  0.5879080000000  0.5364360000000  0.4354950000000 1.0
C      1  0.3988440000000  0.4451750000000  0.5201800000000 1.0
C      1  0.5278690000000  0.5386870000000  0.4788620000000 1.0
C      1  0.5292790000000  0.4432480000000  0.5742920000000 1.0
C      1  0.5487490000000  0.5143410000000  0.4189450000000 1.0
C      1  0.4811450000000  0.4599240000000  0.5235380000000 1.0
C      1  0.4654830000000  0.4183500000000  0.5512900000000 1.0
C      1  0.4965180000000  0.6036860000000  0.4483460000000 1.0
C      1  0.5183100000000  0.5257810000000  0.3918840000000 1.0
C      1  0.4816070000000  0.4336030000000  0.5677110000000 1.0
C      1  0.6025120000000  0.4728760000000  0.4566050000000 1.0
C      1  0.4460690000000  0.5579800000000  0.4284560000000 1.0
C      1  0.4293560000000  0.4489480000000  0.5588600000000 1.0
C      1  0.5325490000000  0.5255800000000  0.6122330000000 1.0
C      1  0.4979300000000  0.3809240000000  0.5508750000000 1.0
C      1  0.5807340000000  0.5603140000000  0.5353930000000 1.0
C      1  0.4647700000000  0.4833950000000  0.4733820000000 1.0
C      1  0.4455690000000  0.4946150000000  0.4942290000000 1.0
C      1  0.6094770000000  0.4692580000000  0.4852420000000 1.0
C      1  0.4440920000000  0.5574970000000  0.5688890000000 1.0
C      1  0.4443510000000  0.4491590000000  0.4208610000000 1.0
C      1  0.4698520000000  0.5889130000000  0.5473510000000 1.0
C      1  0.5521540000000  0.4631880000000  0.4620300000000 1.0
C      1  0.5957500000000  0.4345890000000  0.5146340000000 1.0
C      1  0.5607140000000  0.4873580000000  0.5983190000000 1.0
C      1  0.4050390000000  0.4593660000000  0.5462650000000 1.0
C      1  0.4951100000000  0.5424230000000  0.3968250000000 1.0
C      1  0.5433740000000  0.3875350000000  0.5257080000000 1.0
C      1  0.4357130000000  0.4903970000000  0.5869030000000 1.0
C      1  0.5283300000000  0.4459370000000  0.5091700000000 1.0
C      1  0.4429570000000  0.5387410000000  0.4751350000000 1.0
C      1  0.4932640000000  0.5442150000000  0.5306310000000 1.0
C      1  0.5203510000000  0.3743580000000  0.5303250000000 1.0
C      1  0.5816980000000  0.4872690000000  0.5548370000000 1.0
C      1  0.5204960000000  0.4737100000000  0.4099490000000 1.0
C      1  0.5052530000000  0.4728610000000  0.4356380000000 1.0
C      1  0.4138750000000  0.5653000000000  0.5025140000000 1.0
C      1  0.5588340000000  0.5165040000000  0.6014380000000 1.0
C      1  0.5406950000000  0.4377120000000  0.4600580000000 1.0
C      1  0.5125110000000  0.4961120000000  0.3931930000000 1.0
C      1  0.4388550000000  0.5030910000000  0.4097770000000 1.0
C      1  0.5898290000000  0.4263900000000  0.4867470000000 1.0
C      1  0.4729940000000  0.5252220000000  0.4010500000000 1.0
C      1  0.4059550000000  0.5417190000000  0.5182500000000 1.0
C      1  0.4700830000000  0.5378170000000  0.4290530000000 1.0
C      1  0.5194550000000  0.5429530000000  0.5201360000000 1.0
C      1  0.4173740000000  0.5054510000000  0.5709080000000 1.0
C      1  0.4747370000000  0.5181000000000  0.6087870000000 1.0
C      1  0.5644890000000  0.5507910000000  0.4879990000000 1.0
C      1  0.4239930000000  0.5337270000000  0.5401290000000 1.0
C      1  0.4650220000000  0.4392090000000  0.4924230000000 1.0
C      1  0.5677900000000  0.5291010000000  0.5340980000000 1.0
C      1  0.5341030000000  0.4797590000000  0.6057140000000 1.0
C      1  0.4434010000000  0.4632160000000  0.5799390000000 1.0
C      1  0.4962700000000  0.4925430000000  0.5490540000000 1.0
C      1  0.4227990000000  0.5351940000000  0.5690860000000 1.0
C      1  0.4918650000000  0.4959010000000  0.6067360000000 1.0
C      1  0.5783590000000  0.5624180000000  0.4661950000000 1.0
C      1  0.4549130000000  0.4508280000000  0.5175550000000 1.0
C      1  0.5414500000000  0.5179300000000  0.5450760000000 1.0
C      1  0.4456090000000  0.4338210000000  0.5399930000000 1.0
C      1  0.5564040000000  0.4843580000000  0.5121180000000 1.0
C      1  0.4884160000000  0.5949670000000  0.4930020000000 1.0
C      1  0.4545420000000  0.5834730000000  0.4384770000000 1.0
C      1  0.4442590000000  0.5759330000000  0.5460310000000 1.0
C      1  0.5180320000000  0.4748400000000  0.5517170000000 1.0
C      1  0.5013180000000  0.5435340000000  0.4396500000000 1.0
C      1  0.4465300000000  0.4171310000000  0.4825130000000 1.0
C      1  0.4815380000000  0.5877490000000  0.4293440000000 1.0
C      1  0.4047190000000  0.4888520000000  0.5495260000000 1.0
C      1  0.5660460000000  0.4017060000000  0.5181130000000 1.0
C      1  0.5271230000000  0.5508720000000  0.5795990000000 1.0
C      1  0.5155970000000  0.6009870000000  0.5021540000000 1.0
C      1  0.5177230000000  0.4266920000000  0.4149520000000 1.0
C      1  0.4825270000000  0.5876010000000  0.5751530000000 1.0
C      1  0.5834190000000  0.4842110000000  0.4373170000000 1.0
C      1  0.5368140000000  0.4214740000000  0.4847110000000 1.0
C      1  0.4473730000000  0.5166770000000  0.5416090000000 1.0
C      1  0.4398490000000  0.4729730000000  0.4032540000000 1.0
C      1  0.5694050000000  0.4719370000000  0.5746430000000 1.0
C      1  0.4090620000000  0.4928950000000  0.5209950000000 1.0
C      1  0.4345900000000  0.5806910000000  0.5167130000000 1.0
C      1  0.5631390000000  0.5500180000000  0.4440090000000 1.0
C      1  0.4918600000000  0.4033680000000  0.4368790000000 1.0
C      1  0.6027710000000  0.4462060000000  0.4682800000000 1.0
C      1  0.5006580000000  0.5661470000000  0.4181550000000 1.0
C      1  0.4505480000000  0.5982530000000  0.4657300000000 1.0
C      1  0.4741830000000  0.5331120000000  0.5122230000000 1.0
C      1  0.5080340000000  0.4415420000000  0.5555310000000 1.0
C      1  0.4458240000000  0.5917560000000  0.4930640000000 1.0
C      1  0.5449780000000  0.4578750000000  0.4151710000000 1.0
C      1  0.4686680000000  0.5619550000000  0.5852110000000 1.0
C      1  0.6076270000000  0.5215480000000  0.5019570000000 1.0
C      1  0.4912970000000  0.4678670000000  0.5987990000000 1.0
C      1  0.5743870000000  0.4266170000000  0.5331450000000 1.0
C      1  0.5141070000000  0.5472360000000  0.6054320000000 1.0
C      1  0.4046210000000  0.5164540000000  0.5042580000000 1.0
C      1  0.4912170000000  0.5743170000000  0.5335300000000 1.0
C      1  0.5448110000000  0.5267700000000  0.4609030000000 1.0
C      1  0.6035890000000  0.5480860000000  0.4573350000000 1.0
C      1  0.6004900000000  0.4625080000000  0.5119890000000 1.0
C      1  0.4846530000000  0.4560960000000  0.4779820000000 1.0
C      1  0.4811350000000  0.5042530000000  0.4628120000000 1.0
C      1  0.5057500000000  0.5526430000000  0.4667800000000 1.0
C      1  0.5756520000000  0.4711210000000  0.5275850000000 1.0
C      1  0.5558810000000  0.4479880000000  0.5330080000000 1.0
C      1  0.4045620000000  0.5466690000000  0.4541420000000 1.0
C      1  0.5057440000000  0.4981120000000  0.4493520000000 1.0
C      1  0.5204280000000  0.5224490000000  0.5007360000000 1.0
C      1  0.5184690000000  0.4575900000000  0.5967390000000 1.0
C      1  0.4651560000000  0.5485980000000  0.4921170000000 1.0
C      1  0.4685410000000  0.3953040000000  0.4826020000000 1.0
C      1  0.4147280000000  0.5189430000000  0.4167160000000 1.0
C      1  0.5272090000000  0.5793690000000  0.4288010000000 1.0
C      1  0.4196230000000  0.5459450000000  0.4287320000000 1.0
C      1  0.3964800000000  0.5052080000000  0.4372160000000 1.0
C      1  0.4443870000000  0.5018490000000  0.4377100000000 1.0
C      1  0.5044270000000  0.4415880000000  0.5256570000000 1.0
C      1  0.4845410000000  0.4881400000000  0.5231520000000 1.0
C      1  0.4302250000000  0.4541830000000  0.4473920000000 1.0
C      1  0.4618990000000  0.5076730000000  0.5169270000000 1.0
C      1  0.4860260000000  0.5668210000000  0.4829500000000 1.0
C      1  0.5251080000000  0.5185600000000  0.4393700000000 1.0
C      1  0.5814540000000  0.5816900000000  0.5167550000000 1.0
C      1  0.5571600000000  0.5690760000000  0.5494850000000 1.0
C      1  0.5127580000000  0.4658770000000  0.4936830000000 1.0
C      1  0.4291720000000  0.4738600000000  0.5077740000000 1.0
C      1  0.4926470000000  0.3961750000000  0.4646110000000 1.0
C      1  0.5400740000000  0.4325980000000  0.4303560000000 1.0
C      1  0.4208010000000  0.5590490000000  0.4743500000000 1.0
C      1  0.5238280000000  0.5234210000000  0.5678200000000 1.0
C      1  0.5367330000000  0.5667520000000  0.5253190000000 1.0
C      1  0.4661320000000  0.4752400000000  0.3968910000000 1.0
C      1  0.4655090000000  0.5185230000000  0.5637310000000 1.0
C      1  0.5474510000000  0.5614180000000  0.4203770000000 1.0
C      1  0.4883380000000  0.4524530000000  0.4481790000000 1.0
C      1  0.6135760000000  0.5334940000000  0.4785670000000 1.0
C      1  0.4830040000000  0.4972130000000  0.3929650000000 1.0
C      1  0.4001500000000  0.5184940000000  0.4631630000000 1.0
C      1  0.4111130000000  0.4536790000000  0.4938400000000 1.0
C      1  0.5169980000000  0.3977950000000  0.4817460000000 1.0
C      1  0.4705210000000  0.4537470000000  0.5848310000000 1.0
C      1  0.5606840000000  0.4687070000000  0.4361160000000 1.0
C      1  0.5077100000000  0.3811810000000  0.5032090000000 1.0
C      1  0.5164950000000  0.5895340000000  0.5312840000000 1.0
C      1  0.5342750000000  0.5935830000000  0.4819870000000 1.0
C      1  0.4760950000000  0.3947580000000  0.5376600000000 1.0
C      1  0.4239420000000  0.4100140000000  0.5017990000000 1.0
C      1  0.5433590000000  0.5378250000000  0.4030520000000 1.0
C      1  0.5738400000000  0.5265430000000  0.5016720000000 1.0
C      1  0.4944020000000  0.5211480000000  0.5564550000000 1.0
C      1  0.4069800000000  0.4187110000000  0.5152530000000 1.0
C      1  0.5561020000000  0.4824570000000  0.4836170000000 1.0
END
