TITL C-883731-9874-427 11.292453788679 125000 -27555.3897556029 0 0 182 (C1) n - 1
REM
REM in /home/nfs/bkarasulu/CARBON/AIRSS/Generating-Clusters/ReaxFF-fromJPCA2015/Units_Real/with-SteepDescent/Only-C1/SD-CG/Try1-3A/FIRE-CG
REM
REM
REM
REM
REM
REM ./C.cell (11c1c37f851c82e70ff6c80c92926a4b)
REM
REM compiler GCC version 9.2.1 20190827 (Red Hat 9.2.1-1)
REM options -cpp -mtune=generic -march=x86-64 -g -O0 -fpre-include=/usr/include/finclude/math-vector-fortran.h
REM seed 1460859607 -1796522805 -1260099655 1430693811 -1898695372 1327356317 1922971376 -866629660 -1263649735 407351220 -1609930600 596032888 -421060023 1341888793 -2104608924 1177403710 -1901712261 -1654122092 -2105976217 -349891250 -1423126979 -268176904 2041692419 -1777186868 1295444581 -1516746112 522381512 2040910251 -1211876380 -927730602 1297295040 404444573 1882309436
REM
CELL 1.54180   50.00000   50.00000   50.00000   90.00000   90.00000   90.00000
LATT -1
SFAC C  
C      1  0.5181990000000  0.5674240000000  0.4101210000000 1.0
C      1  0.5230790000000  0.5023410000000  0.4045240000000 1.0
C      1  0.5184670000000  0.4570730000000  0.3993120000000 1.0
C      1  0.4805040000000  0.4776120000000  0.5608050000000 1.0
C      1  0.5845750000000  0.4483050000000  0.5102630000000 1.0
C      1  0.4431940000000  0.4773730000000  0.4699220000000 1.0
C      1  0.4243930000000  0.4725920000000  0.5906380000000 1.0
C      1  0.4181640000000  0.5010120000000  0.5935110000000 1.0
C      1  0.5017580000000  0.5931720000000  0.4773520000000 1.0
C      1  0.4894110000000  0.4085860000000  0.5605680000000 1.0
C      1  0.4652360000000  0.5271400000000  0.6050330000000 1.0
C      1  0.4948580000000  0.5678350000000  0.5646080000000 1.0
C      1  0.4318850000000  0.5762310000000  0.5400570000000 1.0
C      1  0.5092140000000  0.4240140000000  0.4777980000000 1.0
C      1  0.4914610000000  0.3936280000000  0.4427240000000 1.0
C      1  0.4852820000000  0.4793110000000  0.5048730000000 1.0
C      1  0.6036770000000  0.5669040000000  0.4966920000000 1.0
C      1  0.4719460000000  0.6000420000000  0.5327390000000 1.0
C      1  0.4828810000000  0.3921290000000  0.5385040000000 1.0
C      1  0.5890050000000  0.5133410000000  0.5537950000000 1.0
C      1  0.5516030000000  0.5184200000000  0.5949580000000 1.0
C      1  0.5192200000000  0.4313160000000  0.5273660000000 1.0
C      1  0.4004330000000  0.4628180000000  0.4639640000000 1.0
C      1  0.5845770000000  0.4608460000000  0.4394950000000 1.0
C      1  0.4036200000000  0.5008650000000  0.4957180000000 1.0
C      1  0.4921190000000  0.5582160000000  0.5363460000000 1.0
C      1  0.5269450000000  0.5329470000000  0.5952130000000 1.0
C      1  0.5276240000000  0.4695780000000  0.5409440000000 1.0
C      1  0.4633500000000  0.4038200000000  0.4448560000000 1.0
C      1  0.5646430000000  0.4834550000000  0.4101240000000 1.0
C      1  0.4557400000000  0.5952630000000  0.4311540000000 1.0
C      1  0.5586420000000  0.5562500000000  0.4895220000000 1.0
C      1  0.5190770000000  0.5978270000000  0.4513820000000 1.0
C      1  0.4474810000000  0.5371980000000  0.4171690000000 1.0
C      1  0.5349290000000  0.4423970000000  0.5480500000000 1.0
C      1  0.4465060000000  0.4757060000000  0.6104430000000 1.0
C      1  0.6014090000000  0.4581870000000  0.4880510000000 1.0
C      1  0.5954240000000  0.4459830000000  0.4616130000000 1.0
C      1  0.5540950000000  0.5822590000000  0.4808590000000 1.0
C      1  0.5006620000000  0.4687010000000  0.4211400000000 1.0
C      1  0.4785500000000  0.5075110000000  0.4544580000000 1.0
C      1  0.5759010000000  0.5276400000000  0.5767500000000 1.0
C      1  0.4576040000000  0.4003120000000  0.5250030000000 1.0
C      1  0.4724110000000  0.5733880000000  0.4275350000000 1.0
C      1  0.5659650000000  0.4760730000000  0.4386770000000 1.0
C      1  0.5717000000000  0.4552870000000  0.5632220000000 1.0
C      1  0.4433220000000  0.4246200000000  0.5823330000000 1.0
C      1  0.4117630000000  0.5143010000000  0.5686110000000 1.0
C      1  0.5045120000000  0.4900730000000  0.6025480000000 1.0
C      1  0.5026300000000  0.5450160000000  0.3996240000000 1.0
C      1  0.4589960000000  0.4939460000000  0.5499920000000 1.0
C      1  0.4124210000000  0.4370740000000  0.4564950000000 1.0
C      1  0.5388460000000  0.5811020000000  0.5407320000000 1.0
C      1  0.5504250000000  0.4671600000000  0.6092290000000 1.0
C      1  0.5312880000000  0.4364850000000  0.5763310000000 1.0
C      1  0.4454450000000  0.5057430000000  0.6078090000000 1.0
C      1  0.4354850000000  0.4176990000000  0.5306560000000 1.0
C      1  0.4659470000000  0.4369510000000  0.4952880000000 1.0
C      1  0.5096710000000  0.5921760000000  0.4245010000000 1.0
C      1  0.5463890000000  0.5606880000000  0.4117040000000 1.0
C      1  0.4681180000000  0.5063310000000  0.3943310000000 1.0
C      1  0.5776650000000  0.4197640000000  0.5009210000000 1.0
C      1  0.5126740000000  0.5335190000000  0.5325000000000 1.0
C      1  0.5459790000000  0.5893280000000  0.4548720000000 1.0
C      1  0.4598770000000  0.5187240000000  0.5643580000000 1.0
C      1  0.5102850000000  0.4926570000000  0.5026240000000 1.0
C      1  0.5523450000000  0.4950060000000  0.6125510000000 1.0
C      1  0.5946870000000  0.5272940000000  0.4552270000000 1.0
C      1  0.4088090000000  0.4551170000000  0.5145730000000 1.0
C      1  0.4971910000000  0.4970070000000  0.4347950000000 1.0
C      1  0.4978400000000  0.5180480000000  0.5979760000000 1.0
C      1  0.5934180000000  0.5022910000000  0.5050420000000 1.0
C      1  0.4084550000000  0.5470640000000  0.4976460000000 1.0
C      1  0.4925540000000  0.4382930000000  0.5328910000000 1.0
C      1  0.6041490000000  0.5506950000000  0.5213490000000 1.0
C      1  0.4295760000000  0.4282620000000  0.5585950000000 1.0
C      1  0.4849950000000  0.4357950000000  0.5614530000000 1.0
C      1  0.4921820000000  0.3879070000000  0.4937930000000 1.0
C      1  0.4503870000000  0.5978050000000  0.4599870000000 1.0
C      1  0.4723340000000  0.4524190000000  0.4268740000000 1.0
C      1  0.4770800000000  0.4526660000000  0.4562600000000 1.0
C      1  0.5240950000000  0.5270320000000  0.3918510000000 1.0
C      1  0.4477540000000  0.4055650000000  0.4701830000000 1.0
C      1  0.5531430000000  0.5099970000000  0.5281940000000 1.0
C      1  0.4001270000000  0.4725000000000  0.4922530000000 1.0
C      1  0.5035440000000  0.5238890000000  0.5022410000000 1.0
C      1  0.5615180000000  0.5757810000000  0.4331740000000 1.0
C      1  0.5060700000000  0.4868910000000  0.5517360000000 1.0
C      1  0.4584760000000  0.5393760000000  0.4810600000000 1.0
C      1  0.4614580000000  0.4932390000000  0.5020780000000 1.0
C      1  0.5368860000000  0.5574100000000  0.5843440000000 1.0
C      1  0.5045600000000  0.3964380000000  0.4689820000000 1.0
C      1  0.5218480000000  0.4718680000000  0.4648090000000 1.0
C      1  0.4701840000000  0.4219190000000  0.4221340000000 1.0
C      1  0.5576700000000  0.4021160000000  0.5119550000000 1.0
C      1  0.6115530000000  0.4863550000000  0.4883280000000 1.0
C      1  0.5841750000000  0.5689010000000  0.5325980000000 1.0
C      1  0.5559670000000  0.4494290000000  0.5865430000000 1.0
C      1  0.5208120000000  0.4309490000000  0.4131300000000 1.0
C      1  0.4364260000000  0.5728710000000  0.4599200000000 1.0
C      1  0.5512430000000  0.5347010000000  0.3995480000000 1.0
C      1  0.5232010000000  0.5757720000000  0.5651210000000 1.0
C      1  0.4681410000000  0.4563740000000  0.6091020000000 1.0
C      1  0.5874240000000  0.5879540000000  0.5106160000000 1.0
C      1  0.5880780000000  0.5538770000000  0.4739310000000 1.0
C      1  0.4247470000000  0.4481600000000  0.4328940000000 1.0
C      1  0.5818260000000  0.4634060000000  0.5393470000000 1.0
C      1  0.5472740000000  0.4870730000000  0.4640170000000 1.0
C      1  0.4741140000000  0.5343790000000  0.4030630000000 1.0
C      1  0.5023130000000  0.4506060000000  0.4699000000000 1.0
C      1  0.4565480000000  0.4327940000000  0.5998070000000 1.0
C      1  0.4798110000000  0.4524140000000  0.5122840000000 1.0
C      1  0.4467920000000  0.5651590000000  0.5175550000000 1.0
C      1  0.4634610000000  0.5423130000000  0.5261360000000 1.0
C      1  0.5685850000000  0.5132380000000  0.4107200000000 1.0
C      1  0.4172190000000  0.5098820000000  0.5216850000000 1.0
C      1  0.5275690000000  0.4264180000000  0.4999900000000 1.0
C      1  0.4191660000000  0.4833320000000  0.4537810000000 1.0
C      1  0.5413560000000  0.5340750000000  0.4808840000000 1.0
C      1  0.4336650000000  0.5499090000000  0.4413200000000 1.0
C      1  0.5379100000000  0.4788030000000  0.3986270000000 1.0
C      1  0.5706350000000  0.5218460000000  0.4384050000000 1.0
C      1  0.5397790000000  0.4374520000000  0.4343410000000 1.0
C      1  0.5466990000000  0.5108730000000  0.4999640000000 1.0
C      1  0.4899510000000  0.4678880000000  0.5897650000000 1.0
C      1  0.4842350000000  0.5561370000000  0.4468860000000 1.0
C      1  0.5115990000000  0.5944910000000  0.5051960000000 1.0
C      1  0.5442350000000  0.4428230000000  0.4837620000000 1.0
C      1  0.4207900000000  0.4556160000000  0.5655820000000 1.0
C      1  0.4061740000000  0.4963530000000  0.5464150000000 1.0
C      1  0.5370590000000  0.5986830000000  0.5175430000000 1.0
C      1  0.5725280000000  0.4915740000000  0.5436260000000 1.0
C      1  0.4174010000000  0.5522160000000  0.5490000000000 1.0
C      1  0.5617740000000  0.5990700000000  0.5013510000000 1.0
C      1  0.4818960000000  0.5976570000000  0.4180210000000 1.0
C      1  0.5344110000000  0.3907040000000  0.5177970000000 1.0
C      1  0.4876630000000  0.5229420000000  0.5716430000000 1.0
C      1  0.5145060000000  0.5414880000000  0.4828890000000 1.0
C      1  0.5989390000000  0.5212100000000  0.5267300000000 1.0
C      1  0.4512080000000  0.5088540000000  0.5246040000000 1.0
C      1  0.5780520000000  0.4237870000000  0.4717400000000 1.0
C      1  0.4089630000000  0.4677220000000  0.5419520000000 1.0
C      1  0.4214790000000  0.4298660000000  0.5077240000000 1.0
C      1  0.4714170000000  0.6049420000000  0.4798300000000 1.0
C      1  0.4341470000000  0.5359270000000  0.5690900000000 1.0
C      1  0.5637960000000  0.4903400000000  0.4892720000000 1.0
C      1  0.4653050000000  0.4043750000000  0.4959380000000 1.0
C      1  0.5427000000000  0.5354170000000  0.5366590000000 1.0
C      1  0.5308560000000  0.4754170000000  0.5142700000000 1.0
C      1  0.5551970000000  0.5598010000000  0.5255970000000 1.0
C      1  0.4544200000000  0.4505570000000  0.4727900000000 1.0
C      1  0.4633970000000  0.4941530000000  0.4749680000000 1.0
C      1  0.4934600000000  0.5840850000000  0.5239230000000 1.0
C      1  0.4552050000000  0.5874820000000  0.5539960000000 1.0
C      1  0.5045190000000  0.5147870000000  0.5520820000000 1.0
C      1  0.4359500000000  0.5594080000000  0.4892240000000 1.0
C      1  0.4025230000000  0.5254380000000  0.4794980000000 1.0
C      1  0.5014600000000  0.5630710000000  0.4687700000000 1.0
C      1  0.4443350000000  0.4622460000000  0.4173670000000 1.0
C      1  0.4133100000000  0.5071660000000  0.4369310000000 1.0
C      1  0.5034990000000  0.4395900000000  0.5836360000000 1.0
C      1  0.5245710000000  0.4618520000000  0.4384260000000 1.0
C      1  0.4073340000000  0.5392510000000  0.5252080000000 1.0
C      1  0.4253470000000  0.4211090000000  0.4787110000000 1.0
C      1  0.4126740000000  0.5311750000000  0.4519810000000 1.0
C      1  0.6074450000000  0.5056100000000  0.4674820000000 1.0
C      1  0.4630700000000  0.6127220000000  0.5064790000000 1.0
C      1  0.4541660000000  0.5500210000000  0.5904750000000 1.0
C      1  0.5518510000000  0.4275960000000  0.4599090000000 1.0
C      1  0.5060260000000  0.3848000000000  0.5183700000000 1.0
C      1  0.4683480000000  0.5340540000000  0.4548010000000 1.0
C      1  0.5439820000000  0.5163850000000  0.4511370000000 1.0
C      1  0.4451600000000  0.4891310000000  0.4040250000000 1.0
C      1  0.4760950000000  0.5339240000000  0.5011210000000 1.0
C      1  0.5865020000000  0.5679750000000  0.4463010000000 1.0
C      1  0.4314940000000  0.5128070000000  0.4144990000000 1.0
C      1  0.4977160000000  0.4127850000000  0.4203240000000 1.0
C      1  0.5680200000000  0.5554310000000  0.5796850000000 1.0
C      1  0.4681930000000  0.5720850000000  0.5761990000000 1.0
C      1  0.5218240000000  0.5108580000000  0.4315820000000 1.0
C      1  0.5276840000000  0.4824650000000  0.6159130000000 1.0
C      1  0.5551570000000  0.4639910000000  0.5004310000000 1.0
END
