TITL C-883731-9874-49 -14.0236025856235 125000 -9335.8154806321 0 0 62 (C1) n - 1
REM
REM in /home/nfs/bkarasulu/CARBON/AIRSS/Generating-Clusters/ReaxFF-fromJPCA2015/Units_Real/with-SteepDescent/Only-C1/SD-CG/Try1-3A/FIRE-CG
REM
REM
REM
REM
REM
REM ./C.cell (11c1c37f851c82e70ff6c80c92926a4b)
REM
REM compiler GCC version 9.2.1 20190827 (Red Hat 9.2.1-1)
REM options -cpp -mtune=generic -march=x86-64 -g -O0 -fpre-include=/usr/include/finclude/math-vector-fortran.h
REM seed 333843148 894678301 -1862561481 -1282185649 -1795699712 -561746966 662679075 816180184 -1841634680 -1145766617 443456246 -124209845 2024664462 1153743023 -1326339524 -102452899 -332323220 -2121189178 1076022951 -1356463587 837615477 612932884 384219884 -748115126 2058327373 -1359275777 -341891302 -1912116325 -350225568 -153533001 1215144246 -271408495 -74474888
REM
CELL 1.54180   50.00000   50.00000   50.00000   90.00000   90.00000   90.00000
LATT -1
SFAC C  
C      1  0.4789010000000  0.5190530000000  0.4957160000000 1.0
C      1  0.4762430000000  0.4639320000000  0.5566360000000 1.0
C      1  0.5038770000000  0.5514840000000  0.5508950000000 1.0
C      1  0.4757430000000  0.4493220000000  0.4566590000000 1.0
C      1  0.4532770000000  0.4514520000000  0.5060580000000 1.0
C      1  0.4665980000000  0.4390550000000  0.4832970000000 1.0
C      1  0.5075940000000  0.5174560000000  0.4390640000000 1.0
C      1  0.5406240000000  0.4880260000000  0.4548930000000 1.0
C      1  0.5656920000000  0.4810840000000  0.4728120000000 1.0
C      1  0.4769870000000  0.4966190000000  0.4768440000000 1.0
C      1  0.5529880000000  0.4672650000000  0.5475960000000 1.0
C      1  0.5591690000000  0.4954750000000  0.5467410000000 1.0
C      1  0.4874970000000  0.4825200000000  0.5140250000000 1.0
C      1  0.4308790000000  0.4939870000000  0.4858240000000 1.0
C      1  0.5283500000000  0.4604410000000  0.5107290000000 1.0
C      1  0.4941960000000  0.4763900000000  0.4867670000000 1.0
C      1  0.5288040000000  0.5351990000000  0.5395370000000 1.0
C      1  0.4946480000000  0.4308620000000  0.5225060000000 1.0
C      1  0.5084630000000  0.5715110000000  0.5324600000000 1.0
C      1  0.4586980000000  0.5466940000000  0.5300800000000 1.0
C      1  0.5280000000000  0.5133250000000  0.4599470000000 1.0
C      1  0.4870410000000  0.5690490000000  0.4923170000000 1.0
C      1  0.4478910000000  0.4904530000000  0.4611620000000 1.0
C      1  0.5201020000000  0.4715400000000  0.4413520000000 1.0
C      1  0.5572140000000  0.4634300000000  0.5183230000000 1.0
C      1  0.4657220000000  0.5702500000000  0.5135950000000 1.0
C      1  0.4537360000000  0.5252500000000  0.5104840000000 1.0
C      1  0.4831830000000  0.5331250000000  0.4376760000000 1.0
C      1  0.5367700000000  0.5122750000000  0.5620490000000 1.0
C      1  0.4350030000000  0.4747350000000  0.5083840000000 1.0
C      1  0.4812260000000  0.5104040000000  0.5595670000000 1.0
C      1  0.5512390000000  0.5541120000000  0.5303550000000 1.0
C      1  0.5208460000000  0.4398800000000  0.5308300000000 1.0
C      1  0.5144730000000  0.4904420000000  0.5230300000000 1.0
C      1  0.5236900000000  0.5167170000000  0.5138390000000 1.0
C      1  0.5312400000000  0.5254670000000  0.4875220000000 1.0
C      1  0.4754820000000  0.4539390000000  0.5274740000000 1.0
C      1  0.5125340000000  0.5787520000000  0.5057840000000 1.0
C      1  0.4435110000000  0.5359710000000  0.4638840000000 1.0
C      1  0.5052860000000  0.4508550000000  0.4555280000000 1.0
C      1  0.4639190000000  0.5150460000000  0.4251840000000 1.0
C      1  0.4919970000000  0.4296920000000  0.4940790000000 1.0
C      1  0.5038970000000  0.4683030000000  0.5650670000000 1.0
C      1  0.4339270000000  0.5226540000000  0.4888210000000 1.0
C      1  0.4743100000000  0.4870680000000  0.4237070000000 1.0
C      1  0.4601230000000  0.4885480000000  0.5574540000000 1.0
C      1  0.4868390000000  0.5433330000000  0.4822250000000 1.0
C      1  0.4780950000000  0.5376230000000  0.5519610000000 1.0
C      1  0.4610070000000  0.4693810000000  0.4424950000000 1.0
C      1  0.5113400000000  0.4486930000000  0.4833720000000 1.0
C      1  0.4710650000000  0.5478710000000  0.4606000000000 1.0
C      1  0.5409400000000  0.5685840000000  0.5064140000000 1.0
C      1  0.5078090000000  0.4968230000000  0.5571010000000 1.0
C      1  0.5706040000000  0.4848100000000  0.5041310000000 1.0
C      1  0.5277360000000  0.4539420000000  0.5557320000000 1.0
C      1  0.5727550000000  0.4616470000000  0.4579160000000 1.0
C      1  0.5676720000000  0.5363290000000  0.5139980000000 1.0
C      1  0.5700930000000  0.5072680000000  0.5216980000000 1.0
C      1  0.4449100000000  0.4820760000000  0.5342920000000 1.0
C      1  0.5032000000000  0.4906950000000  0.4272920000000 1.0
C      1  0.4419070000000  0.5157490000000  0.4439560000000 1.0
C      1  0.5524370000000  0.5460660000000  0.4902630000000 1.0
END
