TITL C-883726-8501-286 0.133499437160737 125000 -10268.8049915557 0 0 70 (C1) n - 1
REM
REM in /home/nfs/bkarasulu/CARBON/AIRSS/Generating-Clusters/ReaxFF-fromJPCA2015/Units_Real/with-SteepDescent/Only-C1/SD-CG/Try1-3A/FIRE-CG
REM
REM
REM
REM
REM
REM ./C.cell (11c1c37f851c82e70ff6c80c92926a4b)
REM
REM compiler GCC version 9.2.1 20190827 (Red Hat 9.2.1-1)
REM options -cpp -mtune=generic -march=x86-64 -g -O0 -fpre-include=/usr/include/finclude/math-vector-fortran.h
REM seed 222642440 -135218990 834533133 -1698645601 -568075242 -540032633 -1859630489 -1940700876 225305356 1082031162 1244735059 487748969 710218909 1079473482 -769202110 -1628267975 1220742465 -1729894050 -199672165 -865361054 1454666149 729691174 1979205814 -1412606208 247577851 445328167 -926493534 899827043 -2014760699 1411649705 1387742813 399092910 504444223
REM
CELL 1.54180   50.00000   50.00000   50.00000   90.00000   90.00000   90.00000
LATT -1
SFAC C  
C      1  0.4373220000000  0.5217340000000  0.5228890000000 1.0
C      1  0.4993750000000  0.4208970000000  0.5093250000000 1.0
C      1  0.5196120000000  0.5047390000000  0.5608480000000 1.0
C      1  0.5516430000000  0.5465300000000  0.5185250000000 1.0
C      1  0.5518520000000  0.4794050000000  0.4925770000000 1.0
C      1  0.5805400000000  0.5219080000000  0.4718870000000 1.0
C      1  0.5439940000000  0.5563600000000  0.4767420000000 1.0
C      1  0.4982570000000  0.5715170000000  0.5269920000000 1.0
C      1  0.5179230000000  0.4436210000000  0.5107160000000 1.0
C      1  0.4701400000000  0.5670880000000  0.5225410000000 1.0
C      1  0.5241850000000  0.4408040000000  0.4825300000000 1.0
C      1  0.5900190000000  0.5137010000000  0.4939360000000 1.0
C      1  0.5500260000000  0.4818380000000  0.4636300000000 1.0
C      1  0.4821620000000  0.5049230000000  0.4449780000000 1.0
C      1  0.5048100000000  0.4909430000000  0.4278800000000 1.0
C      1  0.5162250000000  0.5751200000000  0.5035690000000 1.0
C      1  0.4830300000000  0.5243940000000  0.5128440000000 1.0
C      1  0.5346430000000  0.4571290000000  0.4550510000000 1.0
C      1  0.4795630000000  0.5238890000000  0.4841280000000 1.0
C      1  0.5887020000000  0.5083630000000  0.5211570000000 1.0
C      1  0.4615950000000  0.5005220000000  0.5606010000000 1.0
C      1  0.4787440000000  0.4697900000000  0.5132990000000 1.0
C      1  0.4448960000000  0.5592460000000  0.4738610000000 1.0
C      1  0.5451990000000  0.5722020000000  0.5026360000000 1.0
C      1  0.4740460000000  0.5256940000000  0.5585250000000 1.0
C      1  0.4893040000000  0.4314560000000  0.4530450000000 1.0
C      1  0.5466930000000  0.5336710000000  0.4932710000000 1.0
C      1  0.5577340000000  0.5203180000000  0.5569040000000 1.0
C      1  0.5060640000000  0.4819170000000  0.5518370000000 1.0
C      1  0.5611100000000  0.5331700000000  0.4564660000000 1.0
C      1  0.4505610000000  0.5128670000000  0.4474800000000 1.0
C      1  0.4511110000000  0.4263400000000  0.5216480000000 1.0
C      1  0.4136240000000  0.5010380000000  0.4612720000000 1.0
C      1  0.5736630000000  0.4822710000000  0.5157200000000 1.0
C      1  0.4302540000000  0.5142490000000  0.4962340000000 1.0
C      1  0.4561880000000  0.5732270000000  0.4972010000000 1.0
C      1  0.5733070000000  0.5294410000000  0.5355910000000 1.0
C      1  0.4437480000000  0.4667410000000  0.4804320000000 1.0
C      1  0.5024150000000  0.5295990000000  0.5634270000000 1.0
C      1  0.5238430000000  0.5165700000000  0.4933460000000 1.0
C      1  0.4999660000000  0.5392370000000  0.4701410000000 1.0
C      1  0.5475500000000  0.4951390000000  0.5638710000000 1.0
C      1  0.4633560000000  0.5378260000000  0.5311040000000 1.0
C      1  0.4418540000000  0.4599980000000  0.4523710000000 1.0
C      1  0.4650400000000  0.4454240000000  0.4514050000000 1.0
C      1  0.5266350000000  0.4889740000000  0.5031520000000 1.0
C      1  0.5141900000000  0.5624240000000  0.4773020000000 1.0
C      1  0.4777980000000  0.4143690000000  0.5293550000000 1.0
C      1  0.5265650000000  0.5392230000000  0.5324080000000 1.0
C      1  0.4546530000000  0.4562860000000  0.5245620000000 1.0
C      1  0.4829850000000  0.4516280000000  0.5656930000000 1.0
C      1  0.5075600000000  0.4723520000000  0.5229740000000 1.0
C      1  0.4329540000000  0.4901990000000  0.4435840000000 1.0
C      1  0.5118490000000  0.4432100000000  0.4388710000000 1.0
C      1  0.4324130000000  0.4762000000000  0.5241740000000 1.0
C      1  0.4723780000000  0.4748650000000  0.4860760000000 1.0
C      1  0.4462550000000  0.5287460000000  0.4724360000000 1.0
C      1  0.4826200000000  0.4794440000000  0.5659500000000 1.0
C      1  0.5102870000000  0.5229310000000  0.5165140000000 1.0
C      1  0.4813000000000  0.4290920000000  0.5533900000000 1.0
C      1  0.5622560000000  0.4827910000000  0.5414500000000 1.0
C      1  0.4259420000000  0.4846660000000  0.4965530000000 1.0
C      1  0.5483030000000  0.5077260000000  0.4488370000000 1.0
C      1  0.5181540000000  0.4672880000000  0.4320260000000 1.0
C      1  0.5228630000000  0.5123170000000  0.4343150000000 1.0
C      1  0.4389540000000  0.4992540000000  0.5409370000000 1.0
C      1  0.5029590000000  0.4216080000000  0.4792560000000 1.0
C      1  0.4836950000000  0.4976580000000  0.4727090000000 1.0
C      1  0.5096450000000  0.5550000000000  0.5491400000000 1.0
C      1  0.5009010000000  0.5288920000000  0.4439010000000 1.0
END
