TITL C-883732-77-123 5.85783405461918 125000 -11151.1461621634 0 0 76 (C1) n - 1
REM
REM in /home/nfs/bkarasulu/CARBON/AIRSS/Generating-Clusters/ReaxFF-fromJPCA2015/Units_Real/with-SteepDescent/Only-C1/SD-CG/Try1-3A/FIRE-CG
REM
REM
REM
REM
REM
REM ./C.cell (11c1c37f851c82e70ff6c80c92926a4b)
REM
REM compiler GCC version 9.2.1 20190827 (Red Hat 9.2.1-1)
REM options -cpp -mtune=generic -march=x86-64 -g -O0 -fpre-include=/usr/include/finclude/math-vector-fortran.h
REM seed -525235152 -950406423 1730133095 -2035406537 590742151 -1670650135 -1228334829 -555109486 -1714511728 -505227141 1613512928 1917325356 -1841444123 -535528598 1366122068 143300050 -1142820190 38064349 -177399039 671018521 31493012 -342137513 1763455278 1040220355 -1539557275 808202327 -776366708 -1074992259 -1166908480 1352257803 709851266 1825126553 626221487
REM
CELL 1.54180   50.00000   50.00000   50.00000   90.00000   90.00000   90.00000
LATT -1
SFAC C  
C      1  0.5125580000000  0.5200210000000  0.4239620000000 1.0
C      1  0.5802030000000  0.4789560000000  0.5266500000000 1.0
C      1  0.5135610000000  0.4271920000000  0.5053630000000 1.0
C      1  0.4435700000000  0.4650460000000  0.4596020000000 1.0
C      1  0.5224130000000  0.4187700000000  0.4784710000000 1.0
C      1  0.5570220000000  0.5534070000000  0.4677720000000 1.0
C      1  0.4891660000000  0.5661970000000  0.4927060000000 1.0
C      1  0.4761240000000  0.4795110000000  0.5773020000000 1.0
C      1  0.4843820000000  0.5610060000000  0.4440140000000 1.0
C      1  0.4378720000000  0.5314270000000  0.4752920000000 1.0
C      1  0.5405920000000  0.5171530000000  0.4323400000000 1.0
C      1  0.5400000000000  0.5319180000000  0.5426810000000 1.0
C      1  0.4825280000000  0.5300740000000  0.5728770000000 1.0
C      1  0.5679530000000  0.4852900000000  0.4743210000000 1.0
C      1  0.5635160000000  0.4636730000000  0.5125930000000 1.0
C      1  0.5110230000000  0.5185640000000  0.4832400000000 1.0
C      1  0.4688550000000  0.4939220000000  0.4903860000000 1.0
C      1  0.5374240000000  0.4421110000000  0.4589470000000 1.0
C      1  0.5032590000000  0.4373170000000  0.5553410000000 1.0
C      1  0.5228460000000  0.4305750000000  0.4363380000000 1.0
C      1  0.5278860000000  0.5561980000000  0.5561240000000 1.0
C      1  0.4924780000000  0.4282850000000  0.5280300000000 1.0
C      1  0.4322880000000  0.5052800000000  0.4649260000000 1.0
C      1  0.4466780000000  0.5308850000000  0.5035500000000 1.0
C      1  0.5651570000000  0.5254260000000  0.5299630000000 1.0
C      1  0.4584050000000  0.4839090000000  0.5529770000000 1.0
C      1  0.5205870000000  0.5208440000000  0.5240720000000 1.0
C      1  0.4595990000000  0.4798590000000  0.4394720000000 1.0
C      1  0.4926380000000  0.5031580000000  0.5813660000000 1.0
C      1  0.4847650000000  0.4732310000000  0.5023790000000 1.0
C      1  0.4286710000000  0.5466610000000  0.5207150000000 1.0
C      1  0.4698730000000  0.5369750000000  0.5237370000000 1.0
C      1  0.5047170000000  0.5442770000000  0.5660540000000 1.0
C      1  0.4631250000000  0.5718010000000  0.4597280000000 1.0
C      1  0.4603560000000  0.5359830000000  0.5514870000000 1.0
C      1  0.5294530000000  0.5671830000000  0.5050210000000 1.0
C      1  0.4341330000000  0.5263800000000  0.5439880000000 1.0
C      1  0.5030190000000  0.4173890000000  0.4571310000000 1.0
C      1  0.5825200000000  0.4743660000000  0.4976200000000 1.0
C      1  0.4456460000000  0.5052220000000  0.4385870000000 1.0
C      1  0.5326840000000  0.4399320000000  0.5494510000000 1.0
C      1  0.5191120000000  0.4541370000000  0.4957380000000 1.0
C      1  0.4877080000000  0.5041950000000  0.4712050000000 1.0
C      1  0.4416940000000  0.4850790000000  0.4853340000000 1.0
C      1  0.5177700000000  0.4867240000000  0.5742350000000 1.0
C      1  0.4882140000000  0.5378770000000  0.4296360000000 1.0
C      1  0.5372210000000  0.4881250000000  0.4367840000000 1.0
C      1  0.5655470000000  0.4988340000000  0.5437630000000 1.0
C      1  0.5421790000000  0.4926730000000  0.5603540000000 1.0
C      1  0.5094310000000  0.5486360000000  0.4916650000000 1.0
C      1  0.4459370000000  0.4566300000000  0.5252120000000 1.0
C      1  0.4586240000000  0.5308160000000  0.4325460000000 1.0
C      1  0.4945480000000  0.4561040000000  0.4821520000000 1.0
C      1  0.5687730000000  0.5321200000000  0.5014960000000 1.0
C      1  0.4814130000000  0.4342620000000  0.4679360000000 1.0
C      1  0.5576980000000  0.5588970000000  0.4949090000000 1.0
C      1  0.4413190000000  0.5718710000000  0.5103060000000 1.0
C      1  0.5486930000000  0.4706230000000  0.4574420000000 1.0
C      1  0.4324180000000  0.4791700000000  0.5156940000000 1.0
C      1  0.5587620000000  0.5301390000000  0.4530240000000 1.0
C      1  0.4633330000000  0.5773530000000  0.4904440000000 1.0
C      1  0.4993190000000  0.4623570000000  0.5719600000000 1.0
C      1  0.5086280000000  0.4910480000000  0.4274870000000 1.0
C      1  0.4460720000000  0.5486450000000  0.4525200000000 1.0
C      1  0.5277060000000  0.5046550000000  0.5013240000000 1.0
C      1  0.4976770000000  0.4722330000000  0.5275330000000 1.0
C      1  0.4516200000000  0.4368630000000  0.4617690000000 1.0
C      1  0.4674400000000  0.4404470000000  0.5263370000000 1.0
C      1  0.4870690000000  0.4875120000000  0.4470860000000 1.0
C      1  0.4820820000000  0.4934160000000  0.5373570000000 1.0
C      1  0.5262140000000  0.5757330000000  0.5329110000000 1.0
C      1  0.4351860000000  0.4958910000000  0.5392880000000 1.0
C      1  0.4917640000000  0.5187080000000  0.5294630000000 1.0
C      1  0.5367770000000  0.4737610000000  0.5078230000000 1.0
C      1  0.5247580000000  0.4646840000000  0.5337660000000 1.0
C      1  0.5677480000000  0.5144080000000  0.4769220000000 1.0
END
