TITL C-884136-4169-11 1890624.20377857 125000 -19271.8659401069 0 0 129 (C1) n - 1
REM
REM in /home/nfs/bkarasulu/CARBON/AIRSS/Generating-Clusters/ReaxFF-fromJPCA2015/Units_Real/with-SteepDescent/Only-C1/SD-CG/Try1-3A/FIRE-CG
REM
REM
REM
REM
REM
REM ./C.cell (11c1c37f851c82e70ff6c80c92926a4b)
REM
REM compiler GCC version 9.2.1 20190827 (Red Hat 9.2.1-1)
REM options -cpp -mtune=generic -march=x86-64 -g -O0 -fpre-include=/usr/include/finclude/math-vector-fortran.h
REM seed 1942575933 -1102722959 -1705022986 -1245013955 487806330 1618383808 -1504527315 -1320131474 1857678444 1357392070 511777513 423700408 -1594194002 974697034 -1566547031 66084901 283698377 440992980 -70770684 -1517109264 1707466872 -1698072285 902834677 -1336872413 485047255 -1818253478 1852255143 -416621161 -1809364581 -1736622961 -298289136 1451723672 2052414117
REM
CELL 1.54180   50.00000   50.00000   50.00000   90.00000   90.00000   90.00000
LATT -1
SFAC C  
C      1  0.4602970000000  0.5800880000000  0.4758460000000 1.0
C      1  0.5272410000000  0.4544290000000  0.4593650000000 1.0
C      1  0.4886930000000  0.4459010000000  0.4171640000000 1.0
C      1  0.5084880000000  0.5705350000000  0.4805230000000 1.0
C      1  0.5297250000000  0.6127770000000  0.4921370000000 1.0
C      1  0.5069240000000  0.3951510000000  0.4808430000000 1.0
C      1  0.5077990000000  0.5961270000000  0.5351200000000 1.0
C      1  0.5338060000000  0.4107320000000  0.4807410000000 1.0
C      1  0.5463280000000  0.4657020000000  0.5496830000000 1.0
C      1  0.4979950000000  0.4321980000000  0.5315790000000 1.0
C      1  0.4711950000000  0.4257760000000  0.4599030000000 1.0
C      1  0.4010070000000  0.5182270000000  0.4798920000000 1.0
C      1  0.5553110000000  0.5759870000000  0.4720180000000 1.0
C      1  0.5376500000000  0.4803980000000  0.4529250000000 1.0
C      1  0.4094060000000  0.5323850000000  0.5044870000000 1.0
C      1  0.5816710000000  0.4640160000000  0.5171220000000 1.0
C      1  0.5312170000000  0.5924200000000  0.4733710000000 1.0
C      1  0.4243080000000  0.5570240000000  0.5037520000000 1.0
C      1  0.4657650000000  0.5518530000000  0.4293010000000 1.0
C      1  0.5791370000000  0.4908780000000  0.5586940000000 1.0
C      1  0.5378890000000  0.5431850000000  0.4329550000000 1.0
C      1  0.5765030000000  0.4646310000000  0.5454360000000 1.0
C      1  0.5084080000000  0.4748360000000  0.5732210000000 1.0
C      1  0.5094960000000  0.5365160000000  0.4452870000000 1.0
C      1  0.5778770000000  0.4503170000000  0.4773200000000 1.0
C      1  0.5139420000000  0.4455470000000  0.5704150000000 1.0
C      1  0.5015060000000  0.4976170000000  0.5542000000000 1.0
C      1  0.5769100000000  0.5363090000000  0.5363210000000 1.0
C      1  0.5378730000000  0.4592040000000  0.5035570000000 1.0
C      1  0.4398740000000  0.4811970000000  0.4834410000000 1.0
C      1  0.4264270000000  0.4642100000000  0.5027270000000 1.0
C      1  0.4515580000000  0.5304450000000  0.4168390000000 1.0
C      1  0.4755900000000  0.4990040000000  0.5408540000000 1.0
C      1  0.4274140000000  0.4594770000000  0.5486930000000 1.0
C      1  0.4009920000000  0.4791290000000  0.5140420000000 1.0
C      1  0.4659700000000  0.4402380000000  0.4309960000000 1.0
C      1  0.4890320000000  0.4348050000000  0.5606660000000 1.0
C      1  0.4518410000000  0.4816500000000  0.4578740000000 1.0
C      1  0.5588580000000  0.5467890000000  0.5573160000000 1.0
C      1  0.5400010000000  0.4781160000000  0.4242740000000 1.0
C      1  0.4908210000000  0.5325120000000  0.5111280000000 1.0
C      1  0.5431330000000  0.4480070000000  0.4185800000000 1.0
C      1  0.5810950000000  0.4603980000000  0.4523230000000 1.0
C      1  0.4470910000000  0.4985420000000  0.5739110000000 1.0
C      1  0.5455980000000  0.5714980000000  0.5490060000000 1.0
C      1  0.5259780000000  0.5467500000000  0.4886440000000 1.0
C      1  0.3893170000000  0.4925220000000  0.4906390000000 1.0
C      1  0.4473460000000  0.4229020000000  0.5257550000000 1.0
C      1  0.4553620000000  0.5018660000000  0.4958950000000 1.0
C      1  0.4284940000000  0.4311580000000  0.5054710000000 1.0
C      1  0.5521730000000  0.5840110000000  0.5230600000000 1.0
C      1  0.4911530000000  0.4809370000000  0.5959900000000 1.0
C      1  0.5569950000000  0.5597480000000  0.4471380000000 1.0
C      1  0.4548500000000  0.5288090000000  0.5703910000000 1.0
C      1  0.4146510000000  0.4142860000000  0.4591060000000 1.0
C      1  0.5269120000000  0.5359850000000  0.5335900000000 1.0
C      1  0.5397610000000  0.4279070000000  0.4562460000000 1.0
C      1  0.5752000000000  0.5106480000000  0.4341920000000 1.0
C      1  0.5428020000000  0.4178420000000  0.5065220000000 1.0
C      1  0.5765550000000  0.4925920000000  0.5093490000000 1.0
C      1  0.5112880000000  0.5027500000000  0.6038040000000 1.0
C      1  0.4892700000000  0.3916750000000  0.5030910000000 1.0
C      1  0.4215750000000  0.5165510000000  0.5266120000000 1.0
C      1  0.5359550000000  0.4377360000000  0.5533750000000 1.0
C      1  0.4338870000000  0.5673400000000  0.4784580000000 1.0
C      1  0.4718750000000  0.5720920000000  0.4480660000000 1.0
C      1  0.5292390000000  0.4769640000000  0.5235420000000 1.0
C      1  0.5179410000000  0.5792750000000  0.5554960000000 1.0
C      1  0.4983900000000  0.4619480000000  0.5213580000000 1.0
C      1  0.4238940000000  0.4856250000000  0.5617100000000 1.0
C      1  0.5429980000000  0.5008660000000  0.5042670000000 1.0
C      1  0.4509550000000  0.5130830000000  0.5240620000000 1.0
C      1  0.5271600000000  0.4221630000000  0.5303300000000 1.0
C      1  0.5228160000000  0.5175300000000  0.5549090000000 1.0
C      1  0.4785290000000  0.5402210000000  0.5818700000000 1.0
C      1  0.5011980000000  0.5451900000000  0.5337530000000 1.0
C      1  0.4651020000000  0.4764240000000  0.5822600000000 1.0
C      1  0.5613150000000  0.4395210000000  0.4404600000000 1.0
C      1  0.5823160000000  0.5080500000000  0.5353380000000 1.0
C      1  0.4526020000000  0.4630650000000  0.4216580000000 1.0
C      1  0.5375480000000  0.5299320000000  0.5087340000000 1.0
C      1  0.4681470000000  0.5426510000000  0.4985910000000 1.0
C      1  0.4145970000000  0.5246000000000  0.4536020000000 1.0
C      1  0.4744770000000  0.4188860000000  0.5112900000000 1.0
C      1  0.4739300000000  0.5018690000000  0.4591400000000 1.0
C      1  0.5764000000000  0.5373750000000  0.4461600000000 1.0
C      1  0.4690990000000  0.5734330000000  0.5466680000000 1.0
C      1  0.5319250000000  0.6053650000000  0.5192460000000 1.0
C      1  0.5175160000000  0.4549570000000  0.4859740000000 1.0
C      1  0.4760320000000  0.5201800000000  0.4051680000000 1.0
C      1  0.4721790000000  0.4736140000000  0.5294600000000 1.0
C      1  0.5648560000000  0.5708440000000  0.5001740000000 1.0
C      1  0.4515290000000  0.5508240000000  0.5508430000000 1.0
C      1  0.4652660000000  0.4487990000000  0.5693140000000 1.0
C      1  0.4941470000000  0.5117200000000  0.4402370000000 1.0
C      1  0.4814430000000  0.5877590000000  0.5236310000000 1.0
C      1  0.5036030000000  0.5104710000000  0.4961020000000 1.0
C      1  0.5636060000000  0.5263740000000  0.4695790000000 1.0
C      1  0.4833310000000  0.4922850000000  0.4858730000000 1.0
C      1  0.4814340000000  0.5815580000000  0.4950380000000 1.0
C      1  0.5913750000000  0.5000950000000  0.4824870000000 1.0
C      1  0.4991280000000  0.5049570000000  0.4121830000000 1.0
C      1  0.4068510000000  0.4948440000000  0.5388590000000 1.0
C      1  0.5294010000000  0.5012490000000  0.4095740000000 1.0
C      1  0.4738810000000  0.4364180000000  0.4862930000000 1.0
C      1  0.4949050000000  0.5226520000000  0.5947180000000 1.0
C      1  0.4358870000000  0.5430220000000  0.4614150000000 1.0
C      1  0.5417400000000  0.5287430000000  0.5737330000000 1.0
C      1  0.4444130000000  0.4355460000000  0.5526370000000 1.0
C      1  0.5549850000000  0.4857850000000  0.5747310000000 1.0
C      1  0.5799720000000  0.5475850000000  0.5089620000000 1.0
C      1  0.5868060000000  0.5286760000000  0.4871740000000 1.0
C      1  0.4904610000000  0.4611720000000  0.4929930000000 1.0
C      1  0.5148820000000  0.4458470000000  0.4159020000000 1.0
C      1  0.4441070000000  0.4662000000000  0.5253130000000 1.0
C      1  0.4591810000000  0.5290610000000  0.4743030000000 1.0
C      1  0.4933970000000  0.5603780000000  0.5584790000000 1.0
C      1  0.5195000000000  0.5227250000000  0.4731080000000 1.0
C      1  0.4482940000000  0.5473550000000  0.5196410000000 1.0
C      1  0.4300400000000  0.5130330000000  0.4319640000000 1.0
C      1  0.5399680000000  0.5046170000000  0.5901950000000 1.0
C      1  0.4216140000000  0.4211420000000  0.4814190000000 1.0
C      1  0.4869520000000  0.4012970000000  0.4581780000000 1.0
C      1  0.5439360000000  0.5032720000000  0.4729980000000 1.0
C      1  0.4359340000000  0.4835670000000  0.4326260000000 1.0
C      1  0.5659220000000  0.4421560000000  0.5026310000000 1.0
C      1  0.4975640000000  0.5615060000000  0.4543700000000 1.0
C      1  0.5834500000000  0.4913690000000  0.4552970000000 1.0
C      1  0.5488680000000  0.5194230000000  0.4207400000000 1.0
END
