TITL C-883733-4178-377 1.21761245977142 125000 -10355.4232774201 0 0 70 (C1) n - 1
REM
REM in /home/nfs/bkarasulu/CARBON/AIRSS/Generating-Clusters/ReaxFF-fromJPCA2015/Units_Real/with-SteepDescent/Only-C1/SD-CG/Try1-3A/FIRE-CG
REM
REM
REM
REM
REM
REM ./C.cell (11c1c37f851c82e70ff6c80c92926a4b)
REM
REM compiler GCC version 9.2.1 20190827 (Red Hat 9.2.1-1)
REM options -cpp -mtune=generic -march=x86-64 -g -O0 -fpre-include=/usr/include/finclude/math-vector-fortran.h
REM seed 2094454290 -1288746547 2036352727 -1799979754 2141923110 -570333950 1130701341 -687360630 -1003288788 -814043316 -1442190944 -1965467537 -1430594629 1123605019 -1427734929 496726377 -524019670 -1896066491 272309001 -27740895 -917388263 493445040 1552876870 -991459730 496584550 1863293176 714859564 -1030138547 -688547210 -817211747 -492588730 -2100614403 663202443
REM
CELL 1.54180   50.00000   50.00000   50.00000   90.00000   90.00000   90.00000
LATT -1
SFAC C  
C      1  0.4947960000000  0.4662900000000  0.4284940000000 1.0
C      1  0.4816840000000  0.4641320000000  0.4560100000000 1.0
C      1  0.5450750000000  0.5500380000000  0.5502060000000 1.0
C      1  0.5671370000000  0.5163430000000  0.5379440000000 1.0
C      1  0.5664500000000  0.5495760000000  0.5006020000000 1.0
C      1  0.4578920000000  0.5059720000000  0.5040040000000 1.0
C      1  0.4359950000000  0.4694600000000  0.5422830000000 1.0
C      1  0.5021270000000  0.5194120000000  0.5142840000000 1.0
C      1  0.5464880000000  0.4753970000000  0.4450960000000 1.0
C      1  0.5303520000000  0.4350580000000  0.5567330000000 1.0
C      1  0.5350510000000  0.4930890000000  0.4265490000000 1.0
C      1  0.4368710000000  0.5012310000000  0.4820880000000 1.0
C      1  0.5584580000000  0.4679860000000  0.5318210000000 1.0
C      1  0.5531660000000  0.5284710000000  0.4630890000000 1.0
C      1  0.4197080000000  0.4813970000000  0.4942820000000 1.0
C      1  0.4818170000000  0.4774570000000  0.5634770000000 1.0
C      1  0.4691050000000  0.4789130000000  0.4324120000000 1.0
C      1  0.4630380000000  0.4175330000000  0.4797260000000 1.0
C      1  0.5660270000000  0.4978990000000  0.4899110000000 1.0
C      1  0.5035450000000  0.5331250000000  0.5646310000000 1.0
C      1  0.5107120000000  0.5049730000000  0.4625340000000 1.0
C      1  0.5182450000000  0.4471670000000  0.4961140000000 1.0
C      1  0.5015170000000  0.5644500000000  0.5255660000000 1.0
C      1  0.5292000000000  0.5184670000000  0.4774620000000 1.0
C      1  0.5658920000000  0.5446750000000  0.5294960000000 1.0
C      1  0.4630710000000  0.5166080000000  0.4191800000000 1.0
C      1  0.5119880000000  0.4846790000000  0.5509240000000 1.0
C      1  0.5082820000000  0.4931110000000  0.5224790000000 1.0
C      1  0.4546770000000  0.4585600000000  0.5055520000000 1.0
C      1  0.5222360000000  0.5338330000000  0.5005570000000 1.0
C      1  0.5439440000000  0.5569430000000  0.4599370000000 1.0
C      1  0.5158860000000  0.5634960000000  0.4969330000000 1.0
C      1  0.4967550000000  0.4841110000000  0.4731770000000 1.0
C      1  0.5169550000000  0.5588530000000  0.4480740000000 1.0
C      1  0.5731540000000  0.5258830000000  0.4838350000000 1.0
C      1  0.5214840000000  0.5106550000000  0.5647150000000 1.0
C      1  0.4622970000000  0.5253390000000  0.4593360000000 1.0
C      1  0.5004400000000  0.4314280000000  0.4833000000000 1.0
C      1  0.4765740000000  0.5297250000000  0.5038230000000 1.0
C      1  0.5657280000000  0.4939080000000  0.5193610000000 1.0
C      1  0.5477240000000  0.5221720000000  0.5602610000000 1.0
C      1  0.5466800000000  0.4518790000000  0.4885610000000 1.0
C      1  0.4286520000000  0.4616940000000  0.5147770000000 1.0
C      1  0.4749890000000  0.5539140000000  0.5242530000000 1.0
C      1  0.4608640000000  0.4588670000000  0.5560440000000 1.0
C      1  0.4725300000000  0.4803110000000  0.5056080000000 1.0
C      1  0.5008800000000  0.4303610000000  0.5548410000000 1.0
C      1  0.5237590000000  0.4677160000000  0.4277170000000 1.0
C      1  0.4124600000000  0.5271920000000  0.5184280000000 1.0
C      1  0.4512670000000  0.4345730000000  0.4934890000000 1.0
C      1  0.4532920000000  0.5033360000000  0.4429720000000 1.0
C      1  0.5160280000000  0.5554700000000  0.5487400000000 1.0
C      1  0.5159640000000  0.5114530000000  0.4354180000000 1.0
C      1  0.4814790000000  0.4310840000000  0.4637250000000 1.0
C      1  0.4765110000000  0.5437370000000  0.4745180000000 1.0
C      1  0.4397430000000  0.4962030000000  0.5509770000000 1.0
C      1  0.4747050000000  0.5279710000000  0.5643710000000 1.0
C      1  0.5008630000000  0.4752060000000  0.5014910000000 1.0
C      1  0.4646920000000  0.5000280000000  0.5664680000000 1.0
C      1  0.4400350000000  0.5194280000000  0.5315610000000 1.0
C      1  0.4993910000000  0.5610720000000  0.4705760000000 1.0
C      1  0.5106760000000  0.5394560000000  0.4261420000000 1.0
C      1  0.5353670000000  0.4638170000000  0.5494660000000 1.0
C      1  0.4588780000000  0.5407370000000  0.5439270000000 1.0
C      1  0.4855000000000  0.5314720000000  0.4173550000000 1.0
C      1  0.5456930000000  0.5656300000000  0.4876350000000 1.0
C      1  0.5542390000000  0.4761780000000  0.4730470000000 1.0
C      1  0.5642300000000  0.4458040000000  0.5121050000000 1.0
C      1  0.4787450000000  0.4375760000000  0.5543020000000 1.0
C      1  0.4103410000000  0.5100230000000  0.4952320000000 1.0
END
