TITL C-884132-5695-420 55.7847317316743 125000 -26958.8693021751 0 0 181 (C1) n - 1
REM
REM in /home/nfs/bkarasulu/CARBON/AIRSS/Generating-Clusters/ReaxFF-fromJPCA2015/Units_Real/with-SteepDescent/Only-C1/SD-CG/Try1-3A/FIRE-CG
REM
REM
REM
REM
REM
REM ./C.cell (11c1c37f851c82e70ff6c80c92926a4b)
REM
REM compiler GCC version 9.2.1 20190827 (Red Hat 9.2.1-1)
REM options -cpp -mtune=generic -march=x86-64 -g -O0 -fpre-include=/usr/include/finclude/math-vector-fortran.h
REM seed 158692626 712329543 931737480 -1609996002 -1328768449 436833723 -272660717 -355148200 -889788888 -231219129 -1687564715 1158161256 1771900404 -974153079 1517526712 1264982183 -1076094871 -85627488 -171396880 -645753875 1499830854 1493179704 -570574189 954881520 -1274401478 1433622188 -486528191 -1920617158 73038489 165491608 -1069168912 -50090086 -153668833
REM
CELL 1.54180   50.00000   50.00000   50.00000   90.00000   90.00000   90.00000
LATT -1
SFAC C  
C      1  0.5265930000000  0.5469720000000  0.4427710000000 1.0
C      1  0.5359970000000  0.4046380000000  0.4740880000000 1.0
C      1  0.5018980000000  0.5452250000000  0.4867940000000 1.0
C      1  0.5142030000000  0.4708680000000  0.5357440000000 1.0
C      1  0.5398970000000  0.4693400000000  0.4367020000000 1.0
C      1  0.4018240000000  0.4611000000000  0.5034140000000 1.0
C      1  0.4098630000000  0.5392880000000  0.5256000000000 1.0
C      1  0.5464420000000  0.4486000000000  0.4537440000000 1.0
C      1  0.5457980000000  0.5375930000000  0.5914610000000 1.0
C      1  0.4474740000000  0.5003650000000  0.5505150000000 1.0
C      1  0.4312250000000  0.5151150000000  0.4072530000000 1.0
C      1  0.4904730000000  0.5692890000000  0.4972330000000 1.0
C      1  0.4403660000000  0.4428600000000  0.4894690000000 1.0
C      1  0.5148990000000  0.4220040000000  0.4183350000000 1.0
C      1  0.5885640000000  0.4470900000000  0.5432360000000 1.0
C      1  0.5691840000000  0.5410290000000  0.5761150000000 1.0
C      1  0.4897500000000  0.4535570000000  0.4547720000000 1.0
C      1  0.5103230000000  0.4315860000000  0.5404480000000 1.0
C      1  0.5684630000000  0.4115920000000  0.5087250000000 1.0
C      1  0.5628360000000  0.4430010000000  0.4052040000000 1.0
C      1  0.4822280000000  0.5632270000000  0.4172490000000 1.0
C      1  0.4978130000000  0.4372850000000  0.5987480000000 1.0
C      1  0.4412940000000  0.4072850000000  0.5094090000000 1.0
C      1  0.4679440000000  0.4987410000000  0.4663770000000 1.0
C      1  0.6061760000000  0.4695200000000  0.5340110000000 1.0
C      1  0.4322160000000  0.5752260000000  0.4730680000000 1.0
C      1  0.4198200000000  0.4963730000000  0.4451510000000 1.0
C      1  0.5087750000000  0.5344870000000  0.5094510000000 1.0
C      1  0.5610910000000  0.4558270000000  0.4985230000000 1.0
C      1  0.4913660000000  0.5441820000000  0.5482110000000 1.0
C      1  0.4078780000000  0.4472720000000  0.5259510000000 1.0
C      1  0.4734410000000  0.5873480000000  0.5617560000000 1.0
C      1  0.5424790000000  0.4863700000000  0.3916390000000 1.0
C      1  0.5189890000000  0.4480580000000  0.5196110000000 1.0
C      1  0.5498480000000  0.5081870000000  0.5938950000000 1.0
C      1  0.4855110000000  0.3945110000000  0.4829810000000 1.0
C      1  0.4440160000000  0.5010980000000  0.5199060000000 1.0
C      1  0.4560140000000  0.5998940000000  0.5416120000000 1.0
C      1  0.5154150000000  0.4967150000000  0.5273280000000 1.0
C      1  0.4668560000000  0.5815240000000  0.4348890000000 1.0
C      1  0.4286420000000  0.5485960000000  0.4311660000000 1.0
C      1  0.6054890000000  0.4776600000000  0.4886200000000 1.0
C      1  0.4240660000000  0.5110510000000  0.5654600000000 1.0
C      1  0.4436620000000  0.4665420000000  0.4870320000000 1.0
C      1  0.5017670000000  0.4692130000000  0.4084170000000 1.0
C      1  0.5061430000000  0.4951550000000  0.4783280000000 1.0
C      1  0.4407610000000  0.5851470000000  0.5208040000000 1.0
C      1  0.5303450000000  0.5514940000000  0.5178620000000 1.0
C      1  0.4456520000000  0.5929420000000  0.4921120000000 1.0
C      1  0.5260630000000  0.5973000000000  0.5195840000000 1.0
C      1  0.5340460000000  0.4457320000000  0.4961250000000 1.0
C      1  0.5045490000000  0.4986480000000  0.4497240000000 1.0
C      1  0.5296730000000  0.4325200000000  0.4708890000000 1.0
C      1  0.4849280000000  0.4363420000000  0.4772240000000 1.0
C      1  0.5140330000000  0.3924060000000  0.4895830000000 1.0
C      1  0.5720420000000  0.4503100000000  0.4667850000000 1.0
C      1  0.5623060000000  0.5330850000000  0.4830370000000 1.0
C      1  0.3963020000000  0.4775410000000  0.4813470000000 1.0
C      1  0.5716640000000  0.5712380000000  0.5349030000000 1.0
C      1  0.5842870000000  0.5582580000000  0.5112010000000 1.0
C      1  0.5507630000000  0.3999530000000  0.5547580000000 1.0
C      1  0.4657600000000  0.5218620000000  0.5134330000000 1.0
C      1  0.5097710000000  0.5047460000000  0.5704770000000 1.0
C      1  0.5458350000000  0.4013960000000  0.5253860000000 1.0
C      1  0.4402250000000  0.4365590000000  0.4355770000000 1.0
C      1  0.5261290000000  0.5749790000000  0.5621540000000 1.0
C      1  0.4005760000000  0.5211480000000  0.5492020000000 1.0
C      1  0.4716610000000  0.4645170000000  0.5301360000000 1.0
C      1  0.4884770000000  0.3990350000000  0.5296220000000 1.0
C      1  0.4353090000000  0.4173880000000  0.4817000000000 1.0
C      1  0.4435400000000  0.4543520000000  0.5716590000000 1.0
C      1  0.6025780000000  0.5070370000000  0.4980430000000 1.0
C      1  0.5227040000000  0.5535200000000  0.4696840000000 1.0
C      1  0.5355310000000  0.4383180000000  0.3998820000000 1.0
C      1  0.3891010000000  0.4945440000000  0.5433030000000 1.0
C      1  0.5774390000000  0.4975600000000  0.4262440000000 1.0
C      1  0.4831330000000  0.5971860000000  0.4549690000000 1.0
C      1  0.4712800000000  0.5693940000000  0.5840450000000 1.0
C      1  0.5823020000000  0.4388690000000  0.5161150000000 1.0
C      1  0.4786190000000  0.5732870000000  0.4721150000000 1.0
C      1  0.5236330000000  0.4642130000000  0.3899600000000 1.0
C      1  0.5116830000000  0.5161870000000  0.3935100000000 1.0
C      1  0.4972380000000  0.5734640000000  0.5473460000000 1.0
C      1  0.4834610000000  0.6232570000000  0.5026530000000 1.0
C      1  0.5435320000000  0.5564780000000  0.4899710000000 1.0
C      1  0.4465300000000  0.4965870000000  0.5988610000000 1.0
C      1  0.5682880000000  0.4540540000000  0.5597770000000 1.0
C      1  0.4446870000000  0.4822840000000  0.4611810000000 1.0
C      1  0.5784790000000  0.5507400000000  0.5521120000000 1.0
C      1  0.4159910000000  0.5145230000000  0.5112960000000 1.0
C      1  0.5495660000000  0.5135750000000  0.4664750000000 1.0
C      1  0.5440960000000  0.5828590000000  0.5410710000000 1.0
C      1  0.4848110000000  0.4167860000000  0.5831910000000 1.0
C      1  0.4859510000000  0.4645040000000  0.6034400000000 1.0
C      1  0.4593570000000  0.4706690000000  0.5961100000000 1.0
C      1  0.4730110000000  0.4161290000000  0.5553360000000 1.0
C      1  0.5653010000000  0.4058290000000  0.4805510000000 1.0
C      1  0.4682700000000  0.6236900000000  0.5280670000000 1.0
C      1  0.4520040000000  0.4497120000000  0.4108600000000 1.0
C      1  0.4703440000000  0.5245900000000  0.4542090000000 1.0
C      1  0.4964160000000  0.4252980000000  0.4379440000000 1.0
C      1  0.5138330000000  0.5277740000000  0.5533760000000 1.0
C      1  0.5728750000000  0.5492390000000  0.4347350000000 1.0
C      1  0.5351000000000  0.4925460000000  0.4789900000000 1.0
C      1  0.4514320000000  0.5396500000000  0.4933900000000 1.0
C      1  0.4287230000000  0.5610680000000  0.5330190000000 1.0
C      1  0.4409450000000  0.5717240000000  0.4446930000000 1.0
C      1  0.5858790000000  0.5110500000000  0.5528740000000 1.0
C      1  0.4165300000000  0.4551630000000  0.4332180000000 1.0
C      1  0.4031250000000  0.4740990000000  0.4518520000000 1.0
C      1  0.4664270000000  0.5475370000000  0.4697570000000 1.0
C      1  0.6074710000000  0.4561870000000  0.5080540000000 1.0
C      1  0.5337190000000  0.5880310000000  0.4308550000000 1.0
C      1  0.5614410000000  0.5219140000000  0.4204080000000 1.0
C      1  0.4286360000000  0.4663200000000  0.4083790000000 1.0
C      1  0.5380760000000  0.5362420000000  0.5405740000000 1.0
C      1  0.5169370000000  0.5991230000000  0.4501750000000 1.0
C      1  0.4159730000000  0.4663590000000  0.5725000000000 1.0
C      1  0.5760460000000  0.4704660000000  0.5812510000000 1.0
C      1  0.4197080000000  0.4915070000000  0.5867700000000 1.0
C      1  0.5421060000000  0.5241570000000  0.4416330000000 1.0
C      1  0.5184350000000  0.4785690000000  0.5629840000000 1.0
C      1  0.4704190000000  0.5438960000000  0.3990620000000 1.0
C      1  0.5031440000000  0.5455080000000  0.4275470000000 1.0
C      1  0.5117980000000  0.4156570000000  0.5865400000000 1.0
C      1  0.5282070000000  0.4624950000000  0.5865290000000 1.0
C      1  0.4957650000000  0.5561570000000  0.5946050000000 1.0
C      1  0.5781510000000  0.5288240000000  0.5076010000000 1.0
C      1  0.4973690000000  0.5078610000000  0.5061750000000 1.0
C      1  0.5733500000000  0.4992630000000  0.5789610000000 1.0
C      1  0.4571530000000  0.5251490000000  0.5972790000000 1.0
C      1  0.5819690000000  0.5676850000000  0.4836920000000 1.0
C      1  0.5045140000000  0.4861240000000  0.6114940000000 1.0
C      1  0.4675430000000  0.6100810000000  0.4818440000000 1.0
C      1  0.5386370000000  0.5141740000000  0.3961290000000 1.0
C      1  0.4643000000000  0.4943120000000  0.3932420000000 1.0
C      1  0.4450900000000  0.4279360000000  0.5545690000000 1.0
C      1  0.5948240000000  0.4665350000000  0.4633620000000 1.0
C      1  0.5001420000000  0.5843620000000  0.5196340000000 1.0
C      1  0.5516030000000  0.4830030000000  0.5010260000000 1.0
C      1  0.4416380000000  0.5398090000000  0.4061100000000 1.0
C      1  0.4006080000000  0.5065290000000  0.4880150000000 1.0
C      1  0.4069140000000  0.5305640000000  0.4726510000000 1.0
C      1  0.5802570000000  0.4283940000000  0.4729470000000 1.0
C      1  0.5851740000000  0.5453420000000  0.4630640000000 1.0
C      1  0.5145050000000  0.6215710000000  0.5080350000000 1.0
C      1  0.5611280000000  0.5191500000000  0.5322170000000 1.0
C      1  0.5552020000000  0.5706240000000  0.4282950000000 1.0
C      1  0.4769750000000  0.4087750000000  0.4575550000000 1.0
C      1  0.4502080000000  0.5485020000000  0.5813650000000 1.0
C      1  0.4517160000000  0.4746810000000  0.5117600000000 1.0
C      1  0.5009710000000  0.5091170000000  0.5969290000000 1.0
C      1  0.4146780000000  0.5253800000000  0.4446310000000 1.0
C      1  0.4840790000000  0.4426570000000  0.5444710000000 1.0
C      1  0.4307940000000  0.4256360000000  0.5305540000000 1.0
C      1  0.5972730000000  0.5156520000000  0.4705070000000 1.0
C      1  0.5551330000000  0.4514010000000  0.5839950000000 1.0
C      1  0.5440240000000  0.4963470000000  0.5245180000000 1.0
C      1  0.5135530000000  0.4781440000000  0.4331190000000 1.0
C      1  0.4369090000000  0.4924400000000  0.3985510000000 1.0
C      1  0.5576800000000  0.5841050000000  0.4839340000000 1.0
C      1  0.5996340000000  0.4974280000000  0.5318370000000 1.0
C      1  0.4699520000000  0.3974260000000  0.5083920000000 1.0
C      1  0.4732840000000  0.4682950000000  0.4020370000000 1.0
C      1  0.4460160000000  0.5472960000000  0.5523810000000 1.0
C      1  0.4921650000000  0.5208540000000  0.4371100000000 1.0
C      1  0.4672130000000  0.5337460000000  0.5397680000000 1.0
C      1  0.5921020000000  0.4943720000000  0.4508720000000 1.0
C      1  0.4006560000000  0.4672280000000  0.5475660000000 1.0
C      1  0.4245340000000  0.5502210000000  0.4871910000000 1.0
C      1  0.4601270000000  0.4745730000000  0.5540810000000 1.0
C      1  0.5325630000000  0.4853040000000  0.6048540000000 1.0
C      1  0.4833610000000  0.5188290000000  0.3914970000000 1.0
C      1  0.4713970000000  0.4759570000000  0.4496430000000 1.0
C      1  0.5255160000000  0.4157540000000  0.5608830000000 1.0
C      1  0.5147870000000  0.3955560000000  0.5184810000000 1.0
C      1  0.4480440000000  0.4163870000000  0.4546470000000 1.0
C      1  0.5236810000000  0.5580380000000  0.5853850000000 1.0
C      1  0.4847500000000  0.5308990000000  0.6035340000000 1.0
C      1  0.5377280000000  0.5975000000000  0.4689450000000 1.0
C      1  0.5606300000000  0.4752690000000  0.4148820000000 1.0
END
