TITL C-884139-6216-441 19.792739368186 125000 -18274.793650554 0 0 122 (C1) n - 1
REM
REM in /home/nfs/bkarasulu/CARBON/AIRSS/Generating-Clusters/ReaxFF-fromJPCA2015/Units_Real/with-SteepDescent/Only-C1/SD-CG/Try1-3A/FIRE-CG
REM
REM
REM
REM
REM
REM ./C.cell (11c1c37f851c82e70ff6c80c92926a4b)
REM
REM compiler GCC version 9.2.1 20190827 (Red Hat 9.2.1-1)
REM options -cpp -mtune=generic -march=x86-64 -g -O0 -fpre-include=/usr/include/finclude/math-vector-fortran.h
REM seed 1510300841 -2058859168 1133988625 -1471865395 -787464964 1592005601 917331075 875484732 344131315 -1787213069 -1666605977 346184764 -609182994 1071854885 1911539081 1857136984 -216521453 842901280 677755366 -718677216 1445431756 731950406 -1023922108 -923719852 775730218 731474681 902530001 1845963674 -1219293462 1428489958 -1705176350 131064117 1630811115
REM
CELL 1.54180   50.00000   50.00000   50.00000   90.00000   90.00000   90.00000
LATT -1
SFAC C  
C      1  0.4171840000000  0.5288650000000  0.5399920000000 1.0
C      1  0.5417050000000  0.4743830000000  0.4092800000000 1.0
C      1  0.5556000000000  0.5807850000000  0.4910750000000 1.0
C      1  0.5938590000000  0.4648610000000  0.5461030000000 1.0
C      1  0.4373560000000  0.5434960000000  0.5554520000000 1.0
C      1  0.4615330000000  0.4751490000000  0.5717340000000 1.0
C      1  0.4154450000000  0.4956800000000  0.5068970000000 1.0
C      1  0.5529160000000  0.4272120000000  0.5189400000000 1.0
C      1  0.5463160000000  0.4435030000000  0.5561310000000 1.0
C      1  0.5780830000000  0.4828860000000  0.5600800000000 1.0
C      1  0.4729910000000  0.5227640000000  0.5892460000000 1.0
C      1  0.4189780000000  0.5122580000000  0.4514710000000 1.0
C      1  0.5168590000000  0.5939560000000  0.4580890000000 1.0
C      1  0.4962540000000  0.5302700000000  0.4175540000000 1.0
C      1  0.5046590000000  0.5766160000000  0.4797300000000 1.0
C      1  0.4175720000000  0.5483310000000  0.5181500000000 1.0
C      1  0.5664230000000  0.5383520000000  0.4672100000000 1.0
C      1  0.5851420000000  0.5187850000000  0.4788330000000 1.0
C      1  0.4618060000000  0.5425750000000  0.5710070000000 1.0
C      1  0.4568870000000  0.4747190000000  0.5232540000000 1.0
C      1  0.4294440000000  0.4390000000000  0.4656850000000 1.0
C      1  0.5577720000000  0.4826290000000  0.5809800000000 1.0
C      1  0.5822330000000  0.4546420000000  0.4529680000000 1.0
C      1  0.5600540000000  0.5679380000000  0.5168670000000 1.0
C      1  0.4705060000000  0.4844050000000  0.4218000000000 1.0
C      1  0.5436930000000  0.4805330000000  0.5133160000000 1.0
C      1  0.5783880000000  0.4904470000000  0.4735540000000 1.0
C      1  0.5800300000000  0.4815280000000  0.4445360000000 1.0
C      1  0.4540520000000  0.5886080000000  0.4991130000000 1.0
C      1  0.5282350000000  0.4221260000000  0.4594620000000 1.0
C      1  0.4226710000000  0.4496330000000  0.5431350000000 1.0
C      1  0.3960620000000  0.4872200000000  0.4842180000000 1.0
C      1  0.4962050000000  0.4390490000000  0.5698600000000 1.0
C      1  0.4894850000000  0.4795220000000  0.3978220000000 1.0
C      1  0.5299340000000  0.4113750000000  0.5083390000000 1.0
C      1  0.4979070000000  0.5313520000000  0.4896710000000 1.0
C      1  0.5168530000000  0.4888910000000  0.3979850000000 1.0
C      1  0.4095180000000  0.5003410000000  0.5350620000000 1.0
C      1  0.4949740000000  0.4677140000000  0.5200280000000 1.0
C      1  0.4272750000000  0.5385350000000  0.4472680000000 1.0
C      1  0.4279190000000  0.4634700000000  0.4486270000000 1.0
C      1  0.4865970000000  0.5362620000000  0.5159590000000 1.0
C      1  0.4833700000000  0.5631030000000  0.5649380000000 1.0
C      1  0.5341240000000  0.4555320000000  0.4301690000000 1.0
C      1  0.5913330000000  0.5233710000000  0.5068160000000 1.0
C      1  0.4440010000000  0.4927710000000  0.5025000000000 1.0
C      1  0.5377290000000  0.5719470000000  0.5381910000000 1.0
C      1  0.5341040000000  0.5555070000000  0.5637210000000 1.0
C      1  0.4805170000000  0.4957780000000  0.4722300000000 1.0
C      1  0.4665110000000  0.4455880000000  0.5717850000000 1.0
C      1  0.4428100000000  0.5612380000000  0.5305660000000 1.0
C      1  0.4703910000000  0.5657170000000  0.4689600000000 1.0
C      1  0.4727780000000  0.5595120000000  0.4403290000000 1.0
C      1  0.5231400000000  0.4606280000000  0.5203100000000 1.0
C      1  0.4483150000000  0.4620440000000  0.4285640000000 1.0
C      1  0.4208930000000  0.4786740000000  0.5505580000000 1.0
C      1  0.5923100000000  0.4962620000000  0.5197860000000 1.0
C      1  0.5035390000000  0.5127520000000  0.5591700000000 1.0
C      1  0.4597970000000  0.5880830000000  0.5258810000000 1.0
C      1  0.5127220000000  0.4584230000000  0.5844560000000 1.0
C      1  0.5604960000000  0.4912740000000  0.4238440000000 1.0
C      1  0.5186150000000  0.5079440000000  0.5972770000000 1.0
C      1  0.5077570000000  0.5549880000000  0.5777310000000 1.0
C      1  0.5747480000000  0.4373710000000  0.4737500000000 1.0
C      1  0.5203740000000  0.5142270000000  0.4127970000000 1.0
C      1  0.5116290000000  0.5795180000000  0.5369390000000 1.0
C      1  0.5666280000000  0.4960500000000  0.5344890000000 1.0
C      1  0.4826620000000  0.4688060000000  0.4716010000000 1.0
C      1  0.5962000000000  0.4663390000000  0.5183280000000 1.0
C      1  0.5642420000000  0.4731450000000  0.4932570000000 1.0
C      1  0.5478160000000  0.5305560000000  0.5638530000000 1.0
C      1  0.5421450000000  0.4576070000000  0.5797390000000 1.0
C      1  0.4545620000000  0.5371960000000  0.4328090000000 1.0
C      1  0.5047780000000  0.4125120000000  0.5231300000000 1.0
C      1  0.5409380000000  0.5331100000000  0.4818670000000 1.0
C      1  0.4389680000000  0.4334920000000  0.4939480000000 1.0
C      1  0.5006020000000  0.5317860000000  0.5948060000000 1.0
C      1  0.4885990000000  0.5156170000000  0.5360830000000 1.0
C      1  0.4906350000000  0.4423860000000  0.4309840000000 1.0
C      1  0.5357400000000  0.4691970000000  0.4564890000000 1.0
C      1  0.4441420000000  0.4377170000000  0.5568390000000 1.0
C      1  0.4509280000000  0.4218590000000  0.4553930000000 1.0
C      1  0.5446000000000  0.5088710000000  0.5827860000000 1.0
C      1  0.5350590000000  0.4385700000000  0.5354310000000 1.0
C      1  0.5301020000000  0.5930260000000  0.4839420000000 1.0
C      1  0.5070410000000  0.5056600000000  0.4777610000000 1.0
C      1  0.4753550000000  0.4934680000000  0.5889400000000 1.0
C      1  0.5738860000000  0.4466800000000  0.5027870000000 1.0
C      1  0.5234860000000  0.5017060000000  0.5078240000000 1.0
C      1  0.5220330000000  0.5753490000000  0.4350380000000 1.0
C      1  0.5666570000000  0.5680790000000  0.4658490000000 1.0
C      1  0.4585540000000  0.5088880000000  0.4838670000000 1.0
C      1  0.3712320000000  0.4810450000000  0.4883320000000 1.0
C      1  0.4615540000000  0.4366300000000  0.4316260000000 1.0
C      1  0.5458640000000  0.4439810000000  0.4691800000000 1.0
C      1  0.5158010000000  0.5490470000000  0.4769270000000 1.0
C      1  0.4539140000000  0.5385970000000  0.4853960000000 1.0
C      1  0.4240010000000  0.5610290000000  0.4670570000000 1.0
C      1  0.4616220000000  0.4188180000000  0.4830100000000 1.0
C      1  0.4457700000000  0.5812910000000  0.4730960000000 1.0
C      1  0.5473100000000  0.5685860000000  0.4454220000000 1.0
C      1  0.5016560000000  0.4950750000000  0.5237910000000 1.0
C      1  0.5385000000000  0.5245870000000  0.5096410000000 1.0
C      1  0.4897710000000  0.4242790000000  0.4945750000000 1.0
C      1  0.4846620000000  0.5826650000000  0.5422710000000 1.0
C      1  0.5315430000000  0.4981130000000  0.4604860000000 1.0
C      1  0.4708150000000  0.5167730000000  0.4227520000000 1.0
C      1  0.5401120000000  0.5096110000000  0.4344730000000 1.0
C      1  0.5152860000000  0.4109750000000  0.4829250000000 1.0
C      1  0.4481040000000  0.4830980000000  0.5492580000000 1.0
C      1  0.4401990000000  0.4497560000000  0.5188560000000 1.0
C      1  0.4985860000000  0.5575590000000  0.4276530000000 1.0
C      1  0.5022810000000  0.4835160000000  0.5950960000000 1.0
C      1  0.4111180000000  0.4873710000000  0.4554540000000 1.0
C      1  0.4227140000000  0.5437760000000  0.4897230000000 1.0
C      1  0.5566240000000  0.5254490000000  0.5336730000000 1.0
C      1  0.5175710000000  0.4313140000000  0.4337070000000 1.0
C      1  0.4878090000000  0.4685740000000  0.4435020000000 1.0
C      1  0.4930430000000  0.4542930000000  0.4940830000000 1.0
C      1  0.4609080000000  0.5454270000000  0.5124320000000 1.0
C      1  0.5769500000000  0.5448100000000  0.5209040000000 1.0
C      1  0.5089480000000  0.4233660000000  0.5491050000000 1.0
END
