TITL C-884138-6203-387 4.87614003920709 125000 -6558.38773645855 0 0 46 (C1) n - 1
REM
REM in /home/nfs/bkarasulu/CARBON/AIRSS/Generating-Clusters/ReaxFF-fromJPCA2015/Units_Real/with-SteepDescent/Only-C1/SD-CG/Try1-3A/FIRE-CG
REM
REM
REM
REM
REM
REM ./C.cell (11c1c37f851c82e70ff6c80c92926a4b)
REM
REM compiler GCC version 9.2.1 20190827 (Red Hat 9.2.1-1)
REM options -cpp -mtune=generic -march=x86-64 -g -O0 -fpre-include=/usr/include/finclude/math-vector-fortran.h
REM seed 623207617 -654979184 1351453537 -1629088393 -1032719404 -1535154724 -1294357094 -541553212 520611850 208979947 -1766312710 -189100111 874063067 -474579052 1452719971 1493327168 -1767180053 524484848 -29046743 447750775 -1009727192 1518018517 -644550058 65727118 -1695907870 -667954732 972650921 195085191 839815630 -15682232 -614080688 981839554 -1941553475
REM
CELL 1.54180   50.00000   50.00000   50.00000   90.00000   90.00000   90.00000
LATT -1
SFAC C  
C      1  0.4967590000000  0.4858140000000  0.5291790000000 1.0
C      1  0.5060230000000  0.5368780000000  0.4570000000000 1.0
C      1  0.5430270000000  0.4645650000000  0.5196390000000 1.0
C      1  0.5503640000000  0.5445080000000  0.5096560000000 1.0
C      1  0.4833560000000  0.5026040000000  0.4756680000000 1.0
C      1  0.4380240000000  0.4722970000000  0.4772810000000 1.0
C      1  0.4984160000000  0.5357620000000  0.4246100000000 1.0
C      1  0.4803380000000  0.4701060000000  0.5127450000000 1.0
C      1  0.4416940000000  0.4837500000000  0.5294370000000 1.0
C      1  0.4774100000000  0.5446840000000  0.4663800000000 1.0
C      1  0.4627100000000  0.4574130000000  0.4700190000000 1.0
C      1  0.4935720000000  0.5136660000000  0.5639440000000 1.0
C      1  0.5369020000000  0.4446300000000  0.4843320000000 1.0
C      1  0.4610900000000  0.4606700000000  0.5323550000000 1.0
C      1  0.4954210000000  0.4849370000000  0.5584920000000 1.0
C      1  0.5197870000000  0.4435910000000  0.5221350000000 1.0
C      1  0.5123050000000  0.5085500000000  0.5195900000000 1.0
C      1  0.4576800000000  0.5418870000000  0.4879330000000 1.0
C      1  0.4938260000000  0.5200520000000  0.4971670000000 1.0
C      1  0.5095530000000  0.5307540000000  0.5445010000000 1.0
C      1  0.4896140000000  0.4612650000000  0.4855650000000 1.0
C      1  0.5054690000000  0.4856820000000  0.4689790000000 1.0
C      1  0.4809160000000  0.5435310000000  0.5083740000000 1.0
C      1  0.4631540000000  0.4709840000000  0.4443190000000 1.0
C      1  0.4994750000000  0.4464780000000  0.5420570000000 1.0
C      1  0.4520340000000  0.5052700000000  0.5426490000000 1.0
C      1  0.5692240000000  0.4858490000000  0.4805430000000 1.0
C      1  0.4348700000000  0.4919990000000  0.5002530000000 1.0
C      1  0.5219000000000  0.5558900000000  0.4718630000000 1.0
C      1  0.5569540000000  0.5105260000000  0.5430720000000 1.0
C      1  0.5510260000000  0.5078390000000  0.4717860000000 1.0
C      1  0.5572600000000  0.4609040000000  0.4941980000000 1.0
C      1  0.4774400000000  0.5174630000000  0.4232660000000 1.0
C      1  0.5645340000000  0.5266330000000  0.4909470000000 1.0
C      1  0.4837660000000  0.5441270000000  0.5373800000000 1.0
C      1  0.5109360000000  0.4400640000000  0.4934890000000 1.0
C      1  0.5373070000000  0.5677550000000  0.4929780000000 1.0
C      1  0.5395020000000  0.4932240000000  0.5253720000000 1.0
C      1  0.5411410000000  0.5348370000000  0.5352380000000 1.0
C      1  0.4394200000000  0.4860300000000  0.4512020000000 1.0
C      1  0.5230070000000  0.5073960000000  0.4645920000000 1.0
C      1  0.4790210000000  0.4596360000000  0.5561860000000 1.0
C      1  0.4676640000000  0.5251560000000  0.5545650000000 1.0
C      1  0.4443690000000  0.5168200000000  0.4938000000000 1.0
C      1  0.4656360000000  0.5023530000000  0.4489400000000 1.0
C      1  0.5861030000000  0.5051700000000  0.4963240000000 1.0
END
