TITL C-884141-4321-29 492589.029368971 125000 -12818.7507157683 0 0 86 (C1) n - 1
REM
REM in /home/nfs/bkarasulu/CARBON/AIRSS/Generating-Clusters/ReaxFF-fromJPCA2015/Units_Real/with-SteepDescent/Only-C1/SD-CG/Try1-3A/FIRE-CG
REM
REM
REM
REM
REM
REM ./C.cell (11c1c37f851c82e70ff6c80c92926a4b)
REM
REM compiler GCC version 9.2.1 20190827 (Red Hat 9.2.1-1)
REM options -cpp -mtune=generic -march=x86-64 -g -O0 -fpre-include=/usr/include/finclude/math-vector-fortran.h
REM seed 315779950 -1330082622 1727853160 956311082 1507137286 -1817080082 1109309851 -2002445928 496548471 -968210145 -1286877996 -613734597 130628103 -2079792219 593078396 2211648 2017470705 -1033670778 -150852018 -144101242 -1444643227 -214241709 -264119562 -523405899 -103323712 -825553515 2102433386 -410599685 1496207053 1199434864 129751866 1731847084 2013386616
REM
CELL 1.54180   50.00000   50.00000   50.00000   90.00000   90.00000   90.00000
LATT -1
SFAC C  
C      1  0.5661710000000  0.4396240000000  0.5178990000000 1.0
C      1  0.5421290000000  0.4568680000000  0.4699160000000 1.0
C      1  0.4420840000000  0.4752140000000  0.5541130000000 1.0
C      1  0.4921280000000  0.5855570000000  0.4807360000000 1.0
C      1  0.4903110000000  0.5464970000000  0.5629320000000 1.0
C      1  0.4442760000000  0.4718400000000  0.4802670000000 1.0
C      1  0.5313200000000  0.5691890000000  0.5085810000000 1.0
C      1  0.4779800000000  0.5439140000000  0.5016190000000 1.0
C      1  0.4472590000000  0.5535120000000  0.5428390000000 1.0
C      1  0.4815320000000  0.5227040000000  0.5108350000000 1.0
C      1  0.4792470000000  0.5740450000000  0.4574030000000 1.0
C      1  0.4243930000000  0.5166380000000  0.4631430000000 1.0
C      1  0.5324250000000  0.5623340000000  0.5371650000000 1.0
C      1  0.5194410000000  0.5453500000000  0.5575240000000 1.0
C      1  0.4635660000000  0.4859390000000  0.5368120000000 1.0
C      1  0.5049040000000  0.4232540000000  0.4809630000000 1.0
C      1  0.5442780000000  0.4716920000000  0.4952120000000 1.0
C      1  0.4668240000000  0.4514970000000  0.4742530000000 1.0
C      1  0.5055850000000  0.4532430000000  0.5394880000000 1.0
C      1  0.4344030000000  0.5422110000000  0.4664710000000 1.0
C      1  0.5864100000000  0.5045550000000  0.4782080000000 1.0
C      1  0.4368280000000  0.5590090000000  0.5165760000000 1.0
C      1  0.5203300000000  0.4964860000000  0.5732940000000 1.0
C      1  0.5045110000000  0.5664170000000  0.4467370000000 1.0
C      1  0.5056410000000  0.5851990000000  0.5054630000000 1.0
C      1  0.4752520000000  0.5295500000000  0.4424740000000 1.0
C      1  0.4620570000000  0.5671880000000  0.5031800000000 1.0
C      1  0.4809640000000  0.5803120000000  0.5221660000000 1.0
C      1  0.5356120000000  0.5012820000000  0.5015830000000 1.0
C      1  0.5822630000000  0.4765660000000  0.4760470000000 1.0
C      1  0.4233840000000  0.4882480000000  0.4580470000000 1.0
C      1  0.4833500000000  0.4253090000000  0.5169200000000 1.0
C      1  0.4291040000000  0.4781490000000  0.4308040000000 1.0
C      1  0.5672070000000  0.4448530000000  0.5470140000000 1.0
C      1  0.4210040000000  0.4937130000000  0.5236950000000 1.0
C      1  0.4604060000000  0.4535000000000  0.5633900000000 1.0
C      1  0.4925300000000  0.4634220000000  0.4704040000000 1.0
C      1  0.5869380000000  0.5276320000000  0.5114520000000 1.0
C      1  0.4601850000000  0.4972440000000  0.4741060000000 1.0
C      1  0.5429740000000  0.4284970000000  0.5509320000000 1.0
C      1  0.4995350000000  0.4814540000000  0.4920210000000 1.0
C      1  0.5644020000000  0.5518650000000  0.4694000000000 1.0
C      1  0.5132300000000  0.4224220000000  0.5086580000000 1.0
C      1  0.4910910000000  0.4980450000000  0.5786110000000 1.0
C      1  0.5325150000000  0.5090690000000  0.5272720000000 1.0
C      1  0.4293240000000  0.5004990000000  0.5515040000000 1.0
C      1  0.4646610000000  0.4352070000000  0.5375580000000 1.0
C      1  0.5497350000000  0.4900420000000  0.4380620000000 1.0
C      1  0.4640770000000  0.5048000000000  0.4478210000000 1.0
C      1  0.4491250000000  0.4500530000000  0.5214110000000 1.0
C      1  0.5628090000000  0.4695910000000  0.4539950000000 1.0
C      1  0.5751890000000  0.4942780000000  0.5478410000000 1.0
C      1  0.5047550000000  0.5024450000000  0.4152860000000 1.0
C      1  0.5482200000000  0.5153910000000  0.4534710000000 1.0
C      1  0.4208470000000  0.5168460000000  0.5085160000000 1.0
C      1  0.4337790000000  0.4687850000000  0.5087170000000 1.0
C      1  0.4907280000000  0.4774560000000  0.5389390000000 1.0
C      1  0.4732900000000  0.5650630000000  0.5467070000000 1.0
C      1  0.4779290000000  0.4708830000000  0.5782440000000 1.0
C      1  0.5411990000000  0.5505680000000  0.4870120000000 1.0
C      1  0.5362190000000  0.4725010000000  0.5714250000000 1.0
C      1  0.4766170000000  0.4271170000000  0.4877010000000 1.0
C      1  0.5509890000000  0.5430400000000  0.4448250000000 1.0
C      1  0.4573600000000  0.4888480000000  0.4258470000000 1.0
C      1  0.4770970000000  0.5226620000000  0.5713940000000 1.0
C      1  0.4637780000000  0.5127430000000  0.5299400000000 1.0
C      1  0.5252950000000  0.4823920000000  0.4238010000000 1.0
C      1  0.5234880000000  0.4480560000000  0.5616750000000 1.0
C      1  0.5221330000000  0.5490860000000  0.4344260000000 1.0
C      1  0.5401240000000  0.4246160000000  0.5217810000000 1.0
C      1  0.4800020000000  0.4879250000000  0.4069100000000 1.0
C      1  0.5828600000000  0.5134070000000  0.5323940000000 1.0
C      1  0.5360600000000  0.5221730000000  0.4798340000000 1.0
C      1  0.5126120000000  0.4561980000000  0.4296610000000 1.0
C      1  0.5013370000000  0.5285710000000  0.4279980000000 1.0
C      1  0.4503540000000  0.5242680000000  0.5541000000000 1.0
C      1  0.5852800000000  0.5321240000000  0.4833720000000 1.0
C      1  0.4229450000000  0.5413840000000  0.4962910000000 1.0
C      1  0.5713420000000  0.4639920000000  0.5020560000000 1.0
C      1  0.4842590000000  0.5057300000000  0.4889250000000 1.0
C      1  0.5085340000000  0.4727960000000  0.5179190000000 1.0
C      1  0.4888260000000  0.4631790000000  0.4169470000000 1.0
C      1  0.4603410000000  0.5500250000000  0.4552690000000 1.0
C      1  0.5293330000000  0.5170680000000  0.5536700000000 1.0
C      1  0.5638780000000  0.4715740000000  0.5600540000000 1.0
C      1  0.5152900000000  0.4455090000000  0.4600740000000 1.0
END
