TITL C-884134-5972-12 1672448.16219212 125000 -22286.8019242063 0 0 148 (C1) n - 1
REM
REM in /home/nfs/bkarasulu/CARBON/AIRSS/Generating-Clusters/ReaxFF-fromJPCA2015/Units_Real/with-SteepDescent/Only-C1/SD-CG/Try1-3A/FIRE-CG
REM
REM
REM
REM
REM
REM ./C.cell (11c1c37f851c82e70ff6c80c92926a4b)
REM
REM compiler GCC version 9.2.1 20190827 (Red Hat 9.2.1-1)
REM options -cpp -mtune=generic -march=x86-64 -g -O0 -fpre-include=/usr/include/finclude/math-vector-fortran.h
REM seed -1866395398 1048475249 -1693986722 -1014423190 1421530856 2014240738 -1180793567 -2032380743 1057231933 -1164055002 1547619366 1659672471 946929197 -289878847 -275831030 -1254651502 444602799 522286848 -1871600745 1254630830 -409921496 -1579871254 -410939626 -1704623317 -977121907 -285610063 700130406 -1017859456 957058709 -1855960746 683991162 1471156542 -1267936334
REM
CELL 1.54180   50.00000   50.00000   50.00000   90.00000   90.00000   90.00000
LATT -1
SFAC C  
C      1  0.5061790000000  0.6064980000000  0.4882700000000 1.0
C      1  0.5706030000000  0.4296970000000  0.4634560000000 1.0
C      1  0.4432650000000  0.5790020000000  0.4497360000000 1.0
C      1  0.4879830000000  0.5967720000000  0.4639140000000 1.0
C      1  0.4988510000000  0.4891930000000  0.5974800000000 1.0
C      1  0.5803990000000  0.4559490000000  0.5741540000000 1.0
C      1  0.4341230000000  0.4907550000000  0.4331770000000 1.0
C      1  0.5026910000000  0.4219110000000  0.4253000000000 1.0
C      1  0.4984030000000  0.5713730000000  0.4516250000000 1.0
C      1  0.5235130000000  0.4069920000000  0.4943020000000 1.0
C      1  0.5111590000000  0.3995440000000  0.4427130000000 1.0
C      1  0.4580640000000  0.4541310000000  0.5689110000000 1.0
C      1  0.4375560000000  0.4696120000000  0.5829880000000 1.0
C      1  0.4879040000000  0.4626840000000  0.4084790000000 1.0
C      1  0.5498350000000  0.4542500000000  0.5265740000000 1.0
C      1  0.4245650000000  0.5625080000000  0.4637390000000 1.0
C      1  0.5833790000000  0.5310180000000  0.5387560000000 1.0
C      1  0.4478640000000  0.5016210000000  0.5168760000000 1.0
C      1  0.5880510000000  0.4580680000000  0.4945290000000 1.0
C      1  0.3894710000000  0.5253330000000  0.5370340000000 1.0
C      1  0.4395610000000  0.4616690000000  0.4310950000000 1.0
C      1  0.5047720000000  0.6232000000000  0.5076520000000 1.0
C      1  0.5155930000000  0.3916900000000  0.4709840000000 1.0
C      1  0.4953860000000  0.5061920000000  0.4859150000000 1.0
C      1  0.5588320000000  0.4606110000000  0.4995160000000 1.0
C      1  0.5090280000000  0.5738950000000  0.5504110000000 1.0
C      1  0.4315510000000  0.4787090000000  0.4741100000000 1.0
C      1  0.4228570000000  0.4486380000000  0.5391030000000 1.0
C      1  0.4405560000000  0.5378060000000  0.4277020000000 1.0
C      1  0.4891140000000  0.4224910000000  0.5599710000000 1.0
C      1  0.5616980000000  0.4753810000000  0.4188890000000 1.0
C      1  0.4571680000000  0.5287380000000  0.5202420000000 1.0
C      1  0.5725400000000  0.5094620000000  0.5834480000000 1.0
C      1  0.4287050000000  0.5162650000000  0.5940910000000 1.0
C      1  0.5841210000000  0.5195270000000  0.4224720000000 1.0
C      1  0.5492180000000  0.4453340000000  0.4771990000000 1.0
C      1  0.4468680000000  0.4941620000000  0.5992080000000 1.0
C      1  0.4827340000000  0.5333930000000  0.6027500000000 1.0
C      1  0.5077170000000  0.4775220000000  0.5250150000000 1.0
C      1  0.4881980000000  0.3922310000000  0.4591060000000 1.0
C      1  0.5179300000000  0.4676180000000  0.4550550000000 1.0
C      1  0.5094720000000  0.5388000000000  0.5931740000000 1.0
C      1  0.4298690000000  0.4409080000000  0.4503500000000 1.0
C      1  0.5944240000000  0.4829210000000  0.5453690000000 1.0
C      1  0.5312590000000  0.5195780000000  0.5022130000000 1.0
C      1  0.4513170000000  0.5473550000000  0.4977710000000 1.0
C      1  0.5949300000000  0.4845200000000  0.4827330000000 1.0
C      1  0.4350420000000  0.5908590000000  0.5126850000000 1.0
C      1  0.5867380000000  0.5473180000000  0.4655660000000 1.0
C      1  0.5232540000000  0.4473780000000  0.4719040000000 1.0
C      1  0.4765640000000  0.4671320000000  0.5009630000000 1.0
C      1  0.5041570000000  0.4629100000000  0.5855110000000 1.0
C      1  0.5342960000000  0.4061130000000  0.5407700000000 1.0
C      1  0.5863110000000  0.5048380000000  0.5266310000000 1.0
C      1  0.4834360000000  0.4400850000000  0.4986890000000 1.0
C      1  0.5227060000000  0.4542070000000  0.5393740000000 1.0
C      1  0.4745550000000  0.5035390000000  0.6009580000000 1.0
C      1  0.5088330000000  0.4929670000000  0.4639640000000 1.0
C      1  0.4737890000000  0.4248400000000  0.4297520000000 1.0
C      1  0.4364230000000  0.5273140000000  0.5757980000000 1.0
C      1  0.5120350000000  0.4471100000000  0.4143920000000 1.0
C      1  0.5311080000000  0.4659170000000  0.4278610000000 1.0
C      1  0.5727070000000  0.4367020000000  0.5323550000000 1.0
C      1  0.3946310000000  0.4979750000000  0.5260330000000 1.0
C      1  0.5207850000000  0.4962680000000  0.4185870000000 1.0
C      1  0.5203760000000  0.5113150000000  0.5989040000000 1.0
C      1  0.5528780000000  0.4430500000000  0.5776500000000 1.0
C      1  0.4488670000000  0.5117360000000  0.4184430000000 1.0
C      1  0.5691460000000  0.5323570000000  0.5640630000000 1.0
C      1  0.4709790000000  0.5688500000000  0.4896780000000 1.0
C      1  0.5850070000000  0.5502380000000  0.4919640000000 1.0
C      1  0.3955040000000  0.5042950000000  0.4765210000000 1.0
C      1  0.4003380000000  0.5509210000000  0.5047620000000 1.0
C      1  0.4789930000000  0.4131640000000  0.5354950000000 1.0
C      1  0.5922630000000  0.4527930000000  0.5472400000000 1.0
C      1  0.4769330000000  0.5143290000000  0.4089690000000 1.0
C      1  0.4119640000000  0.4653210000000  0.4919880000000 1.0
C      1  0.4553850000000  0.5632880000000  0.4275230000000 1.0
C      1  0.5970110000000  0.4933000000000  0.4550320000000 1.0
C      1  0.5783880000000  0.4476990000000  0.4436280000000 1.0
C      1  0.5730370000000  0.4162450000000  0.5111870000000 1.0
C      1  0.5639400000000  0.5017660000000  0.4081390000000 1.0
C      1  0.4903400000000  0.4885760000000  0.5467850000000 1.0
C      1  0.5297780000000  0.5792900000000  0.5278030000000 1.0
C      1  0.5282130000000  0.4999040000000  0.5235430000000 1.0
C      1  0.4067000000000  0.5236310000000  0.4951940000000 1.0
C      1  0.5379260000000  0.5132900000000  0.4006520000000 1.0
C      1  0.5865950000000  0.4294310000000  0.4888270000000 1.0
C      1  0.4790810000000  0.5784240000000  0.5512160000000 1.0
C      1  0.4328370000000  0.5345930000000  0.4561870000000 1.0
C      1  0.5865120000000  0.4718410000000  0.4341380000000 1.0
C      1  0.5087600000000  0.4329360000000  0.4905560000000 1.0
C      1  0.5663750000000  0.5689440000000  0.4598620000000 1.0
C      1  0.5453960000000  0.4212640000000  0.5615400000000 1.0
C      1  0.4201960000000  0.4430020000000  0.5092660000000 1.0
C      1  0.4682220000000  0.5059460000000  0.4827680000000 1.0
C      1  0.4187250000000  0.4633000000000  0.5629440000000 1.0
C      1  0.5408730000000  0.5386030000000  0.5575950000000 1.0
C      1  0.5467560000000  0.5192360000000  0.4566060000000 1.0
C      1  0.5233340000000  0.5380380000000  0.4036640000000 1.0
C      1  0.5458450000000  0.4043670000000  0.5135740000000 1.0
C      1  0.5608930000000  0.5329130000000  0.4343410000000 1.0
C      1  0.5429830000000  0.5786080000000  0.4760170000000 1.0
C      1  0.4846030000000  0.5346220000000  0.5274700000000 1.0
C      1  0.4666940000000  0.4220290000000  0.5113060000000 1.0
C      1  0.5036320000000  0.5320820000000  0.4971010000000 1.0
C      1  0.4474200000000  0.5836340000000  0.5367050000000 1.0
C      1  0.4598810000000  0.5313240000000  0.4737360000000 1.0
C      1  0.4958660000000  0.5177490000000  0.5510400000000 1.0
C      1  0.4927720000000  0.4911190000000  0.4077440000000 1.0
C      1  0.4518240000000  0.4546260000000  0.5410580000000 1.0
C      1  0.4195390000000  0.5017370000000  0.4574950000000 1.0
C      1  0.5303870000000  0.5906660000000  0.4996720000000 1.0
C      1  0.5272630000000  0.5777370000000  0.4521920000000 1.0
C      1  0.4734410000000  0.5585470000000  0.5958370000000 1.0
C      1  0.5200650000000  0.5558620000000  0.5698740000000 1.0
C      1  0.4659040000000  0.4105770000000  0.4537670000000 1.0
C      1  0.5468440000000  0.5087490000000  0.5919960000000 1.0
C      1  0.5872750000000  0.4845130000000  0.5737370000000 1.0
C      1  0.4840810000000  0.5613080000000  0.4253770000000 1.0
C      1  0.5072360000000  0.4220980000000  0.5388330000000 1.0
C      1  0.3909800000000  0.4853170000000  0.4980500000000 1.0
C      1  0.4469810000000  0.5424300000000  0.5507730000000 1.0
C      1  0.4014480000000  0.5525210000000  0.5338270000000 1.0
C      1  0.4638280000000  0.4499270000000  0.4190220000000 1.0
C      1  0.4613260000000  0.5898640000000  0.4707770000000 1.0
C      1  0.5228620000000  0.5096580000000  0.4453050000000 1.0
C      1  0.5484250000000  0.5713650000000  0.4367610000000 1.0
C      1  0.4401210000000  0.4248740000000  0.4986750000000 1.0
C      1  0.4704550000000  0.5827300000000  0.5824690000000 1.0
C      1  0.4882870000000  0.5498160000000  0.4761830000000 1.0
C      1  0.5456750000000  0.5509850000000  0.4167170000000 1.0
C      1  0.4273680000000  0.5644470000000  0.5448520000000 1.0
C      1  0.4599810000000  0.4791870000000  0.4789090000000 1.0
C      1  0.5539290000000  0.5149070000000  0.4854250000000 1.0
C      1  0.5967750000000  0.5212560000000  0.4487050000000 1.0
C      1  0.4423840000000  0.4217980000000  0.4688400000000 1.0
C      1  0.4230030000000  0.5666500000000  0.4932290000000 1.0
C      1  0.5786370000000  0.5035010000000  0.4980620000000 1.0
C      1  0.4942180000000  0.5389800000000  0.4105560000000 1.0
C      1  0.4201920000000  0.5078690000000  0.5161050000000 1.0
C      1  0.4745720000000  0.5510220000000  0.5483630000000 1.0
C      1  0.5542070000000  0.5671380000000  0.5245870000000 1.0
C      1  0.5255160000000  0.5162730000000  0.5474950000000 1.0
C      1  0.5793620000000  0.5546190000000  0.5198940000000 1.0
C      1  0.4589370000000  0.4753750000000  0.5221360000000 1.0
C      1  0.4833840000000  0.4446630000000  0.5762020000000 1.0
C      1  0.5284230000000  0.4580480000000  0.5695260000000 1.0
END
