TITL C-883734-4173-110 -4.09091119245544 125000 -8704.5132047101 0 0 59 (C1) n - 1
REM
REM in /home/nfs/bkarasulu/CARBON/AIRSS/Generating-Clusters/ReaxFF-fromJPCA2015/Units_Real/with-SteepDescent/Only-C1/SD-CG/Try1-3A/FIRE-CG
REM
REM
REM
REM
REM
REM ./C.cell (11c1c37f851c82e70ff6c80c92926a4b)
REM
REM compiler GCC version 9.2.1 20190827 (Red Hat 9.2.1-1)
REM options -cpp -mtune=generic -march=x86-64 -g -O0 -fpre-include=/usr/include/finclude/math-vector-fortran.h
REM seed -69875822 442984454 -698272131 -354567882 234423463 -385551097 -2074538005 1964694176 183040587 710501836 1829377729 17794038 -1172927741 -1676675685 -803547309 1420021217 2046315146 -1688369297 227515689 -1610569991 119621235 -1158439447 1572362586 46470815 314109654 1936494849 779640261 922507135 1008413171 -323407897 597886421 820627326 2102443244
REM
CELL 1.54180   50.00000   50.00000   50.00000   90.00000   90.00000   90.00000
LATT -1
SFAC C  
C      1  0.4401550000000  0.5449590000000  0.4799710000000 1.0
C      1  0.5170630000000  0.4296920000000  0.4917210000000 1.0
C      1  0.5642180000000  0.5411690000000  0.5073030000000 1.0
C      1  0.5060580000000  0.5214120000000  0.5480320000000 1.0
C      1  0.4915810000000  0.5082860000000  0.5262870000000 1.0
C      1  0.4616150000000  0.5597030000000  0.4706680000000 1.0
C      1  0.4696410000000  0.5655780000000  0.5247890000000 1.0
C      1  0.5158360000000  0.5160270000000  0.4769360000000 1.0
C      1  0.5110060000000  0.4795930000000  0.5779410000000 1.0
C      1  0.4192870000000  0.4985190000000  0.4863680000000 1.0
C      1  0.5520820000000  0.4569530000000  0.4716380000000 1.0
C      1  0.5347320000000  0.5632990000000  0.4805390000000 1.0
C      1  0.5347040000000  0.5273890000000  0.5410970000000 1.0
C      1  0.4577890000000  0.5019920000000  0.5174340000000 1.0
C      1  0.5519210000000  0.5053690000000  0.5342340000000 1.0
C      1  0.5732170000000  0.4717370000000  0.4809840000000 1.0
C      1  0.5097600000000  0.4892830000000  0.5189620000000 1.0
C      1  0.5267670000000  0.4347600000000  0.5186230000000 1.0
C      1  0.4965810000000  0.5733310000000  0.5138370000000 1.0
C      1  0.4528100000000  0.4828480000000  0.4654950000000 1.0
C      1  0.4837950000000  0.5192660000000  0.4399220000000 1.0
C      1  0.4976570000000  0.4734990000000  0.4380000000000 1.0
C      1  0.4725380000000  0.5725530000000  0.4971860000000 1.0
C      1  0.5694550000000  0.5127830000000  0.5119870000000 1.0
C      1  0.4198060000000  0.4865800000000  0.4601730000000 1.0
C      1  0.4721070000000  0.4639310000000  0.4491690000000 1.0
C      1  0.4527360000000  0.4949160000000  0.5463030000000 1.0
C      1  0.5423630000000  0.5505880000000  0.5248660000000 1.0
C      1  0.4790420000000  0.4520320000000  0.5057390000000 1.0
C      1  0.4559190000000  0.5211520000000  0.5542910000000 1.0
C      1  0.4693790000000  0.5091700000000  0.4629980000000 1.0
C      1  0.4377370000000  0.5271570000000  0.5180230000000 1.0
C      1  0.5243690000000  0.5662590000000  0.5086840000000 1.0
C      1  0.5008430000000  0.5593740000000  0.4585840000000 1.0
C      1  0.5303330000000  0.4410350000000  0.4668270000000 1.0
C      1  0.5749890000000  0.4535040000000  0.5065630000000 1.0
C      1  0.4904900000000  0.5019340000000  0.4813500000000 1.0
C      1  0.4223050000000  0.5295320000000  0.4933270000000 1.0
C      1  0.4935760000000  0.4770430000000  0.4980910000000 1.0
C      1  0.4524150000000  0.5439350000000  0.5371130000000 1.0
C      1  0.5567710000000  0.5184500000000  0.4655730000000 1.0
C      1  0.5705570000000  0.5011710000000  0.4849460000000 1.0
C      1  0.4565080000000  0.4460070000000  0.5680450000000 1.0
C      1  0.5091230000000  0.4424570000000  0.5409040000000 1.0
C      1  0.5375400000000  0.4787270000000  0.5345860000000 1.0
C      1  0.4841910000000  0.4386330000000  0.4576570000000 1.0
C      1  0.4806590000000  0.4463760000000  0.5344990000000 1.0
C      1  0.5505170000000  0.4521650000000  0.5227550000000 1.0
C      1  0.5079760000000  0.5018860000000  0.4374610000000 1.0
C      1  0.5314620000000  0.5053590000000  0.4552940000000 1.0
C      1  0.4444720000000  0.4862720000000  0.4944990000000 1.0
C      1  0.4631060000000  0.4647260000000  0.5526410000000 1.0
C      1  0.5231000000000  0.4631050000000  0.5564060000000 1.0
C      1  0.5034750000000  0.5083270000000  0.5749440000000 1.0
C      1  0.5176100000000  0.5467050000000  0.4687860000000 1.0
C      1  0.5097970000000  0.4473420000000  0.4455950000000 1.0
C      1  0.5572710000000  0.5443610000000  0.4795600000000 1.0
C      1  0.4887440000000  0.4321620000000  0.4865690000000 1.0
C      1  0.4784450000000  0.5476270000000  0.4472260000000 1.0
END
