TITL C-883731-9874-165 4.28436205665585 125000 -27489.1839422727 0 0 181 (C1) n - 1
REM
REM in /home/nfs/bkarasulu/CARBON/AIRSS/Generating-Clusters/ReaxFF-fromJPCA2015/Units_Real/with-SteepDescent/Only-C1/SD-CG/Try1-3A/FIRE-CG
REM
REM
REM
REM
REM
REM ./C.cell (11c1c37f851c82e70ff6c80c92926a4b)
REM
REM compiler GCC version 9.2.1 20190827 (Red Hat 9.2.1-1)
REM options -cpp -mtune=generic -march=x86-64 -g -O0 -fpre-include=/usr/include/finclude/math-vector-fortran.h
REM seed 1142989773 -896029232 1431501857 -181502413 42451821 -712145935 -1171999304 845645334 1466754171 427955205 -299024080 -1994788366 1519086340 -1284412961 827124677 -1694041439 1459404377 855742293 454328013 -82346553 2046968735 -1269722138 2080125936 -787275961 -1266123398 1825955244 16429396 -961119477 -625629498 -1573779857 -2089761987 -2096700615 1975660214
REM
CELL 1.54180   50.00000   50.00000   50.00000   90.00000   90.00000   90.00000
LATT -1
SFAC C  
C      1  0.4456900000000  0.4083180000000  0.4726970000000 1.0
C      1  0.5397350000000  0.5120770000000  0.4857430000000 1.0
C      1  0.5103330000000  0.4312080000000  0.4202980000000 1.0
C      1  0.5651580000000  0.4944100000000  0.5245910000000 1.0
C      1  0.4661800000000  0.5794720000000  0.5529600000000 1.0
C      1  0.4255370000000  0.5453490000000  0.5644950000000 1.0
C      1  0.5455070000000  0.5930410000000  0.5311740000000 1.0
C      1  0.5130230000000  0.5513190000000  0.4814130000000 1.0
C      1  0.4724190000000  0.5091920000000  0.5553650000000 1.0
C      1  0.5374790000000  0.5809340000000  0.5766830000000 1.0
C      1  0.5230160000000  0.4231060000000  0.5657690000000 1.0
C      1  0.6028980000000  0.4758050000000  0.4895260000000 1.0
C      1  0.5751730000000  0.4549760000000  0.5685590000000 1.0
C      1  0.5075920000000  0.5737480000000  0.4305840000000 1.0
C      1  0.4821400000000  0.4480880000000  0.4653650000000 1.0
C      1  0.4668600000000  0.5722210000000  0.5810240000000 1.0
C      1  0.5864560000000  0.4364630000000  0.5280620000000 1.0
C      1  0.5170320000000  0.4312250000000  0.5032200000000 1.0
C      1  0.4738300000000  0.4013890000000  0.4711620000000 1.0
C      1  0.4880910000000  0.4726810000000  0.4492650000000 1.0
C      1  0.5235810000000  0.4670500000000  0.4862350000000 1.0
C      1  0.4431690000000  0.5083930000000  0.5577000000000 1.0
C      1  0.5546140000000  0.5501420000000  0.5052960000000 1.0
C      1  0.4737010000000  0.6109720000000  0.5165520000000 1.0
C      1  0.5077780000000  0.5562450000000  0.5281890000000 1.0
C      1  0.4486430000000  0.5568520000000  0.5148770000000 1.0
C      1  0.5307360000000  0.5965550000000  0.4719590000000 1.0
C      1  0.5275140000000  0.5002140000000  0.3920870000000 1.0
C      1  0.4959720000000  0.4727820000000  0.5316880000000 1.0
C      1  0.5856970000000  0.5252760000000  0.4746850000000 1.0
C      1  0.5935260000000  0.5027040000000  0.5541960000000 1.0
C      1  0.5814010000000  0.5432420000000  0.4973950000000 1.0
C      1  0.4773780000000  0.3886570000000  0.5199080000000 1.0
C      1  0.5651330000000  0.5023560000000  0.4764710000000 1.0
C      1  0.4489130000000  0.4624170000000  0.4980350000000 1.0
C      1  0.5010350000000  0.6103620000000  0.5128570000000 1.0
C      1  0.4960700000000  0.4837100000000  0.6023620000000 1.0
C      1  0.5338450000000  0.4669240000000  0.4602070000000 1.0
C      1  0.5939140000000  0.4738880000000  0.5574160000000 1.0
C      1  0.5400820000000  0.4769430000000  0.4061470000000 1.0
C      1  0.5436930000000  0.5624720000000  0.5299810000000 1.0
C      1  0.5980000000000  0.5274140000000  0.5431470000000 1.0
C      1  0.5512210000000  0.4978610000000  0.5484790000000 1.0
C      1  0.4019590000000  0.4810300000000  0.4481700000000 1.0
C      1  0.4530250000000  0.4488800000000  0.5876520000000 1.0
C      1  0.3999810000000  0.5373980000000  0.5126920000000 1.0
C      1  0.3891290000000  0.4804380000000  0.4971220000000 1.0
C      1  0.4579700000000  0.4853040000000  0.4105500000000 1.0
C      1  0.4979120000000  0.5096510000000  0.3929460000000 1.0
C      1  0.4955130000000  0.4595170000000  0.3929850000000 1.0
C      1  0.4998720000000  0.4546400000000  0.5955810000000 1.0
C      1  0.4836230000000  0.4364470000000  0.4069600000000 1.0
C      1  0.4117830000000  0.4249690000000  0.4996820000000 1.0
C      1  0.5408060000000  0.4396030000000  0.5179710000000 1.0
C      1  0.4954940000000  0.5236390000000  0.4498920000000 1.0
C      1  0.4181070000000  0.5743910000000  0.4874000000000 1.0
C      1  0.4986340000000  0.5638290000000  0.5026460000000 1.0
C      1  0.5517000000000  0.5974760000000  0.4903200000000 1.0
C      1  0.4340890000000  0.5969590000000  0.4889750000000 1.0
C      1  0.4497210000000  0.4773470000000  0.5968510000000 1.0
C      1  0.5093840000000  0.4668850000000  0.5536000000000 1.0
C      1  0.5180250000000  0.5086640000000  0.4419120000000 1.0
C      1  0.4331110000000  0.5099300000000  0.5307180000000 1.0
C      1  0.4897840000000  0.5313530000000  0.5555740000000 1.0
C      1  0.5257440000000  0.4433980000000  0.5856950000000 1.0
C      1  0.3905170000000  0.5105130000000  0.5114930000000 1.0
C      1  0.5415350000000  0.3988650000000  0.5149750000000 1.0
C      1  0.3949580000000  0.4653480000000  0.4722400000000 1.0
C      1  0.4832350000000  0.5572140000000  0.5443110000000 1.0
C      1  0.4631030000000  0.4399960000000  0.5399900000000 1.0
C      1  0.6018870000000  0.5288280000000  0.4370780000000 1.0
C      1  0.4433180000000  0.4508760000000  0.5236560000000 1.0
C      1  0.5957750000000  0.4402940000000  0.4568480000000 1.0
C      1  0.4059840000000  0.4971730000000  0.5318940000000 1.0
C      1  0.4361710000000  0.5277040000000  0.4159130000000 1.0
C      1  0.5100300000000  0.5561710000000  0.4071830000000 1.0
C      1  0.5357870000000  0.5383280000000  0.4901070000000 1.0
C      1  0.5179170000000  0.5258650000000  0.5835540000000 1.0
C      1  0.4700910000000  0.5171930000000  0.4433860000000 1.0
C      1  0.4338370000000  0.4339640000000  0.4598670000000 1.0
C      1  0.4579000000000  0.4412680000000  0.4184660000000 1.0
C      1  0.4081030000000  0.5321830000000  0.4606440000000 1.0
C      1  0.4204930000000  0.4260240000000  0.5510750000000 1.0
C      1  0.5126030000000  0.4157240000000  0.4442530000000 1.0
C      1  0.4915890000000  0.4467910000000  0.5407230000000 1.0
C      1  0.5196530000000  0.5013340000000  0.6005920000000 1.0
C      1  0.5646670000000  0.4809490000000  0.4250260000000 1.0
C      1  0.4614140000000  0.5439340000000  0.4105920000000 1.0
C      1  0.4817870000000  0.5444450000000  0.6078670000000 1.0
C      1  0.6068790000000  0.4572140000000  0.5347500000000 1.0
C      1  0.5388990000000  0.5532720000000  0.3984860000000 1.0
C      1  0.4912800000000  0.5292410000000  0.4774980000000 1.0
C      1  0.5204570000000  0.4940530000000  0.4945360000000 1.0
C      1  0.4720570000000  0.4975270000000  0.5069000000000 1.0
C      1  0.5363360000000  0.5265390000000  0.3914620000000 1.0
C      1  0.5023910000000  0.4501440000000  0.4887450000000 1.0
C      1  0.5791840000000  0.4547430000000  0.4767050000000 1.0
C      1  0.5122370000000  0.5289000000000  0.5382100000000 1.0
C      1  0.4492360000000  0.3971980000000  0.5222540000000 1.0
C      1  0.5581420000000  0.4030680000000  0.4662470000000 1.0
C      1  0.5612420000000  0.5565180000000  0.4182490000000 1.0
C      1  0.4167560000000  0.4661750000000  0.5752780000000 1.0
C      1  0.4326420000000  0.4982580000000  0.4116490000000 1.0
C      1  0.4401980000000  0.5595300000000  0.4443710000000 1.0
C      1  0.4484110000000  0.4904310000000  0.4930850000000 1.0
C      1  0.4833010000000  0.5997610000000  0.4641990000000 1.0
C      1  0.4530470000000  0.5351690000000  0.4583300000000 1.0
C      1  0.5147120000000  0.5928010000000  0.5652620000000 1.0
C      1  0.4156370000000  0.5036970000000  0.4612730000000 1.0
C      1  0.4704170000000  0.4967030000000  0.6027170000000 1.0
C      1  0.4827620000000  0.5853920000000  0.4378460000000 1.0
C      1  0.5429030000000  0.4204750000000  0.5411220000000 1.0
C      1  0.5617760000000  0.4065700000000  0.4964550000000 1.0
C      1  0.4436980000000  0.5937920000000  0.5397570000000 1.0
C      1  0.5257280000000  0.5699040000000  0.4547910000000 1.0
C      1  0.5635380000000  0.5386030000000  0.5931660000000 1.0
C      1  0.4869600000000  0.4197330000000  0.4527270000000 1.0
C      1  0.4900330000000  0.3921020000000  0.4935010000000 1.0
C      1  0.4204060000000  0.4743150000000  0.4265570000000 1.0
C      1  0.5366040000000  0.4745180000000  0.5585060000000 1.0
C      1  0.5680660000000  0.4361070000000  0.5036610000000 1.0
C      1  0.4254490000000  0.4398420000000  0.5761700000000 1.0
C      1  0.4049460000000  0.5494540000000  0.4857550000000 1.0
C      1  0.5594690000000  0.5140850000000  0.6010100000000 1.0
C      1  0.4465060000000  0.4149710000000  0.5454880000000 1.0
C      1  0.5053630000000  0.6058250000000  0.4823710000000 1.0
C      1  0.3982720000000  0.4703930000000  0.5214700000000 1.0
C      1  0.4184970000000  0.5417750000000  0.4350250000000 1.0
C      1  0.4608950000000  0.5880940000000  0.4791330000000 1.0
C      1  0.4707460000000  0.5700440000000  0.4993140000000 1.0
C      1  0.5782540000000  0.4196810000000  0.4553300000000 1.0
C      1  0.5704090000000  0.4324150000000  0.5510330000000 1.0
C      1  0.4857380000000  0.4005600000000  0.5447420000000 1.0
C      1  0.4887940000000  0.5363590000000  0.4012990000000 1.0
C      1  0.5687110000000  0.5974230000000  0.5124650000000 1.0
C      1  0.4608190000000  0.5690390000000  0.4259020000000 1.0
C      1  0.5651250000000  0.5117490000000  0.4266740000000 1.0
C      1  0.4814110000000  0.4857150000000  0.3931880000000 1.0
C      1  0.4945040000000  0.4151990000000  0.5673620000000 1.0
C      1  0.4295970000000  0.4906120000000  0.5790830000000 1.0
C      1  0.4536280000000  0.4519400000000  0.4721380000000 1.0
C      1  0.4278660000000  0.5714700000000  0.5288580000000 1.0
C      1  0.5466630000000  0.4899590000000  0.6025420000000 1.0
C      1  0.6084440000000  0.4660450000000  0.4421210000000 1.0
C      1  0.5938670000000  0.4717630000000  0.4178480000000 1.0
C      1  0.5221300000000  0.4545720000000  0.4049830000000 1.0
C      1  0.5786040000000  0.4910800000000  0.5015410000000 1.0
C      1  0.5295240000000  0.4042210000000  0.4636590000000 1.0
C      1  0.5527900000000  0.5491690000000  0.5546650000000 1.0
C      1  0.4342870000000  0.4478950000000  0.4298080000000 1.0
C      1  0.5473020000000  0.5527580000000  0.4431810000000 1.0
C      1  0.5189200000000  0.3998100000000  0.4921970000000 1.0
C      1  0.4791530000000  0.4376300000000  0.5858840000000 1.0
C      1  0.5984890000000  0.5496800000000  0.5212960000000 1.0
C      1  0.4953170000000  0.5068100000000  0.4946950000000 1.0
C      1  0.4759370000000  0.4903350000000  0.5338710000000 1.0
C      1  0.4141550000000  0.4419220000000  0.5257220000000 1.0
C      1  0.5496610000000  0.4637130000000  0.5843170000000 1.0
C      1  0.6135380000000  0.4859570000000  0.4630020000000 1.0
C      1  0.5071360000000  0.5504450000000  0.5960760000000 1.0
C      1  0.5428520000000  0.5234610000000  0.4402200000000 1.0
C      1  0.4484430000000  0.5472290000000  0.5832630000000 1.0
C      1  0.4076940000000  0.4392680000000  0.4755040000000 1.0
C      1  0.4651350000000  0.4889280000000  0.4425080000000 1.0
C      1  0.4964380000000  0.5753040000000  0.5835110000000 1.0
C      1  0.5822380000000  0.5348320000000  0.4176440000000 1.0
C      1  0.6225800000000  0.4672570000000  0.5128110000000 1.0
C      1  0.4329840000000  0.4048500000000  0.4980450000000 1.0
C      1  0.4463640000000  0.6094310000000  0.5149330000000 1.0
C      1  0.4617360000000  0.5259030000000  0.6023420000000 1.0
C      1  0.4108440000000  0.5506200000000  0.5391200000000 1.0
C      1  0.4454270000000  0.5286870000000  0.5105540000000 1.0
C      1  0.5140430000000  0.4810140000000  0.4455460000000 1.0
C      1  0.5352890000000  0.5254470000000  0.5572290000000 1.0
C      1  0.5603160000000  0.5634950000000  0.5793640000000 1.0
C      1  0.5907750000000  0.5774240000000  0.5202520000000 1.0
C      1  0.6100790000000  0.5156130000000  0.4610600000000 1.0
C      1  0.4600950000000  0.5307450000000  0.4852450000000 1.0
C      1  0.4417470000000  0.4902510000000  0.4650670000000 1.0
C      1  0.5618530000000  0.4735350000000  0.4586250000000 1.0
C      1  0.5187300000000  0.6026550000000  0.5361910000000 1.0
END
