TITL C-884131-4643-439 136.393818801185 125000 -26327.493494349 0 0 177 (C1) n - 1
REM
REM in /home/nfs/bkarasulu/CARBON/AIRSS/Generating-Clusters/ReaxFF-fromJPCA2015/Units_Real/with-SteepDescent/Only-C1/SD-CG/Try1-3A/FIRE-CG
REM
REM
REM
REM
REM
REM ./C.cell (11c1c37f851c82e70ff6c80c92926a4b)
REM
REM compiler GCC version 9.2.1 20190827 (Red Hat 9.2.1-1)
REM options -cpp -mtune=generic -march=x86-64 -g -O0 -fpre-include=/usr/include/finclude/math-vector-fortran.h
REM seed 878205274 -1227269939 -2123326944 -1172505613 -1184508448 1545806522 1665083693 -1136920734 -1151207927 1457839567 343737394 -1334571167 -1861559338 -114628891 1674818954 -20954925 -1617249763 1527017302 -43290871 -545099032 -1410510831 2015779521 -750566623 1329395300 1209672446 2007841889 -2030640306 901429625 -1292912005 1570107782 -1122018507 127403981 -173017830
REM
CELL 1.54180   50.00000   50.00000   50.00000   90.00000   90.00000   90.00000
LATT -1
SFAC C  
C      1  0.4984400000000  0.4879310000000  0.5573250000000 1.0
C      1  0.4321270000000  0.4298920000000  0.4775340000000 1.0
C      1  0.4110330000000  0.4381820000000  0.4966570000000 1.0
C      1  0.5791150000000  0.5285430000000  0.4252090000000 1.0
C      1  0.4997330000000  0.4448620000000  0.4941430000000 1.0
C      1  0.5161760000000  0.4450810000000  0.4190860000000 1.0
C      1  0.4993440000000  0.5400010000000  0.5529380000000 1.0
C      1  0.5742440000000  0.4685600000000  0.5726700000000 1.0
C      1  0.5624610000000  0.4421120000000  0.5630700000000 1.0
C      1  0.4891580000000  0.5591350000000  0.4374000000000 1.0
C      1  0.4751860000000  0.4590980000000  0.4856970000000 1.0
C      1  0.5161720000000  0.5704080000000  0.4332110000000 1.0
C      1  0.4831280000000  0.4657410000000  0.4578850000000 1.0
C      1  0.4616660000000  0.5073500000000  0.4442040000000 1.0
C      1  0.5365550000000  0.5297050000000  0.5203600000000 1.0
C      1  0.4410930000000  0.5211280000000  0.5173050000000 1.0
C      1  0.4586360000000  0.5033050000000  0.5400360000000 1.0
C      1  0.5956680000000  0.4660630000000  0.4893220000000 1.0
C      1  0.5132490000000  0.5343860000000  0.5824780000000 1.0
C      1  0.5213350000000  0.5623930000000  0.5888350000000 1.0
C      1  0.5936960000000  0.4554130000000  0.5161770000000 1.0
C      1  0.4199180000000  0.4301580000000  0.5238650000000 1.0
C      1  0.5173550000000  0.4484790000000  0.5894700000000 1.0
C      1  0.5039810000000  0.5511100000000  0.5022150000000 1.0
C      1  0.5623490000000  0.4258760000000  0.4430450000000 1.0
C      1  0.4928850000000  0.5208950000000  0.6010660000000 1.0
C      1  0.3964830000000  0.5046590000000  0.4583350000000 1.0
C      1  0.4923860000000  0.5110020000000  0.4023680000000 1.0
C      1  0.5276640000000  0.4096030000000  0.5619380000000 1.0
C      1  0.5437100000000  0.5091240000000  0.3922320000000 1.0
C      1  0.5836890000000  0.4449030000000  0.4445420000000 1.0
C      1  0.4600540000000  0.5664800000000  0.5322030000000 1.0
C      1  0.5823980000000  0.4977830000000  0.5659450000000 1.0
C      1  0.4731740000000  0.4027320000000  0.4834780000000 1.0
C      1  0.5654610000000  0.4250460000000  0.5390380000000 1.0
C      1  0.4613440000000  0.4888290000000  0.5968300000000 1.0
C      1  0.5349940000000  0.5167640000000  0.4896030000000 1.0
C      1  0.4579380000000  0.4799250000000  0.4548380000000 1.0
C      1  0.4491970000000  0.5104260000000  0.4880770000000 1.0
C      1  0.5965710000000  0.5224590000000  0.4496150000000 1.0
C      1  0.4880360000000  0.4432360000000  0.4318000000000 1.0
C      1  0.5276530000000  0.5191360000000  0.4385980000000 1.0
C      1  0.4007270000000  0.5337000000000  0.4552960000000 1.0
C      1  0.4593700000000  0.4236840000000  0.5444570000000 1.0
C      1  0.4521720000000  0.5038050000000  0.4160620000000 1.0
C      1  0.4182850000000  0.4650400000000  0.4365220000000 1.0
C      1  0.5208880000000  0.5203620000000  0.4096080000000 1.0
C      1  0.3949800000000  0.4912610000000  0.4839640000000 1.0
C      1  0.5042020000000  0.4403450000000  0.5223370000000 1.0
C      1  0.5980680000000  0.5308400000000  0.5224880000000 1.0
C      1  0.5425710000000  0.4724770000000  0.4509420000000 1.0
C      1  0.5029720000000  0.4877670000000  0.4665790000000 1.0
C      1  0.4618000000000  0.5258710000000  0.4666050000000 1.0
C      1  0.4820180000000  0.4587720000000  0.5650760000000 1.0
C      1  0.4160060000000  0.5001970000000  0.5534340000000 1.0
C      1  0.4392630000000  0.4643850000000  0.5104180000000 1.0
C      1  0.4977540000000  0.4186550000000  0.4833630000000 1.0
C      1  0.5961200000000  0.5084000000000  0.5400910000000 1.0
C      1  0.5722410000000  0.5577890000000  0.5436450000000 1.0
C      1  0.6073950000000  0.4962150000000  0.4466320000000 1.0
C      1  0.3833890000000  0.5022190000000  0.5088350000000 1.0
C      1  0.5855210000000  0.4204180000000  0.4877780000000 1.0
C      1  0.4250310000000  0.5981680000000  0.5187590000000 1.0
C      1  0.5278580000000  0.6189630000000  0.4734740000000 1.0
C      1  0.5171640000000  0.4855570000000  0.5349410000000 1.0
C      1  0.4740640000000  0.4498780000000  0.5371360000000 1.0
C      1  0.5253060000000  0.4892550000000  0.4849080000000 1.0
C      1  0.5950060000000  0.4428050000000  0.4713840000000 1.0
C      1  0.5355340000000  0.4699710000000  0.5797080000000 1.0
C      1  0.5594800000000  0.4780990000000  0.5962660000000 1.0
C      1  0.4866180000000  0.4294310000000  0.5749570000000 1.0
C      1  0.4989030000000  0.4089070000000  0.5575220000000 1.0
C      1  0.5101800000000  0.5967190000000  0.5635000000000 1.0
C      1  0.5858170000000  0.4736570000000  0.4328520000000 1.0
C      1  0.5639240000000  0.5518980000000  0.4297060000000 1.0
C      1  0.4085380000000  0.5744340000000  0.5247250000000 1.0
C      1  0.4072120000000  0.5531140000000  0.4764210000000 1.0
C      1  0.5724960000000  0.4690880000000  0.5320950000000 1.0
C      1  0.5639750000000  0.5066570000000  0.4980650000000 1.0
C      1  0.4654310000000  0.5534180000000  0.4222890000000 1.0
C      1  0.5235880000000  0.4581610000000  0.5348520000000 1.0
C      1  0.4644520000000  0.4507540000000  0.4161270000000 1.0
C      1  0.4511040000000  0.4451620000000  0.4932720000000 1.0
C      1  0.5845430000000  0.4279360000000  0.5163830000000 1.0
C      1  0.4700160000000  0.5641340000000  0.5827980000000 1.0
C      1  0.5352970000000  0.5081780000000  0.5384630000000 1.0
C      1  0.5041690000000  0.5636570000000  0.4780110000000 1.0
C      1  0.5427040000000  0.4276280000000  0.4808770000000 1.0
C      1  0.4149930000000  0.4687700000000  0.4891000000000 1.0
C      1  0.4896820000000  0.5049990000000  0.4917080000000 1.0
C      1  0.4885730000000  0.4142690000000  0.4410930000000 1.0
C      1  0.4327420000000  0.5618730000000  0.4645770000000 1.0
C      1  0.5677090000000  0.4867100000000  0.4535180000000 1.0
C      1  0.4836400000000  0.6106570000000  0.4887780000000 1.0
C      1  0.4409870000000  0.4260710000000  0.4496030000000 1.0
C      1  0.4939250000000  0.5245600000000  0.5119800000000 1.0
C      1  0.5691880000000  0.5493690000000  0.5702310000000 1.0
C      1  0.5394390000000  0.4311290000000  0.5783720000000 1.0
C      1  0.5248150000000  0.5762750000000  0.4605170000000 1.0
C      1  0.4238880000000  0.5109330000000  0.4184390000000 1.0
C      1  0.4758500000000  0.5573660000000  0.5548360000000 1.0
C      1  0.5350950000000  0.5848000000000  0.5557420000000 1.0
C      1  0.4690170000000  0.5351250000000  0.5951580000000 1.0
C      1  0.5356500000000  0.4537400000000  0.4716950000000 1.0
C      1  0.5736240000000  0.4977220000000  0.5247040000000 1.0
C      1  0.4176430000000  0.5367450000000  0.4310250000000 1.0
C      1  0.4423150000000  0.4104970000000  0.5251570000000 1.0
C      1  0.4399260000000  0.4465080000000  0.4267990000000 1.0
C      1  0.4069130000000  0.4918560000000  0.4331280000000 1.0
C      1  0.5176490000000  0.4110600000000  0.5182150000000 1.0
C      1  0.4566850000000  0.4735940000000  0.5302350000000 1.0
C      1  0.5162730000000  0.4682550000000  0.4030340000000 1.0
C      1  0.4988220000000  0.5788760000000  0.5826470000000 1.0
C      1  0.5383750000000  0.5604520000000  0.4169550000000 1.0
C      1  0.4419690000000  0.5736090000000  0.5719630000000 1.0
C      1  0.4555940000000  0.5944190000000  0.5216390000000 1.0
C      1  0.5741400000000  0.5659250000000  0.5182430000000 1.0
C      1  0.4921150000000  0.6112210000000  0.5151880000000 1.0
C      1  0.5249420000000  0.5511300000000  0.5371290000000 1.0
C      1  0.5427920000000  0.4800320000000  0.3959400000000 1.0
C      1  0.4507040000000  0.5493740000000  0.5112430000000 1.0
C      1  0.3932540000000  0.5286090000000  0.5184040000000 1.0
C      1  0.4747980000000  0.5344000000000  0.3997350000000 1.0
C      1  0.5916620000000  0.5482670000000  0.5008210000000 1.0
C      1  0.5479360000000  0.5857940000000  0.5107820000000 1.0
C      1  0.4627200000000  0.5905030000000  0.4931780000000 1.0
C      1  0.3822190000000  0.4794540000000  0.5288640000000 1.0
C      1  0.4672310000000  0.4003440000000  0.5120330000000 1.0
C      1  0.4973090000000  0.5502470000000  0.3869350000000 1.0
C      1  0.4148240000000  0.5167910000000  0.5305670000000 1.0
C      1  0.5214400000000  0.4917450000000  0.5746790000000 1.0
C      1  0.5409720000000  0.4085580000000  0.5360660000000 1.0
C      1  0.5005200000000  0.6188520000000  0.4634210000000 1.0
C      1  0.5385080000000  0.6021580000000  0.5339720000000 1.0
C      1  0.4540850000000  0.5627410000000  0.4852880000000 1.0
C      1  0.4899410000000  0.4835960000000  0.4007680000000 1.0
C      1  0.5375750000000  0.5156830000000  0.5693840000000 1.0
C      1  0.5713440000000  0.5102330000000  0.4033350000000 1.0
C      1  0.4498190000000  0.5146940000000  0.5888820000000 1.0
C      1  0.5341690000000  0.4258720000000  0.4323090000000 1.0
C      1  0.4637030000000  0.4089060000000  0.4555460000000 1.0
C      1  0.5472960000000  0.5682640000000  0.5760680000000 1.0
C      1  0.5736660000000  0.5613200000000  0.4562220000000 1.0
C      1  0.4678090000000  0.4887680000000  0.4937880000000 1.0
C      1  0.5161760000000  0.4090060000000  0.4480140000000 1.0
C      1  0.5904290000000  0.5439630000000  0.4713430000000 1.0
C      1  0.3999220000000  0.5534080000000  0.5050850000000 1.0
C      1  0.4183670000000  0.4469950000000  0.5485150000000 1.0
C      1  0.4572230000000  0.4232800000000  0.5735700000000 1.0
C      1  0.5494310000000  0.6014180000000  0.4844320000000 1.0
C      1  0.4211630000000  0.5727360000000  0.5529930000000 1.0
C      1  0.5106910000000  0.4708430000000  0.6101480000000 1.0
C      1  0.5330170000000  0.4660900000000  0.4966660000000 1.0
C      1  0.5382630000000  0.4770750000000  0.6182300000000 1.0
C      1  0.5705060000000  0.4812910000000  0.4069680000000 1.0
C      1  0.4927750000000  0.4010700000000  0.5291540000000 1.0
C      1  0.5217490000000  0.5682860000000  0.5144280000000 1.0
C      1  0.4037920000000  0.4735080000000  0.5477960000000 1.0
C      1  0.5479000000000  0.4586890000000  0.5212440000000 1.0
C      1  0.5671130000000  0.5199480000000  0.5756840000000 1.0
C      1  0.5639840000000  0.4122430000000  0.4695940000000 1.0
C      1  0.4872220000000  0.5153620000000  0.5396570000000 1.0
C      1  0.5234290000000  0.4063560000000  0.4775500000000 1.0
C      1  0.4617370000000  0.4761590000000  0.4072010000000 1.0
C      1  0.5536970000000  0.5815300000000  0.4641900000000 1.0
C      1  0.4893930000000  0.4922340000000  0.6061100000000 1.0
C      1  0.4913860000000  0.5417730000000  0.4623930000000 1.0
C      1  0.4422190000000  0.5037220000000  0.5640170000000 1.0
C      1  0.4393690000000  0.5552960000000  0.4361890000000 1.0
C      1  0.4365950000000  0.4447860000000  0.5717720000000 1.0
C      1  0.5785630000000  0.4890180000000  0.4811510000000 1.0
C      1  0.4309120000000  0.4710940000000  0.4620760000000 1.0
C      1  0.5224750000000  0.4921550000000  0.4455260000000 1.0
C      1  0.5196160000000  0.5280360000000  0.4635290000000 1.0
C      1  0.5105340000000  0.6111050000000  0.5366070000000 1.0
C      1  0.4565470000000  0.4645980000000  0.5804120000000 1.0
C      1  0.5257200000000  0.5474630000000  0.3938460000000 1.0
END
