TITL C-884135-4325-150 39.439913557571 125000 -23176.7205668473 0 0 156 (C1) n - 1
REM
REM in /home/nfs/bkarasulu/CARBON/AIRSS/Generating-Clusters/ReaxFF-fromJPCA2015/Units_Real/with-SteepDescent/Only-C1/SD-CG/Try1-3A/FIRE-CG
REM
REM
REM
REM
REM
REM ./C.cell (11c1c37f851c82e70ff6c80c92926a4b)
REM
REM compiler GCC version 9.2.1 20190827 (Red Hat 9.2.1-1)
REM options -cpp -mtune=generic -march=x86-64 -g -O0 -fpre-include=/usr/include/finclude/math-vector-fortran.h
REM seed 424848547 -2059716471 572203672 1570761321 -489305234 -895056467 -412629776 -1213718639 552256557 -923490817 -1851190017 920532395 -1196619501 1983443774 1867596022 1526980576 1873853135 132694618 1165982732 -878529155 79650906 -865175350 -94221554 108307957 -2017981522 -95130949 1061743732 1774394687 245333040 -2052491829 1719741912 1187240071 2119932930
REM
CELL 1.54180   50.00000   50.00000   50.00000   90.00000   90.00000   90.00000
LATT -1
SFAC C  
C      1  0.4668780000000  0.5163520000000  0.3954460000000 1.0
C      1  0.5593500000000  0.4555680000000  0.5248430000000 1.0
C      1  0.4521930000000  0.4371810000000  0.5699400000000 1.0
C      1  0.4812190000000  0.4002020000000  0.5140430000000 1.0
C      1  0.5788640000000  0.5139560000000  0.5276940000000 1.0
C      1  0.5795570000000  0.4808710000000  0.5624840000000 1.0
C      1  0.5130790000000  0.5582060000000  0.4788100000000 1.0
C      1  0.6007410000000  0.5132020000000  0.4898460000000 1.0
C      1  0.4399340000000  0.5855950000000  0.5114340000000 1.0
C      1  0.5489550000000  0.5170390000000  0.4764450000000 1.0
C      1  0.5291870000000  0.5913210000000  0.4553930000000 1.0
C      1  0.5329010000000  0.5361250000000  0.4598790000000 1.0
C      1  0.4124480000000  0.5434740000000  0.4600440000000 1.0
C      1  0.5566890000000  0.4298170000000  0.5105200000000 1.0
C      1  0.5253950000000  0.5385280000000  0.5211430000000 1.0
C      1  0.5293860000000  0.5597860000000  0.5036570000000 1.0
C      1  0.5819260000000  0.5425180000000  0.5273500000000 1.0
C      1  0.5772770000000  0.4278060000000  0.4735780000000 1.0
C      1  0.5650170000000  0.5292350000000  0.5707400000000 1.0
C      1  0.4923470000000  0.4050960000000  0.4426630000000 1.0
C      1  0.5094560000000  0.4241990000000  0.4265630000000 1.0
C      1  0.5556300000000  0.5788630000000  0.5519280000000 1.0
C      1  0.5279420000000  0.4221920000000  0.5109950000000 1.0
C      1  0.5028310000000  0.4928820000000  0.5654810000000 1.0
C      1  0.5455220000000  0.5931160000000  0.5284490000000 1.0
C      1  0.4407390000000  0.4637330000000  0.5744770000000 1.0
C      1  0.5089820000000  0.4645860000000  0.5703530000000 1.0
C      1  0.4748880000000  0.5910850000000  0.4668930000000 1.0
C      1  0.5971990000000  0.4793700000000  0.4662900000000 1.0
C      1  0.4776470000000  0.5064190000000  0.5635000000000 1.0
C      1  0.5875960000000  0.5505100000000  0.4748220000000 1.0
C      1  0.5794800000000  0.5109690000000  0.4385300000000 1.0
C      1  0.4914880000000  0.4709410000000  0.4778500000000 1.0
C      1  0.4546960000000  0.4756680000000  0.5964200000000 1.0
C      1  0.4274890000000  0.5139420000000  0.5078730000000 1.0
C      1  0.4425480000000  0.4229970000000  0.5463060000000 1.0
C      1  0.4189730000000  0.5085090000000  0.5658530000000 1.0
C      1  0.4631810000000  0.5890970000000  0.4940510000000 1.0
C      1  0.4941700000000  0.4465540000000  0.4122320000000 1.0
C      1  0.4742950000000  0.4857200000000  0.4363160000000 1.0
C      1  0.4095840000000  0.5212920000000  0.5424540000000 1.0
C      1  0.4797800000000  0.5737150000000  0.5105300000000 1.0
C      1  0.5552430000000  0.5031890000000  0.5111950000000 1.0
C      1  0.5108870000000  0.4454440000000  0.5190390000000 1.0
C      1  0.4912490000000  0.5128260000000  0.6046680000000 1.0
C      1  0.5270860000000  0.5570780000000  0.5760530000000 1.0
C      1  0.4524300000000  0.5267690000000  0.4792380000000 1.0
C      1  0.4622540000000  0.5052260000000  0.5938460000000 1.0
C      1  0.5457470000000  0.5136680000000  0.5854340000000 1.0
C      1  0.5495960000000  0.4034330000000  0.5597890000000 1.0
C      1  0.5553740000000  0.4419760000000  0.4564650000000 1.0
C      1  0.4740310000000  0.4325640000000  0.5892010000000 1.0
C      1  0.4912530000000  0.3932930000000  0.5377590000000 1.0
C      1  0.4547440000000  0.4089190000000  0.5227310000000 1.0
C      1  0.5342320000000  0.5141500000000  0.4147630000000 1.0
C      1  0.5837700000000  0.4353380000000  0.5009720000000 1.0
C      1  0.5310740000000  0.5737570000000  0.4318910000000 1.0
C      1  0.4101780000000  0.4721860000000  0.4987630000000 1.0
C      1  0.5199360000000  0.5369430000000  0.5504960000000 1.0
C      1  0.4984180000000  0.4478540000000  0.5936000000000 1.0
C      1  0.5169040000000  0.4503190000000  0.5461720000000 1.0
C      1  0.5179470000000  0.6025480000000  0.5354330000000 1.0
C      1  0.4987740000000  0.5480960000000  0.3992070000000 1.0
C      1  0.4737450000000  0.4560860000000  0.6068360000000 1.0
C      1  0.5384370000000  0.4937690000000  0.5347400000000 1.0
C      1  0.4777000000000  0.4271710000000  0.4800640000000 1.0
C      1  0.4774670000000  0.4648080000000  0.4535380000000 1.0
C      1  0.5040210000000  0.5873720000000  0.4689100000000 1.0
C      1  0.5582550000000  0.4761470000000  0.4997570000000 1.0
C      1  0.5309100000000  0.4813880000000  0.4052760000000 1.0
C      1  0.5080660000000  0.4683730000000  0.5018840000000 1.0
C      1  0.5604770000000  0.5271910000000  0.4250540000000 1.0
C      1  0.4174350000000  0.4632810000000  0.4384490000000 1.0
C      1  0.4552200000000  0.4358400000000  0.4210040000000 1.0
C      1  0.4135480000000  0.4909560000000  0.4477820000000 1.0
C      1  0.4890700000000  0.5435290000000  0.4774210000000 1.0
C      1  0.4210950000000  0.4394130000000  0.4559570000000 1.0
C      1  0.5968860000000  0.4611940000000  0.5131990000000 1.0
C      1  0.5498050000000  0.4691480000000  0.4191870000000 1.0
C      1  0.4006770000000  0.5245770000000  0.4801560000000 1.0
C      1  0.5116590000000  0.5993550000000  0.5626370000000 1.0
C      1  0.5870100000000  0.4816580000000  0.4404820000000 1.0
C      1  0.5698470000000  0.5682720000000  0.4610570000000 1.0
C      1  0.4731310000000  0.4841360000000  0.5216140000000 1.0
C      1  0.5323800000000  0.4014230000000  0.5368300000000 1.0
C      1  0.5819900000000  0.5087210000000  0.5567530000000 1.0
C      1  0.4497870000000  0.5903760000000  0.5401590000000 1.0
C      1  0.4400050000000  0.5224950000000  0.5817900000000 1.0
C      1  0.5684820000000  0.5525830000000  0.5515140000000 1.0
C      1  0.4171300000000  0.4667840000000  0.5270160000000 1.0
C      1  0.4907510000000  0.5909420000000  0.5295310000000 1.0
C      1  0.4574150000000  0.4956720000000  0.5431970000000 1.0
C      1  0.4936360000000  0.4997650000000  0.3939400000000 1.0
C      1  0.5490430000000  0.5807030000000  0.5022190000000 1.0
C      1  0.5801290000000  0.5208860000000  0.4680820000000 1.0
C      1  0.5530730000000  0.5538760000000  0.4386370000000 1.0
C      1  0.5355110000000  0.4921390000000  0.4680630000000 1.0
C      1  0.4244470000000  0.4388290000000  0.5284320000000 1.0
C      1  0.5864530000000  0.4636690000000  0.5398110000000 1.0
C      1  0.5011780000000  0.4121780000000  0.4914250000000 1.0
C      1  0.4780750000000  0.4469070000000  0.4334800000000 1.0
C      1  0.5000960000000  0.4931120000000  0.5157020000000 1.0
C      1  0.5291970000000  0.4238570000000  0.4477730000000 1.0
C      1  0.4051850000000  0.4960830000000  0.4754250000000 1.0
C      1  0.5057150000000  0.5677670000000  0.4198880000000 1.0
C      1  0.5498540000000  0.4398750000000  0.5824990000000 1.0
C      1  0.5530150000000  0.5877810000000  0.4736250000000 1.0
C      1  0.5969160000000  0.5405310000000  0.5011540000000 1.0
C      1  0.4787790000000  0.5577180000000  0.5724470000000 1.0
C      1  0.5389470000000  0.4662750000000  0.5395190000000 1.0
C      1  0.4434060000000  0.5005580000000  0.4875840000000 1.0
C      1  0.4892820000000  0.5347990000000  0.5543560000000 1.0
C      1  0.4670630000000  0.4123530000000  0.4570050000000 1.0
C      1  0.5552110000000  0.4866290000000  0.5812020000000 1.0
C      1  0.5223960000000  0.5077270000000  0.5524480000000 1.0
C      1  0.4764830000000  0.5265360000000  0.4668070000000 1.0
C      1  0.4297820000000  0.5386790000000  0.4375000000000 1.0
C      1  0.5119090000000  0.5220760000000  0.3949150000000 1.0
C      1  0.5371820000000  0.4636040000000  0.5869120000000 1.0
C      1  0.4614150000000  0.5827040000000  0.4424000000000 1.0
C      1  0.6038950000000  0.4833300000000  0.4930980000000 1.0
C      1  0.4155010000000  0.4529620000000  0.4801180000000 1.0
C      1  0.4431050000000  0.4226770000000  0.4445770000000 1.0
C      1  0.5165910000000  0.5237340000000  0.5988960000000 1.0
C      1  0.4755310000000  0.5866910000000  0.5548380000000 1.0
C      1  0.5686210000000  0.4583190000000  0.4330560000000 1.0
C      1  0.4386640000000  0.4272940000000  0.5046760000000 1.0
C      1  0.5485330000000  0.4669650000000  0.4754210000000 1.0
C      1  0.4704050000000  0.5439180000000  0.4021480000000 1.0
C      1  0.4555980000000  0.4804670000000  0.4139860000000 1.0
C      1  0.5035970000000  0.4727190000000  0.4012630000000 1.0
C      1  0.5046950000000  0.5212840000000  0.5108470000000 1.0
C      1  0.4348410000000  0.5523620000000  0.4767130000000 1.0
C      1  0.4251390000000  0.5121940000000  0.4290950000000 1.0
C      1  0.4809320000000  0.5672940000000  0.4350610000000 1.0
C      1  0.5038240000000  0.5500740000000  0.5913330000000 1.0
C      1  0.5126530000000  0.3915010000000  0.5509280000000 1.0
C      1  0.4450970000000  0.5498330000000  0.5421730000000 1.0
C      1  0.4551060000000  0.5578610000000  0.4250680000000 1.0
C      1  0.4586500000000  0.4451660000000  0.4927840000000 1.0
C      1  0.4925880000000  0.5075410000000  0.4482310000000 1.0
C      1  0.5181470000000  0.5218410000000  0.4390580000000 1.0
C      1  0.5600790000000  0.4182590000000  0.5774190000000 1.0
C      1  0.5127640000000  0.4054430000000  0.4637660000000 1.0
C      1  0.5343890000000  0.5851250000000  0.5725990000000 1.0
C      1  0.4506980000000  0.5469630000000  0.5708260000000 1.0
C      1  0.4233090000000  0.5631280000000  0.5009860000000 1.0
C      1  0.4421250000000  0.5049820000000  0.4057300000000 1.0
C      1  0.4852600000000  0.5373970000000  0.5254950000000 1.0
C      1  0.5063120000000  0.4926620000000  0.4694120000000 1.0
C      1  0.4614350000000  0.4756160000000  0.4956130000000 1.0
C      1  0.4647060000000  0.5537820000000  0.5210130000000 1.0
C      1  0.4377550000000  0.5208490000000  0.5326190000000 1.0
C      1  0.4295370000000  0.4808830000000  0.5521670000000 1.0
C      1  0.4366960000000  0.4583240000000  0.4168780000000 1.0
C      1  0.4088530000000  0.5364730000000  0.5062340000000 1.0
END
