TITL C-884132-5695-44 249586.522304583 125000 -10136.2867170611 0 0 69 (C1) n - 1
REM
REM in /home/nfs/bkarasulu/CARBON/AIRSS/Generating-Clusters/ReaxFF-fromJPCA2015/Units_Real/with-SteepDescent/Only-C1/SD-CG/Try1-3A/FIRE-CG
REM
REM
REM
REM
REM
REM ./C.cell (11c1c37f851c82e70ff6c80c92926a4b)
REM
REM compiler GCC version 9.2.1 20190827 (Red Hat 9.2.1-1)
REM options -cpp -mtune=generic -march=x86-64 -g -O0 -fpre-include=/usr/include/finclude/math-vector-fortran.h
REM seed 1535647567 -1866141781 487362413 1158830406 -1585753817 1204971910 -1766111527 2091003567 -132074570 -1276931976 -723352281 1329591154 -1718749697 -1492449610 -637200115 1992719475 1712968119 -1197029910 2023136573 -100983373 626146248 88610532 103977197 794656285 1277710805 -247927188 -613211999 785224082 277292937 -616579512 1309769530 13803743 1941544867
REM
CELL 1.54180   50.00000   50.00000   50.00000   90.00000   90.00000   90.00000
LATT -1
SFAC C  
C      1  0.4672410000000  0.5114410000000  0.4376210000000 1.0
C      1  0.5435820000000  0.5630550000000  0.4870290000000 1.0
C      1  0.5060680000000  0.4474790000000  0.4516520000000 1.0
C      1  0.5182560000000  0.4957990000000  0.5707460000000 1.0
C      1  0.5333410000000  0.4309750000000  0.5195040000000 1.0
C      1  0.5497640000000  0.4546290000000  0.5276020000000 1.0
C      1  0.4924840000000  0.5532020000000  0.4886130000000 1.0
C      1  0.4753150000000  0.5266270000000  0.5825410000000 1.0
C      1  0.4662820000000  0.4480550000000  0.5585270000000 1.0
C      1  0.5585590000000  0.5384390000000  0.4805900000000 1.0
C      1  0.4555320000000  0.4966370000000  0.5515230000000 1.0
C      1  0.5484550000000  0.4417060000000  0.4707230000000 1.0
C      1  0.5130260000000  0.4991540000000  0.4417970000000 1.0
C      1  0.4566350000000  0.4593090000000  0.4768200000000 1.0
C      1  0.4463930000000  0.5480890000000  0.5213970000000 1.0
C      1  0.5022600000000  0.4359030000000  0.4783820000000 1.0
C      1  0.5542630000000  0.5283240000000  0.4539060000000 1.0
C      1  0.5277540000000  0.4305820000000  0.4895210000000 1.0
C      1  0.5596840000000  0.5000670000000  0.4524050000000 1.0
C      1  0.4995470000000  0.4722730000000  0.5667550000000 1.0
C      1  0.5280180000000  0.4929240000000  0.5453470000000 1.0
C      1  0.4650050000000  0.4342330000000  0.5187630000000 1.0
C      1  0.4755450000000  0.5388620000000  0.4396640000000 1.0
C      1  0.4390870000000  0.5528920000000  0.4767910000000 1.0
C      1  0.4649840000000  0.5509030000000  0.5399000000000 1.0
C      1  0.5732040000000  0.4927070000000  0.5043320000000 1.0
C      1  0.5293460000000  0.4973340000000  0.4878630000000 1.0
C      1  0.5006090000000  0.5196810000000  0.5681260000000 1.0
C      1  0.4487310000000  0.4522610000000  0.5353580000000 1.0
C      1  0.5531730000000  0.5156560000000  0.5009820000000 1.0
C      1  0.5104360000000  0.5089250000000  0.4687980000000 1.0
C      1  0.5290920000000  0.5670040000000  0.5132730000000 1.0
C      1  0.5313710000000  0.5457880000000  0.4394350000000 1.0
C      1  0.5143880000000  0.4818310000000  0.5020150000000 1.0
C      1  0.4587450000000  0.5599450000000  0.4580830000000 1.0
C      1  0.4997090000000  0.5287380000000  0.5387460000000 1.0
C      1  0.5352980000000  0.5497830000000  0.5362790000000 1.0
C      1  0.5338920000000  0.4555770000000  0.4483750000000 1.0
C      1  0.4841900000000  0.4616420000000  0.4372170000000 1.0
C      1  0.4905330000000  0.5219090000000  0.4866330000000 1.0
C      1  0.4866360000000  0.4909890000000  0.4320330000000 1.0
C      1  0.5759790000000  0.4866100000000  0.4755280000000 1.0
C      1  0.5030780000000  0.5438130000000  0.4388490000000 1.0
C      1  0.5384030000000  0.4838410000000  0.4410650000000 1.0
C      1  0.4949980000000  0.5579020000000  0.5351340000000 1.0
C      1  0.4418630000000  0.5012290000000  0.4540460000000 1.0
C      1  0.4822270000000  0.4265590000000  0.5416220000000 1.0
C      1  0.4938720000000  0.5193520000000  0.5136840000000 1.0
C      1  0.4794190000000  0.4475150000000  0.4959160000000 1.0
C      1  0.5540280000000  0.5275940000000  0.5469180000000 1.0
C      1  0.4996540000000  0.4674610000000  0.5137340000000 1.0
C      1  0.4581830000000  0.4512600000000  0.4479160000000 1.0
C      1  0.4423030000000  0.4812090000000  0.5316840000000 1.0
C      1  0.5316130000000  0.5633690000000  0.4612570000000 1.0
C      1  0.5009940000000  0.5698380000000  0.5099100000000 1.0
C      1  0.4401250000000  0.4824200000000  0.4795560000000 1.0
C      1  0.5643440000000  0.4793210000000  0.5294340000000 1.0
C      1  0.4262420000000  0.5450390000000  0.5013420000000 1.0
C      1  0.5088530000000  0.4258550000000  0.5330160000000 1.0
C      1  0.4147470000000  0.5166380000000  0.5055930000000 1.0
C      1  0.5535970000000  0.4985500000000  0.5511660000000 1.0
C      1  0.4707790000000  0.4756290000000  0.5667250000000 1.0
C      1  0.4584120000000  0.5261800000000  0.5573690000000 1.0
C      1  0.5386270000000  0.5247300000000  0.5253430000000 1.0
C      1  0.5136620000000  0.4684930000000  0.5406810000000 1.0
C      1  0.4169130000000  0.5039720000000  0.4527580000000 1.0
C      1  0.4752370000000  0.5705990000000  0.4786910000000 1.0
C      1  0.4295510000000  0.4919520000000  0.5062170000000 1.0
C      1  0.5658620000000  0.4617440000000  0.4791790000000 1.0
END
