TITL C-883734-4173-132 -2.2656109668753 125000 -11762.8771109867 0 0 79 (C1) n - 1
REM
REM in /home/nfs/bkarasulu/CARBON/AIRSS/Generating-Clusters/ReaxFF-fromJPCA2015/Units_Real/with-SteepDescent/Only-C1/SD-CG/Try1-3A/FIRE-CG
REM
REM
REM
REM
REM
REM ./C.cell (11c1c37f851c82e70ff6c80c92926a4b)
REM
REM compiler GCC version 9.2.1 20190827 (Red Hat 9.2.1-1)
REM options -cpp -mtune=generic -march=x86-64 -g -O0 -fpre-include=/usr/include/finclude/math-vector-fortran.h
REM seed 489668488 224415390 1440682622 -311492651 1513384577 -979984979 2105319981 518761309 -354332280 1826754694 -1654999537 105936763 -544878937 97618285 -1670573358 1405294065 2039266359 929730778 -1087949640 1636098285 -357637729 -558971393 1062227224 857084128 -886620448 -1372093728 -970802728 1405780522 1919467323 2018131956 -777040033 -748400446 -1854013618
REM
CELL 1.54180   50.00000   50.00000   50.00000   90.00000   90.00000   90.00000
LATT -1
SFAC C  
C      1  0.5661490000000  0.5483250000000  0.4795090000000 1.0
C      1  0.4764810000000  0.4860770000000  0.5665910000000 1.0
C      1  0.4728290000000  0.4504050000000  0.4804980000000 1.0
C      1  0.5439200000000  0.5517070000000  0.4447200000000 1.0
C      1  0.4341720000000  0.4675600000000  0.5358750000000 1.0
C      1  0.4960780000000  0.5710420000000  0.5394400000000 1.0
C      1  0.5714020000000  0.4615200000000  0.5396080000000 1.0
C      1  0.5098200000000  0.4530330000000  0.5534720000000 1.0
C      1  0.4911970000000  0.5450110000000  0.5711170000000 1.0
C      1  0.5573410000000  0.4498280000000  0.5608930000000 1.0
C      1  0.5440340000000  0.4821130000000  0.4335180000000 1.0
C      1  0.5243290000000  0.5762890000000  0.4480520000000 1.0
C      1  0.5389070000000  0.5379180000000  0.5684350000000 1.0
C      1  0.4997070000000  0.4959990000000  0.4246200000000 1.0
C      1  0.5492890000000  0.4538910000000  0.5211240000000 1.0
C      1  0.5211580000000  0.4999300000000  0.5764600000000 1.0
C      1  0.4454350000000  0.4518450000000  0.4696810000000 1.0
C      1  0.5268270000000  0.5037070000000  0.4209200000000 1.0
C      1  0.4174920000000  0.4905230000000  0.4722140000000 1.0
C      1  0.5586890000000  0.5025780000000  0.4489570000000 1.0
C      1  0.5426060000000  0.5535740000000  0.5436290000000 1.0
C      1  0.4883650000000  0.5037720000000  0.5441900000000 1.0
C      1  0.4275760000000  0.4451610000000  0.4932710000000 1.0
C      1  0.4671920000000  0.4300950000000  0.5230500000000 1.0
C      1  0.4739350000000  0.5630960000000  0.5565670000000 1.0
C      1  0.5122230000000  0.5295520000000  0.5809580000000 1.0
C      1  0.5362000000000  0.4493250000000  0.4757080000000 1.0
C      1  0.5321280000000  0.4589680000000  0.4463030000000 1.0
C      1  0.5422780000000  0.5449760000000  0.4730280000000 1.0
C      1  0.4618700000000  0.4877450000000  0.4395020000000 1.0
C      1  0.5352060000000  0.4389780000000  0.5717820000000 1.0
C      1  0.4278400000000  0.5416090000000  0.5282910000000 1.0
C      1  0.4407550000000  0.4439320000000  0.5195780000000 1.0
C      1  0.5299140000000  0.4964840000000  0.4885860000000 1.0
C      1  0.4683560000000  0.5218560000000  0.4845510000000 1.0
C      1  0.5207380000000  0.5157830000000  0.5078330000000 1.0
C      1  0.5107560000000  0.5688350000000  0.5006520000000 1.0
C      1  0.5156010000000  0.4700300000000  0.4950390000000 1.0
C      1  0.5446050000000  0.5243600000000  0.4344990000000 1.0
C      1  0.5040300000000  0.4241810000000  0.4545010000000 1.0
C      1  0.4108130000000  0.4669660000000  0.4856970000000 1.0
C      1  0.4997770000000  0.4130730000000  0.4815920000000 1.0
C      1  0.6031450000000  0.5513820000000  0.4950850000000 1.0
C      1  0.4292400000000  0.5547070000000  0.4325830000000 1.0
C      1  0.5225180000000  0.4686990000000  0.5260660000000 1.0
C      1  0.4868680000000  0.4731010000000  0.4324510000000 1.0
C      1  0.4455780000000  0.5405080000000  0.4816690000000 1.0
C      1  0.5132730000000  0.5399090000000  0.4893710000000 1.0
C      1  0.5594490000000  0.4562370000000  0.4942440000000 1.0
C      1  0.4230910000000  0.5346390000000  0.4992400000000 1.0
C      1  0.4510890000000  0.5535420000000  0.4559520000000 1.0
C      1  0.4544890000000  0.4740340000000  0.5542970000000 1.0
C      1  0.5636130000000  0.5377930000000  0.5334280000000 1.0
C      1  0.4909260000000  0.5315640000000  0.4695370000000 1.0
C      1  0.4380190000000  0.5143760000000  0.5373090000000 1.0
C      1  0.4226130000000  0.4937570000000  0.5245250000000 1.0
C      1  0.5645070000000  0.5103980000000  0.5418360000000 1.0
C      1  0.4862780000000  0.4741450000000  0.4907770000000 1.0
C      1  0.4429300000000  0.5318260000000  0.4222660000000 1.0
C      1  0.5794550000000  0.5473080000000  0.5054030000000 1.0
C      1  0.4870330000000  0.4372630000000  0.5431000000000 1.0
C      1  0.4656820000000  0.5160270000000  0.4291620000000 1.0
C      1  0.4779440000000  0.4255670000000  0.4953550000000 1.0
C      1  0.5722310000000  0.4821940000000  0.4976420000000 1.0
C      1  0.5163360000000  0.5793620000000  0.4753600000000 1.0
C      1  0.5242210000000  0.4231430000000  0.4737070000000 1.0
C      1  0.4405090000000  0.4779650000000  0.4571870000000 1.0
C      1  0.5132530000000  0.4980320000000  0.5291740000000 1.0
C      1  0.5058230000000  0.4498040000000  0.4407980000000 1.0
C      1  0.4162100000000  0.5061780000000  0.4985010000000 1.0
C      1  0.4703970000000  0.4971910000000  0.5002270000000 1.0
C      1  0.5038410000000  0.4769010000000  0.5728180000000 1.0
C      1  0.5214780000000  0.5709080000000  0.5289430000000 1.0
C      1  0.5575630000000  0.4992470000000  0.4784420000000 1.0
C      1  0.5751580000000  0.4877950000000  0.5266460000000 1.0
C      1  0.4658510000000  0.5083330000000  0.5270360000000 1.0
C      1  0.4486220000000  0.5546050000000  0.5421940000000 1.0
C      1  0.5471920000000  0.5097940000000  0.5667100000000 1.0
C      1  0.4755540000000  0.5401150000000  0.4464470000000 1.0
END
