TITL C-884130-5973-407 12.0040304230322 125000 -12384.4844760549 0 0 84 (C1) n - 1
REM
REM in /home/nfs/bkarasulu/CARBON/AIRSS/Generating-Clusters/ReaxFF-fromJPCA2015/Units_Real/with-SteepDescent/Only-C1/SD-CG/Try1-3A/FIRE-CG
REM
REM
REM
REM
REM
REM ./C.cell (11c1c37f851c82e70ff6c80c92926a4b)
REM
REM compiler GCC version 9.2.1 20190827 (Red Hat 9.2.1-1)
REM options -cpp -mtune=generic -march=x86-64 -g -O0 -fpre-include=/usr/include/finclude/math-vector-fortran.h
REM seed 493194872 165327160 -76116135 1333158462 975217704 1193952272 372359240 -1404755769 -1510295527 1803451867 2006558562 -1170691151 -2135093936 -1880329726 438380044 128918778 -557974782 -244447862 -511029143 1322068981 -1287372207 -812185282 -1193465430 536461803 -2115973232 -212131604 1774047920 -1768213415 -857108845 -852069959 664871555 -1949819350 2004693792
REM
CELL 1.54180   50.00000   50.00000   50.00000   90.00000   90.00000   90.00000
LATT -1
SFAC C  
C      1  0.4840190000000  0.5768520000000  0.5189110000000 1.0
C      1  0.5183320000000  0.4642530000000  0.5303490000000 1.0
C      1  0.4795140000000  0.5051800000000  0.5442120000000 1.0
C      1  0.5308770000000  0.4686670000000  0.4301310000000 1.0
C      1  0.5684960000000  0.4462380000000  0.5066140000000 1.0
C      1  0.5144220000000  0.4999290000000  0.5663840000000 1.0
C      1  0.4521380000000  0.4430500000000  0.4827840000000 1.0
C      1  0.4922610000000  0.4759150000000  0.4883000000000 1.0
C      1  0.5113960000000  0.4742960000000  0.5561750000000 1.0
C      1  0.4220280000000  0.4600590000000  0.5155710000000 1.0
C      1  0.5011120000000  0.5680700000000  0.5428930000000 1.0
C      1  0.5272140000000  0.4363170000000  0.5366200000000 1.0
C      1  0.5715070000000  0.5145340000000  0.4624220000000 1.0
C      1  0.5009380000000  0.5776120000000  0.4950720000000 1.0
C      1  0.5445030000000  0.4699730000000  0.4816900000000 1.0
C      1  0.4972270000000  0.4986850000000  0.4722080000000 1.0
C      1  0.4224090000000  0.5158150000000  0.4480780000000 1.0
C      1  0.4987220000000  0.5509340000000  0.5657610000000 1.0
C      1  0.4570620000000  0.5669710000000  0.5144580000000 1.0
C      1  0.4933370000000  0.4433770000000  0.4484220000000 1.0
C      1  0.4213660000000  0.4835330000000  0.5325930000000 1.0
C      1  0.5845890000000  0.5308290000000  0.4829550000000 1.0
C      1  0.4450680000000  0.4836350000000  0.5500940000000 1.0
C      1  0.4513070000000  0.5489620000000  0.5605500000000 1.0
C      1  0.4619090000000  0.5314840000000  0.4270850000000 1.0
C      1  0.5571700000000  0.5024400000000  0.5447300000000 1.0
C      1  0.5925680000000  0.5077010000000  0.4938690000000 1.0
C      1  0.5707920000000  0.4743150000000  0.4945510000000 1.0
C      1  0.4853510000000  0.5207740000000  0.4175460000000 1.0
C      1  0.5314300000000  0.4956660000000  0.4288980000000 1.0
C      1  0.5103310000000  0.4294570000000  0.4660540000000 1.0
C      1  0.4149320000000  0.5103870000000  0.5205760000000 1.0
C      1  0.4226420000000  0.4918610000000  0.4602790000000 1.0
C      1  0.4548490000000  0.4340550000000  0.5470790000000 1.0
C      1  0.4370400000000  0.5553390000000  0.4941610000000 1.0
C      1  0.5519640000000  0.5130790000000  0.5178840000000 1.0
C      1  0.4178950000000  0.5351750000000  0.5073630000000 1.0
C      1  0.4823010000000  0.5273040000000  0.5252990000000 1.0
C      1  0.5485020000000  0.5541610000000  0.4697980000000 1.0
C      1  0.4702910000000  0.4821540000000  0.5052140000000 1.0
C      1  0.4850820000000  0.4906340000000  0.4271740000000 1.0
C      1  0.4373280000000  0.5401030000000  0.4399860000000 1.0
C      1  0.4573340000000  0.4269060000000  0.5065160000000 1.0
C      1  0.4383270000000  0.5488760000000  0.4676230000000 1.0
C      1  0.4307930000000  0.4641550000000  0.4879800000000 1.0
C      1  0.4693860000000  0.4801690000000  0.5335800000000 1.0
C      1  0.5013510000000  0.4665260000000  0.4286440000000 1.0
C      1  0.5082320000000  0.5383950000000  0.4278880000000 1.0
C      1  0.5840260000000  0.4909740000000  0.4767270000000 1.0
C      1  0.5290710000000  0.5731440000000  0.4588880000000 1.0
C      1  0.5495600000000  0.5501150000000  0.5430070000000 1.0
C      1  0.4364450000000  0.4359950000000  0.5257110000000 1.0
C      1  0.4505700000000  0.4921380000000  0.4647200000000 1.0
C      1  0.5325780000000  0.5230360000000  0.4325770000000 1.0
C      1  0.5124050000000  0.4218010000000  0.5141830000000 1.0
C      1  0.5559970000000  0.4270760000000  0.4877930000000 1.0
C      1  0.4768160000000  0.4523700000000  0.4708250000000 1.0
C      1  0.4841270000000  0.4216340000000  0.5203290000000 1.0
C      1  0.5255370000000  0.4205030000000  0.4882330000000 1.0
C      1  0.5074450000000  0.4419270000000  0.5634960000000 1.0
C      1  0.5208760000000  0.4751940000000  0.5022170000000 1.0
C      1  0.5184350000000  0.5273010000000  0.5707810000000 1.0
C      1  0.5453960000000  0.5266620000000  0.5599430000000 1.0
C      1  0.5157730000000  0.5170850000000  0.4836070000000 1.0
C      1  0.5668390000000  0.5512240000000  0.4924070000000 1.0
C      1  0.4730100000000  0.5490160000000  0.5791730000000 1.0
C      1  0.5013450000000  0.5790030000000  0.4662620000000 1.0
C      1  0.5573060000000  0.4483450000000  0.5336810000000 1.0
C      1  0.5073470000000  0.5643200000000  0.4410020000000 1.0
C      1  0.4763960000000  0.5011850000000  0.4528490000000 1.0
C      1  0.5167650000000  0.5579090000000  0.5058520000000 1.0
C      1  0.4602000000000  0.5448450000000  0.5329350000000 1.0
C      1  0.5581070000000  0.5412740000000  0.5177840000000 1.0
C      1  0.4473030000000  0.4868150000000  0.4911710000000 1.0
C      1  0.5462550000000  0.4580900000000  0.4554690000000 1.0
C      1  0.5289570000000  0.5030200000000  0.5040300000000 1.0
C      1  0.4534010000000  0.5282470000000  0.5780580000000 1.0
C      1  0.5618980000000  0.4321870000000  0.4590050000000 1.0
C      1  0.5578410000000  0.4743990000000  0.5428820000000 1.0
C      1  0.4591620000000  0.5046150000000  0.5650420000000 1.0
C      1  0.4815760000000  0.4290630000000  0.5488970000000 1.0
C      1  0.5434970000000  0.5261200000000  0.4617630000000 1.0
C      1  0.5024730000000  0.5336340000000  0.5047220000000 1.0
C      1  0.5276210000000  0.5649340000000  0.5309550000000 1.0
END
