TITL C-883734-4173-420 0.408933805638921 125000 -12665.4156856393 0 0 86 (C1) n - 1
REM
REM in /home/nfs/bkarasulu/CARBON/AIRSS/Generating-Clusters/ReaxFF-fromJPCA2015/Units_Real/with-SteepDescent/Only-C1/SD-CG/Try1-3A/FIRE-CG
REM
REM
REM
REM
REM
REM ./C.cell (11c1c37f851c82e70ff6c80c92926a4b)
REM
REM compiler GCC version 9.2.1 20190827 (Red Hat 9.2.1-1)
REM options -cpp -mtune=generic -march=x86-64 -g -O0 -fpre-include=/usr/include/finclude/math-vector-fortran.h
REM seed 911752473 1953649620 -149418827 -227959846 1537718534 -2122106621 438213112 -1747717979 -1669601314 821759183 -1284017575 1577157529 -1248682135 -851400366 -394222801 -1238077198 -1902428065 -1054298397 -2064093357 1145088166 351838540 -1609379738 -1830805734 -1646210061 -165923441 -425864847 450137629 146039909 1732037430 1029552701 733689185 -192524833 989549877
REM
CELL 1.54180   50.00000   50.00000   50.00000   90.00000   90.00000   90.00000
LATT -1
SFAC C  
C      1  0.4401990000000  0.5041110000000  0.4458000000000 1.0
C      1  0.4802520000000  0.4284880000000  0.5142820000000 1.0
C      1  0.5356940000000  0.5506080000000  0.4709900000000 1.0
C      1  0.5011410000000  0.5695890000000  0.4392020000000 1.0
C      1  0.5455300000000  0.5050020000000  0.5914450000000 1.0
C      1  0.5017360000000  0.5209900000000  0.5686110000000 1.0
C      1  0.5380190000000  0.5179480000000  0.4242280000000 1.0
C      1  0.4596410000000  0.4937100000000  0.5628120000000 1.0
C      1  0.5606320000000  0.5037920000000  0.4334680000000 1.0
C      1  0.4670070000000  0.5244160000000  0.5007310000000 1.0
C      1  0.4809640000000  0.5674800000000  0.5046430000000 1.0
C      1  0.4966050000000  0.5500780000000  0.4193400000000 1.0
C      1  0.4943350000000  0.5830580000000  0.4622170000000 1.0
C      1  0.4542260000000  0.4856330000000  0.4655980000000 1.0
C      1  0.4808050000000  0.5380270000000  0.4578440000000 1.0
C      1  0.4997540000000  0.4764990000000  0.4466740000000 1.0
C      1  0.5748650000000  0.5445850000000  0.4990990000000 1.0
C      1  0.5051850000000  0.4229320000000  0.5220880000000 1.0
C      1  0.5238910000000  0.5504140000000  0.5227480000000 1.0
C      1  0.5181710000000  0.5741710000000  0.4775220000000 1.0
C      1  0.5203720000000  0.5274020000000  0.4779380000000 1.0
C      1  0.4274790000000  0.4638290000000  0.4891040000000 1.0
C      1  0.5032050000000  0.5203110000000  0.4568040000000 1.0
C      1  0.5355860000000  0.4401240000000  0.4791020000000 1.0
C      1  0.5311150000000  0.4183310000000  0.5265230000000 1.0
C      1  0.4397800000000  0.5714150000000  0.4796140000000 1.0
C      1  0.5019740000000  0.4673710000000  0.5778970000000 1.0
C      1  0.5202660000000  0.4841470000000  0.4813360000000 1.0
C      1  0.5473550000000  0.4319920000000  0.5036590000000 1.0
C      1  0.5351050000000  0.4284950000000  0.5542290000000 1.0
C      1  0.4288450000000  0.4407920000000  0.5403870000000 1.0
C      1  0.4641410000000  0.4955290000000  0.4120340000000 1.0
C      1  0.4372900000000  0.4504340000000  0.5171980000000 1.0
C      1  0.5179910000000  0.4925910000000  0.5768620000000 1.0
C      1  0.5122470000000  0.4394010000000  0.5711210000000 1.0
C      1  0.4199570000000  0.5186360000000  0.4982110000000 1.0
C      1  0.5104000000000  0.5699360000000  0.5059380000000 1.0
C      1  0.5686400000000  0.4442140000000  0.5202630000000 1.0
C      1  0.5635310000000  0.5411610000000  0.4717550000000 1.0
C      1  0.5227800000000  0.5067430000000  0.4993660000000 1.0
C      1  0.4739490000000  0.5456330000000  0.4848940000000 1.0
C      1  0.4211270000000  0.4911620000000  0.4934240000000 1.0
C      1  0.4677450000000  0.4361170000000  0.4635410000000 1.0
C      1  0.4861930000000  0.4311520000000  0.5657860000000 1.0
C      1  0.4756630000000  0.4866930000000  0.5179700000000 1.0
C      1  0.5375770000000  0.4864380000000  0.5555450000000 1.0
C      1  0.4662170000000  0.4531180000000  0.5264720000000 1.0
C      1  0.4718360000000  0.5194550000000  0.5696580000000 1.0
C      1  0.5002860000000  0.5036020000000  0.5206490000000 1.0
C      1  0.5507200000000  0.5428600000000  0.5181460000000 1.0
C      1  0.5544680000000  0.4757690000000  0.4405990000000 1.0
C      1  0.4704710000000  0.4968280000000  0.4881340000000 1.0
C      1  0.5625340000000  0.4710610000000  0.5517870000000 1.0
C      1  0.5105020000000  0.5244810000000  0.5382510000000 1.0
C      1  0.4846270000000  0.4246470000000  0.4846800000000 1.0
C      1  0.5408820000000  0.5118890000000  0.5458120000000 1.0
C      1  0.5137290000000  0.5263810000000  0.4260750000000 1.0
C      1  0.4540080000000  0.5355860000000  0.5250420000000 1.0
C      1  0.4732750000000  0.4695810000000  0.5727920000000 1.0
C      1  0.4983820000000  0.4918590000000  0.4669540000000 1.0
C      1  0.4584290000000  0.5849470000000  0.4983620000000 1.0
C      1  0.4628200000000  0.4451700000000  0.5573330000000 1.0
C      1  0.5488500000000  0.5130880000000  0.5181450000000 1.0
C      1  0.4473420000000  0.4576080000000  0.4678980000000 1.0
C      1  0.5756130000000  0.4967860000000  0.5063620000000 1.0
C      1  0.5756510000000  0.4721540000000  0.5254100000000 1.0
C      1  0.4635700000000  0.5858590000000  0.4700480000000 1.0
C      1  0.5688010000000  0.5139230000000  0.4612590000000 1.0
C      1  0.4325730000000  0.5156650000000  0.5251100000000 1.0
C      1  0.5568130000000  0.5228450000000  0.5725510000000 1.0
C      1  0.5063040000000  0.5526450000000  0.5791130000000 1.0
C      1  0.5455670000000  0.4702630000000  0.4701740000000 1.0
C      1  0.5932010000000  0.5240130000000  0.5073060000000 1.0
C      1  0.4336520000000  0.5274780000000  0.4589850000000 1.0
C      1  0.5097180000000  0.4308430000000  0.4691030000000 1.0
C      1  0.4273910000000  0.5434660000000  0.4787360000000 1.0
C      1  0.4635750000000  0.5422840000000  0.5527520000000 1.0
C      1  0.4532670000000  0.5188490000000  0.4227800000000 1.0
C      1  0.4758130000000  0.4711400000000  0.4040260000000 1.0
C      1  0.5684890000000  0.4905330000000  0.4778930000000 1.0
C      1  0.4513740000000  0.4944310000000  0.5347800000000 1.0
C      1  0.4912970000000  0.4356090000000  0.4448380000000 1.0
C      1  0.4704760000000  0.5423240000000  0.4310310000000 1.0
C      1  0.4840360000000  0.5584270000000  0.5638190000000 1.0
C      1  0.4939800000000  0.4594070000000  0.4277270000000 1.0
C      1  0.5604970000000  0.4415450000000  0.5495610000000 1.0
END
