TITL C-883731-9874-203 113.58237299055 125000 -21930.6178043408 0 0 150 (C1) n - 1
REM
REM in /home/nfs/bkarasulu/CARBON/AIRSS/Generating-Clusters/ReaxFF-fromJPCA2015/Units_Real/with-SteepDescent/Only-C1/SD-CG/Try1-3A/FIRE-CG
REM
REM
REM
REM
REM
REM ./C.cell (11c1c37f851c82e70ff6c80c92926a4b)
REM
REM compiler GCC version 9.2.1 20190827 (Red Hat 9.2.1-1)
REM options -cpp -mtune=generic -march=x86-64 -g -O0 -fpre-include=/usr/include/finclude/math-vector-fortran.h
REM seed -1257720633 -85613937 -1479401644 235669393 -1627849690 582415008 -239301565 1396468271 203881183 -538092103 1852626877 -1213752403 373832620 -1216390205 -691523013 -2060337274 532654464 -1589726902 -784630381 221122044 -549248930 -52271662 -1729928192 -357848653 -935351911 1077148629 -453698603 1051928444 883173282 29084266 -259601086 148616845 2099111509
REM
CELL 1.54180   50.00000   50.00000   50.00000   90.00000   90.00000   90.00000
LATT -1
SFAC C  
C      1  0.5934760000000  0.5483940000000  0.5163960000000 1.0
C      1  0.4801830000000  0.5403310000000  0.5075340000000 1.0
C      1  0.4722250000000  0.5150620000000  0.5880350000000 1.0
C      1  0.4125410000000  0.5072760000000  0.4541590000000 1.0
C      1  0.5891500000000  0.4446250000000  0.4762690000000 1.0
C      1  0.5102760000000  0.5545460000000  0.4168480000000 1.0
C      1  0.5311440000000  0.4193860000000  0.5307820000000 1.0
C      1  0.5623570000000  0.4859160000000  0.4814640000000 1.0
C      1  0.5622670000000  0.5492260000000  0.4515390000000 1.0
C      1  0.4258420000000  0.4218570000000  0.5016940000000 1.0
C      1  0.5074140000000  0.5861230000000  0.4989940000000 1.0
C      1  0.5536350000000  0.5800170000000  0.5343540000000 1.0
C      1  0.5535470000000  0.4747130000000  0.5876130000000 1.0
C      1  0.4846600000000  0.4644230000000  0.5979000000000 1.0
C      1  0.4456520000000  0.4146540000000  0.5462590000000 1.0
C      1  0.5191090000000  0.5121330000000  0.6100530000000 1.0
C      1  0.5970840000000  0.4819380000000  0.5102890000000 1.0
C      1  0.4506710000000  0.5716070000000  0.4397430000000 1.0
C      1  0.5612530000000  0.5050100000000  0.5510250000000 1.0
C      1  0.5645600000000  0.5102990000000  0.4202420000000 1.0
C      1  0.5264570000000  0.4590680000000  0.5620430000000 1.0
C      1  0.5032030000000  0.5891730000000  0.5480730000000 1.0
C      1  0.5021650000000  0.5376920000000  0.5540670000000 1.0
C      1  0.5539840000000  0.5110030000000  0.5237860000000 1.0
C      1  0.5585890000000  0.5779960000000  0.4567060000000 1.0
C      1  0.5503100000000  0.4614430000000  0.4285850000000 1.0
C      1  0.5145250000000  0.5486340000000  0.5771540000000 1.0
C      1  0.5563510000000  0.5839250000000  0.4852630000000 1.0
C      1  0.5020360000000  0.4094240000000  0.4876720000000 1.0
C      1  0.5347690000000  0.4654460000000  0.4540850000000 1.0
C      1  0.4181830000000  0.4875880000000  0.5553760000000 1.0
C      1  0.4845850000000  0.4971040000000  0.4565430000000 1.0
C      1  0.4780630000000  0.5142560000000  0.4217900000000 1.0
C      1  0.3964650000000  0.4765090000000  0.4935340000000 1.0
C      1  0.4901370000000  0.5154160000000  0.4980740000000 1.0
C      1  0.5945400000000  0.5386020000000  0.5422440000000 1.0
C      1  0.4388040000000  0.5257170000000  0.5778280000000 1.0
C      1  0.4958380000000  0.5233270000000  0.3860320000000 1.0
C      1  0.4471550000000  0.4943230000000  0.4877060000000 1.0
C      1  0.5432330000000  0.5468910000000  0.5740340000000 1.0
C      1  0.5492330000000  0.4214600000000  0.4563490000000 1.0
C      1  0.6008610000000  0.5245060000000  0.5037210000000 1.0
C      1  0.4367290000000  0.5762340000000  0.4646130000000 1.0
C      1  0.4759220000000  0.5101880000000  0.5424970000000 1.0
C      1  0.4909130000000  0.4963590000000  0.5227090000000 1.0
C      1  0.5923670000000  0.5021910000000  0.4602970000000 1.0
C      1  0.4769160000000  0.4063470000000  0.5023710000000 1.0
C      1  0.4436620000000  0.5411660000000  0.5387960000000 1.0
C      1  0.5340710000000  0.4519700000000  0.5891320000000 1.0
C      1  0.3967610000000  0.4744170000000  0.5410600000000 1.0
C      1  0.4219790000000  0.4263080000000  0.5308920000000 1.0
C      1  0.4680960000000  0.4036500000000  0.5307650000000 1.0
C      1  0.5058770000000  0.4440580000000  0.5938050000000 1.0
C      1  0.4172230000000  0.4343600000000  0.4767060000000 1.0
C      1  0.5671540000000  0.4781290000000  0.5613770000000 1.0
C      1  0.5707760000000  0.4561800000000  0.5420200000000 1.0
C      1  0.4093980000000  0.4504710000000  0.5377580000000 1.0
C      1  0.5269390000000  0.5536650000000  0.5176650000000 1.0
C      1  0.5503140000000  0.5390850000000  0.5075600000000 1.0
C      1  0.4771430000000  0.5739660000000  0.4732550000000 1.0
C      1  0.4203210000000  0.5555730000000  0.5280960000000 1.0
C      1  0.5182450000000  0.5173330000000  0.4917290000000 1.0
C      1  0.4432490000000  0.4300940000000  0.4641060000000 1.0
C      1  0.5181420000000  0.5790380000000  0.5704280000000 1.0
C      1  0.5244480000000  0.4578760000000  0.4124660000000 1.0
C      1  0.4873580000000  0.4900030000000  0.5836760000000 1.0
C      1  0.4778010000000  0.5902160000000  0.5136710000000 1.0
C      1  0.5084830000000  0.4545060000000  0.5226590000000 1.0
C      1  0.5079700000000  0.5761430000000  0.4361980000000 1.0
C      1  0.4861390000000  0.4733380000000  0.4514820000000 1.0
C      1  0.4048040000000  0.4614940000000  0.4722250000000 1.0
C      1  0.4304690000000  0.5176240000000  0.4337410000000 1.0
C      1  0.4974120000000  0.4309120000000  0.5677480000000 1.0
C      1  0.4566010000000  0.4440540000000  0.4425560000000 1.0
C      1  0.4438330000000  0.4715710000000  0.4372950000000 1.0
C      1  0.5229180000000  0.4168780000000  0.4422320000000 1.0
C      1  0.5509460000000  0.4210280000000  0.4855100000000 1.0
C      1  0.5143640000000  0.4874660000000  0.5673290000000 1.0
C      1  0.5317520000000  0.5344800000000  0.4096520000000 1.0
C      1  0.4793610000000  0.5783580000000  0.4451840000000 1.0
C      1  0.4902260000000  0.4504270000000  0.5451210000000 1.0
C      1  0.5249000000000  0.5208300000000  0.4525880000000 1.0
C      1  0.4646340000000  0.4453900000000  0.5899990000000 1.0
C      1  0.5436560000000  0.4445890000000  0.5428850000000 1.0
C      1  0.4531990000000  0.5431420000000  0.4999430000000 1.0
C      1  0.5023340000000  0.5633420000000  0.4809470000000 1.0
C      1  0.5162580000000  0.5387390000000  0.4730970000000 1.0
C      1  0.4555740000000  0.5858800000000  0.4954640000000 1.0
C      1  0.4783310000000  0.5319390000000  0.5609790000000 1.0
C      1  0.5245240000000  0.4905660000000  0.4944650000000 1.0
C      1  0.4509770000000  0.4980040000000  0.4268740000000 1.0
C      1  0.4721150000000  0.5056070000000  0.4777720000000 1.0
C      1  0.4361930000000  0.5657580000000  0.5057550000000 1.0
C      1  0.5291920000000  0.4788400000000  0.5198360000000 1.0
C      1  0.4611710000000  0.5581150000000  0.5554970000000 1.0
C      1  0.5900880000000  0.5298540000000  0.5682290000000 1.0
C      1  0.5767590000000  0.4336960000000  0.4971680000000 1.0
C      1  0.4420170000000  0.4755010000000  0.5090930000000 1.0
C      1  0.4834740000000  0.4310550000000  0.4389110000000 1.0
C      1  0.5031050000000  0.5068780000000  0.4397710000000 1.0
C      1  0.4886000000000  0.4580680000000  0.4758440000000 1.0
C      1  0.4369340000000  0.5216230000000  0.4895660000000 1.0
C      1  0.4432260000000  0.5539230000000  0.5816770000000 1.0
C      1  0.4864390000000  0.5404550000000  0.4078730000000 1.0
C      1  0.4317480000000  0.5475700000000  0.4356470000000 1.0
C      1  0.4876770000000  0.4643580000000  0.5040410000000 1.0
C      1  0.4058940000000  0.5302890000000  0.5331980000000 1.0
C      1  0.4177640000000  0.5159860000000  0.5598460000000 1.0
C      1  0.5455120000000  0.5728830000000  0.5615840000000 1.0
C      1  0.4545250000000  0.4245560000000  0.4930540000000 1.0
C      1  0.5386820000000  0.5004040000000  0.5890110000000 1.0
C      1  0.5303730000000  0.5965410000000  0.4807480000000 1.0
C      1  0.5011470000000  0.5457110000000  0.5268550000000 1.0
C      1  0.5918780000000  0.4511430000000  0.4494070000000 1.0
C      1  0.4976280000000  0.5278420000000  0.5984460000000 1.0
C      1  0.5392100000000  0.4704140000000  0.4817890000000 1.0
C      1  0.4631850000000  0.4582170000000  0.5397390000000 1.0
C      1  0.4192100000000  0.4790510000000  0.4518070000000 1.0
C      1  0.5147790000000  0.4956080000000  0.5387860000000 1.0
C      1  0.5209320000000  0.5116360000000  0.3945980000000 1.0
C      1  0.4747680000000  0.5033520000000  0.3922460000000 1.0
C      1  0.5621560000000  0.5082740000000  0.4625790000000 1.0
C      1  0.5576430000000  0.5340390000000  0.4749310000000 1.0
C      1  0.4760250000000  0.5830000000000  0.5412800000000 1.0
C      1  0.4603520000000  0.4543640000000  0.5116140000000 1.0
C      1  0.5938110000000  0.4806410000000  0.4410610000000 1.0
C      1  0.5862690000000  0.4550480000000  0.5169050000000 1.0
C      1  0.3982770000000  0.5176390000000  0.5085710000000 1.0
C      1  0.4871840000000  0.4764280000000  0.3875950000000 1.0
C      1  0.3884560000000  0.4909380000000  0.5145280000000 1.0
C      1  0.5083540000000  0.4571680000000  0.4558460000000 1.0
C      1  0.5696430000000  0.4922820000000  0.5085220000000 1.0
C      1  0.5662740000000  0.5660640000000  0.5111150000000 1.0
C      1  0.5088150000000  0.4347550000000  0.4229080000000 1.0
C      1  0.4503690000000  0.4274320000000  0.5736090000000 1.0
C      1  0.5575280000000  0.5230850000000  0.5740040000000 1.0
C      1  0.5670480000000  0.4380960000000  0.4409070000000 1.0
C      1  0.5250880000000  0.5831190000000  0.5251710000000 1.0
C      1  0.4990690000000  0.4136670000000  0.4580010000000 1.0
C      1  0.4192550000000  0.5536230000000  0.4610800000000 1.0
C      1  0.5152390000000  0.4811540000000  0.3977330000000 1.0
C      1  0.5299830000000  0.5878520000000  0.4524170000000 1.0
C      1  0.4502450000000  0.5133930000000  0.5337100000000 1.0
C      1  0.5278830000000  0.4140140000000  0.5008790000000 1.0
C      1  0.4439610000000  0.4835100000000  0.5373190000000 1.0
C      1  0.5726290000000  0.4846710000000  0.4216090000000 1.0
C      1  0.6045820000000  0.5013790000000  0.4881920000000 1.0
C      1  0.4098590000000  0.5261290000000  0.4780600000000 1.0
C      1  0.5137090000000  0.4103440000000  0.5531000000000 1.0
C      1  0.5580640000000  0.5363480000000  0.4234860000000 1.0
END
