TITL C-884130-5973-282 -0.633342384597493 125000 -5615.82587893674 0 0 39 (C1) n - 1
REM
REM in /home/nfs/bkarasulu/CARBON/AIRSS/Generating-Clusters/ReaxFF-fromJPCA2015/Units_Real/with-SteepDescent/Only-C1/SD-CG/Try1-3A/FIRE-CG
REM
REM
REM
REM
REM
REM ./C.cell (11c1c37f851c82e70ff6c80c92926a4b)
REM
REM compiler GCC version 9.2.1 20190827 (Red Hat 9.2.1-1)
REM options -cpp -mtune=generic -march=x86-64 -g -O0 -fpre-include=/usr/include/finclude/math-vector-fortran.h
REM seed 1156870882 -394514667 555546398 1276583829 1051845830 926073633 1812381284 96314616 1358239805 -2018556771 21048535 1016281405 -2075162603 -1371125012 745562048 1304914862 1339161823 -701570158 -1515972535 -467546477 -832693144 1806311332 -78809212 1078424117 -201438489 1414916954 -2145948135 682710273 -1340718637 800483370 923879807 -323312300 -764254459
REM
CELL 1.54180   50.00000   50.00000   50.00000   90.00000   90.00000   90.00000
LATT -1
SFAC C  
C      1  0.5727160000000  0.4642570000000  0.5292680000000 1.0
C      1  0.4777780000000  0.5408450000000  0.4826750000000 1.0
C      1  0.4952760000000  0.5180990000000  0.4847150000000 1.0
C      1  0.4823720000000  0.4530850000000  0.5304170000000 1.0
C      1  0.5522360000000  0.5303280000000  0.5187710000000 1.0
C      1  0.4841850000000  0.4926220000000  0.4983600000000 1.0
C      1  0.5311800000000  0.5474850000000  0.5156680000000 1.0
C      1  0.5091430000000  0.5652760000000  0.5124260000000 1.0
C      1  0.4377720000000  0.5138230000000  0.4824080000000 1.0
C      1  0.5336870000000  0.4372830000000  0.5062460000000 1.0
C      1  0.4605660000000  0.5267040000000  0.5479380000000 1.0
C      1  0.5333510000000  0.5024240000000  0.5571030000000 1.0
C      1  0.4849930000000  0.4766780000000  0.5477020000000 1.0
C      1  0.4396860000000  0.5352370000000  0.5300660000000 1.0
C      1  0.5581800000000  0.5053470000000  0.5038840000000 1.0
C      1  0.4783720000000  0.5419020000000  0.4515140000000 1.0
C      1  0.5732470000000  0.4945140000000  0.5266040000000 1.0
C      1  0.4640990000000  0.5508230000000  0.5303670000000 1.0
C      1  0.5271540000000  0.4745640000000  0.4664490000000 1.0
C      1  0.5120270000000  0.4881970000000  0.5407760000000 1.0
C      1  0.4847790000000  0.4431300000000  0.5026540000000 1.0
C      1  0.4570800000000  0.4963720000000  0.5153040000000 1.0
C      1  0.4642010000000  0.4978850000000  0.5429630000000 1.0
C      1  0.4851280000000  0.4907050000000  0.4413220000000 1.0
C      1  0.5572730000000  0.5137520000000  0.5446080000000 1.0
C      1  0.5062350000000  0.5426640000000  0.4467350000000 1.0
C      1  0.5506390000000  0.4580350000000  0.5100570000000 1.0
C      1  0.4735220000000  0.4661080000000  0.4550100000000 1.0
C      1  0.5369700000000  0.4846710000000  0.4959980000000 1.0
C      1  0.5116830000000  0.4900830000000  0.5119260000000 1.0
C      1  0.4769690000000  0.4646970000000  0.4840950000000 1.0
C      1  0.4684330000000  0.5152710000000  0.4407260000000 1.0
C      1  0.5194010000000  0.4463580000000  0.4668140000000 1.0
C      1  0.5131380000000  0.4930980000000  0.4490960000000 1.0
C      1  0.4341710000000  0.5133250000000  0.5099520000000 1.0
C      1  0.4474730000000  0.5154790000000  0.4587570000000 1.0
C      1  0.4797370000000  0.5574900000000  0.5065900000000 1.0
C      1  0.5103310000000  0.4312760000000  0.4921740000000 1.0
C      1  0.5148160000000  0.5201070000000  0.4618600000000 1.0
END
