TITL C-883732-77-238 3.14690001975603 125000 -27787.0579686638 0 0 190 (C1) n - 1
REM
REM in /home/nfs/bkarasulu/CARBON/AIRSS/Generating-Clusters/ReaxFF-fromJPCA2015/Units_Real/with-SteepDescent/Only-C1/SD-CG/Try1-3A/FIRE-CG
REM
REM
REM
REM
REM
REM ./C.cell (11c1c37f851c82e70ff6c80c92926a4b)
REM
REM compiler GCC version 9.2.1 20190827 (Red Hat 9.2.1-1)
REM options -cpp -mtune=generic -march=x86-64 -g -O0 -fpre-include=/usr/include/finclude/math-vector-fortran.h
REM seed -285605590 1921383378 -263881177 2080226336 -1489563231 -1276005441 -99096436 -1753690786 -1538324140 526585159 1747574422 -46580321 1654726141 -1732911107 1051484653 -1871871685 1935665963 -713326169 -1672644806 -208955841 21166478 186895831 -761564182 -614203838 -211412620 639962153 989263208 71585715 1923541144 -1844686778 -2124119340 -1539485604 -532409754
REM
CELL 1.54180   50.00000   50.00000   50.00000   90.00000   90.00000   90.00000
LATT -1
SFAC C  
C      1  0.4144440000000  0.5016270000000  0.4343830000000 1.0
C      1  0.5470660000000  0.5426610000000  0.5966930000000 1.0
C      1  0.5751960000000  0.5691570000000  0.5357880000000 1.0
C      1  0.4506700000000  0.6001570000000  0.4200520000000 1.0
C      1  0.6072180000000  0.5085160000000  0.5032760000000 1.0
C      1  0.5092940000000  0.3928040000000  0.5044670000000 1.0
C      1  0.6047600000000  0.5042110000000  0.5541940000000 1.0
C      1  0.4043300000000  0.4778250000000  0.4824120000000 1.0
C      1  0.4290880000000  0.5682680000000  0.4512660000000 1.0
C      1  0.5757000000000  0.4630140000000  0.5663350000000 1.0
C      1  0.3865330000000  0.4902320000000  0.5328930000000 1.0
C      1  0.4648090000000  0.5634790000000  0.5499610000000 1.0
C      1  0.4362660000000  0.5818000000000  0.4743880000000 1.0
C      1  0.4995200000000  0.6121230000000  0.4729500000000 1.0
C      1  0.4210170000000  0.4880390000000  0.4599730000000 1.0
C      1  0.4031960000000  0.5287910000000  0.4315920000000 1.0
C      1  0.5248770000000  0.4438200000000  0.5288230000000 1.0
C      1  0.4138450000000  0.4361230000000  0.5355750000000 1.0
C      1  0.5110670000000  0.5226740000000  0.6190840000000 1.0
C      1  0.5858290000000  0.5522920000000  0.4516240000000 1.0
C      1  0.5409040000000  0.4540600000000  0.4100310000000 1.0
C      1  0.4888890000000  0.4758250000000  0.5257160000000 1.0
C      1  0.4829510000000  0.3886100000000  0.5150100000000 1.0
C      1  0.4269900000000  0.4190910000000  0.4568110000000 1.0
C      1  0.5257390000000  0.4545450000000  0.4613470000000 1.0
C      1  0.5109750000000  0.4936710000000  0.6202940000000 1.0
C      1  0.5326820000000  0.5042430000000  0.5817070000000 1.0
C      1  0.4544600000000  0.5605300000000  0.5166190000000 1.0
C      1  0.3902600000000  0.4933200000000  0.5031760000000 1.0
C      1  0.5274110000000  0.5941690000000  0.4265290000000 1.0
C      1  0.6058840000000  0.5291100000000  0.4824480000000 1.0
C      1  0.5145170000000  0.5800640000000  0.5874430000000 1.0
C      1  0.4491740000000  0.5203930000000  0.4205300000000 1.0
C      1  0.5452290000000  0.4974560000000  0.4516110000000 1.0
C      1  0.5364190000000  0.4001640000000  0.5095180000000 1.0
C      1  0.4769650000000  0.4638350000000  0.3839550000000 1.0
C      1  0.4768860000000  0.5441180000000  0.5095450000000 1.0
C      1  0.4737790000000  0.5561100000000  0.4654160000000 1.0
C      1  0.4842500000000  0.5296530000000  0.5814710000000 1.0
C      1  0.4701190000000  0.4508290000000  0.4743640000000 1.0
C      1  0.5998440000000  0.5256490000000  0.4537630000000 1.0
C      1  0.5604260000000  0.5520900000000  0.4374020000000 1.0
C      1  0.5050120000000  0.4573210000000  0.5139230000000 1.0
C      1  0.5708490000000  0.4168370000000  0.5465410000000 1.0
C      1  0.4558060000000  0.4517630000000  0.5304010000000 1.0
C      1  0.4347620000000  0.4530490000000  0.5825670000000 1.0
C      1  0.5299120000000  0.5926270000000  0.4936990000000 1.0
C      1  0.4691400000000  0.4225180000000  0.4225750000000 1.0
C      1  0.5966350000000  0.4466290000000  0.4945390000000 1.0
C      1  0.5017360000000  0.5924360000000  0.4114900000000 1.0
C      1  0.4595250000000  0.5408060000000  0.5693650000000 1.0
C      1  0.5924820000000  0.4220040000000  0.5271860000000 1.0
C      1  0.4194600000000  0.4257350000000  0.4878690000000 1.0
C      1  0.4868290000000  0.4783240000000  0.6140050000000 1.0
C      1  0.4957750000000  0.5678300000000  0.5516360000000 1.0
C      1  0.4988320000000  0.4309880000000  0.5236800000000 1.0
C      1  0.3964740000000  0.4759950000000  0.5554660000000 1.0
C      1  0.4628450000000  0.4951570000000  0.6100300000000 1.0
C      1  0.6181120000000  0.4975470000000  0.5284120000000 1.0
C      1  0.4775980000000  0.5947680000000  0.4793310000000 1.0
C      1  0.6077860000000  0.4465290000000  0.5210910000000 1.0
C      1  0.4445940000000  0.5184310000000  0.5615430000000 1.0
C      1  0.3904930000000  0.5169850000000  0.4888720000000 1.0
C      1  0.5571310000000  0.5765990000000  0.5588680000000 1.0
C      1  0.4634030000000  0.6026730000000  0.5269250000000 1.0
C      1  0.5430250000000  0.5691180000000  0.4208160000000 1.0
C      1  0.5245870000000  0.5548390000000  0.4016860000000 1.0
C      1  0.4050540000000  0.5493520000000  0.4519430000000 1.0
C      1  0.5840780000000  0.5247340000000  0.5569310000000 1.0
C      1  0.5084350000000  0.5318950000000  0.4852970000000 1.0
C      1  0.4213650000000  0.5834930000000  0.5557510000000 1.0
C      1  0.5013510000000  0.5178900000000  0.4273310000000 1.0
C      1  0.5791320000000  0.4649180000000  0.4253380000000 1.0
C      1  0.4165630000000  0.4535250000000  0.4943780000000 1.0
C      1  0.5947630000000  0.5031910000000  0.4357090000000 1.0
C      1  0.4310040000000  0.5472250000000  0.5069890000000 1.0
C      1  0.4841880000000  0.5174030000000  0.5188090000000 1.0
C      1  0.5223480000000  0.6061490000000  0.4529630000000 1.0
C      1  0.4005230000000  0.5372710000000  0.5761140000000 1.0
C      1  0.4205770000000  0.4149570000000  0.5149630000000 1.0
C      1  0.5723970000000  0.5731180000000  0.5074590000000 1.0
C      1  0.4128380000000  0.4518390000000  0.5607390000000 1.0
C      1  0.4488420000000  0.4891190000000  0.4648180000000 1.0
C      1  0.4742510000000  0.4630280000000  0.4481710000000 1.0
C      1  0.5690860000000  0.5255860000000  0.5073320000000 1.0
C      1  0.5460030000000  0.4034130000000  0.5382220000000 1.0
C      1  0.5158550000000  0.4324610000000  0.4800010000000 1.0
C      1  0.5479940000000  0.4819550000000  0.4025230000000 1.0
C      1  0.4988370000000  0.4212730000000  0.4268950000000 1.0
C      1  0.4117160000000  0.5446500000000  0.5263240000000 1.0
C      1  0.5613700000000  0.4405310000000  0.4287310000000 1.0
C      1  0.5830700000000  0.4219880000000  0.4999670000000 1.0
C      1  0.5134810000000  0.4444820000000  0.4143450000000 1.0
C      1  0.5456190000000  0.4373750000000  0.4486360000000 1.0
C      1  0.5198070000000  0.5370430000000  0.4429560000000 1.0
C      1  0.4238620000000  0.5196030000000  0.4144350000000 1.0
C      1  0.4640090000000  0.4770190000000  0.4856470000000 1.0
C      1  0.5089930000000  0.6114670000000  0.5014000000000 1.0
C      1  0.4606710000000  0.3894980000000  0.5412610000000 1.0
C      1  0.5285560000000  0.5249700000000  0.5042760000000 1.0
C      1  0.4561070000000  0.4472140000000  0.4249580000000 1.0
C      1  0.5797020000000  0.4723670000000  0.4843310000000 1.0
C      1  0.4620440000000  0.4975930000000  0.5547320000000 1.0
C      1  0.4961680000000  0.4672420000000  0.4065360000000 1.0
C      1  0.4214260000000  0.5192720000000  0.5441300000000 1.0
C      1  0.4863360000000  0.3983000000000  0.4705810000000 1.0
C      1  0.4861600000000  0.4851620000000  0.3627670000000 1.0
C      1  0.4709520000000  0.4306550000000  0.5210490000000 1.0
C      1  0.4981450000000  0.4591550000000  0.5671320000000 1.0
C      1  0.5134470000000  0.5469290000000  0.5412310000000 1.0
C      1  0.4875450000000  0.4281100000000  0.4815340000000 1.0
C      1  0.6048140000000  0.4757010000000  0.4371590000000 1.0
C      1  0.5050580000000  0.5020760000000  0.3768070000000 1.0
C      1  0.6160380000000  0.4688060000000  0.5356090000000 1.0
C      1  0.4487160000000  0.4052950000000  0.4376790000000 1.0
C      1  0.4861180000000  0.5032860000000  0.5694040000000 1.0
C      1  0.4960430000000  0.5656960000000  0.4025950000000 1.0
C      1  0.5665250000000  0.5280060000000  0.5802940000000 1.0
C      1  0.6018470000000  0.4753100000000  0.5602670000000 1.0
C      1  0.4917140000000  0.5570820000000  0.4886690000000 1.0
C      1  0.4108580000000  0.5710390000000  0.5325920000000 1.0
C      1  0.4282070000000  0.4576410000000  0.5220870000000 1.0
C      1  0.5487850000000  0.4766180000000  0.4713020000000 1.0
C      1  0.5372060000000  0.5031780000000  0.3842410000000 1.0
C      1  0.5315800000000  0.4832000000000  0.6022550000000 1.0
C      1  0.4548860000000  0.4083300000000  0.5603490000000 1.0
C      1  0.4870530000000  0.5725490000000  0.4458500000000 1.0
C      1  0.4484480000000  0.5153280000000  0.4728040000000 1.0
C      1  0.4721540000000  0.4690370000000  0.5489400000000 1.0
C      1  0.5466920000000  0.5293170000000  0.4547160000000 1.0
C      1  0.5645410000000  0.4913000000000  0.4266390000000 1.0
C      1  0.5140070000000  0.5632320000000  0.4511170000000 1.0
C      1  0.4972380000000  0.4566800000000  0.5956290000000 1.0
C      1  0.5063430000000  0.4031550000000  0.4484640000000 1.0
C      1  0.5357910000000  0.4979390000000  0.5127040000000 1.0
C      1  0.3954570000000  0.5339470000000  0.4733690000000 1.0
C      1  0.5437340000000  0.4471150000000  0.5059740000000 1.0
C      1  0.5226580000000  0.5281040000000  0.5937740000000 1.0
C      1  0.4255870000000  0.4402100000000  0.4382250000000 1.0
C      1  0.5236690000000  0.4654210000000  0.5538620000000 1.0
C      1  0.4789240000000  0.4925420000000  0.5054110000000 1.0
C      1  0.5010860000000  0.5645530000000  0.6051290000000 1.0
C      1  0.4608760000000  0.3963880000000  0.4597750000000 1.0
C      1  0.5318750000000  0.4114490000000  0.5636850000000 1.0
C      1  0.5316450000000  0.5831350000000  0.4664970000000 1.0
C      1  0.5027820000000  0.4679890000000  0.4483300000000 1.0
C      1  0.4392310000000  0.5064380000000  0.5241500000000 1.0
C      1  0.5060200000000  0.5950500000000  0.5490130000000 1.0
C      1  0.5267850000000  0.4058420000000  0.4704720000000 1.0
C      1  0.5265710000000  0.4543870000000  0.5981440000000 1.0
C      1  0.5579190000000  0.4927010000000  0.5308130000000 1.0
C      1  0.5679600000000  0.4346820000000  0.5701780000000 1.0
C      1  0.5856920000000  0.5541790000000  0.4827590000000 1.0
C      1  0.5436590000000  0.5728060000000  0.5086690000000 1.0
C      1  0.5531000000000  0.4747530000000  0.5524980000000 1.0
C      1  0.4920750000000  0.6076450000000  0.5258670000000 1.0
C      1  0.5026980000000  0.4966080000000  0.4060990000000 1.0
C      1  0.6001620000000  0.4737240000000  0.4648490000000 1.0
C      1  0.4555840000000  0.5891350000000  0.4981390000000 1.0
C      1  0.4462090000000  0.4291090000000  0.5733140000000 1.0
C      1  0.4697570000000  0.5550610000000  0.4111800000000 1.0
C      1  0.4709790000000  0.5288480000000  0.4195890000000 1.0
C      1  0.5133660000000  0.4990220000000  0.5586840000000 1.0
C      1  0.5361860000000  0.4733480000000  0.4956840000000 1.0
C      1  0.4798430000000  0.5967780000000  0.4306670000000 1.0
C      1  0.5058620000000  0.5193200000000  0.5375760000000 1.0
C      1  0.5323860000000  0.5294560000000  0.3927910000000 1.0
C      1  0.4099040000000  0.5609170000000  0.5714060000000 1.0
C      1  0.5792870000000  0.4970790000000  0.5083690000000 1.0
C      1  0.4891160000000  0.5422340000000  0.6204160000000 1.0
C      1  0.4735560000000  0.5268870000000  0.4648660000000 1.0
C      1  0.5607050000000  0.5377870000000  0.4828080000000 1.0
C      1  0.5316100000000  0.5488680000000  0.5202120000000 1.0
C      1  0.4380770000000  0.5202940000000  0.5000050000000 1.0
C      1  0.5644460000000  0.5583530000000  0.5799120000000 1.0
C      1  0.5562310000000  0.4218890000000  0.4935760000000 1.0
C      1  0.4422230000000  0.3947200000000  0.5193210000000 1.0
C      1  0.4468390000000  0.5714610000000  0.4242830000000 1.0
C      1  0.5535760000000  0.4171400000000  0.4619700000000 1.0
C      1  0.4581680000000  0.4543520000000  0.4001960000000 1.0
C      1  0.5122510000000  0.4953280000000  0.4493130000000 1.0
C      1  0.4689870000000  0.5256580000000  0.6063330000000 1.0
C      1  0.3970340000000  0.5042900000000  0.5545120000000 1.0
C      1  0.5788480000000  0.5399270000000  0.5321030000000 1.0
C      1  0.4629910000000  0.4074190000000  0.5054720000000 1.0
C      1  0.5306750000000  0.5894060000000  0.5648960000000 1.0
C      1  0.4504600000000  0.5900000000000  0.5494150000000 1.0
C      1  0.4485070000000  0.4748910000000  0.5965250000000 1.0
C      1  0.5413660000000  0.4329090000000  0.5825850000000 1.0
C      1  0.4971970000000  0.5115630000000  0.4695890000000 1.0
END
