TITL C-884133-6611-408 1.08363268893468 125000 -11661.8958893636 0 0 79 (C1) n - 1
REM
REM in /home/nfs/bkarasulu/CARBON/AIRSS/Generating-Clusters/ReaxFF-fromJPCA2015/Units_Real/with-SteepDescent/Only-C1/SD-CG/Try1-3A/FIRE-CG
REM
REM
REM
REM
REM
REM ./C.cell (11c1c37f851c82e70ff6c80c92926a4b)
REM
REM compiler GCC version 9.2.1 20190827 (Red Hat 9.2.1-1)
REM options -cpp -mtune=generic -march=x86-64 -g -O0 -fpre-include=/usr/include/finclude/math-vector-fortran.h
REM seed -1894700499 736539765 1301704673 -1924637469 2072258032 -2063821167 958835460 413890515 1349750179 184731464 1057456517 1776053951 -1146343810 -1664163235 -858941114 -1983305341 2028988793 -206534159 -1997328262 572283284 1941950489 -1608730433 -73370198 231187673 -1178710865 -1774505882 651325597 -1891817958 42801146 -23768325 1656420603 -360224236 748177495
REM
CELL 1.54180   50.00000   50.00000   50.00000   90.00000   90.00000   90.00000
LATT -1
SFAC C  
C      1  0.5413070000000  0.4303980000000  0.5283520000000 1.0
C      1  0.4575840000000  0.5106700000000  0.5476580000000 1.0
C      1  0.4820520000000  0.4914150000000  0.4169710000000 1.0
C      1  0.5380460000000  0.4970400000000  0.5572300000000 1.0
C      1  0.4601940000000  0.4538840000000  0.4835330000000 1.0
C      1  0.5265370000000  0.4687540000000  0.5501900000000 1.0
C      1  0.5815360000000  0.5217520000000  0.4994180000000 1.0
C      1  0.5032430000000  0.5583050000000  0.5268690000000 1.0
C      1  0.5015100000000  0.5379380000000  0.5674040000000 1.0
C      1  0.5268320000000  0.4483540000000  0.4753130000000 1.0
C      1  0.5538240000000  0.4459310000000  0.4660020000000 1.0
C      1  0.5206570000000  0.5178700000000  0.5630360000000 1.0
C      1  0.4634130000000  0.4519380000000  0.5348950000000 1.0
C      1  0.5023160000000  0.4546010000000  0.5651220000000 1.0
C      1  0.4916950000000  0.4138960000000  0.4764790000000 1.0
C      1  0.4608120000000  0.5624710000000  0.5097000000000 1.0
C      1  0.4719750000000  0.5555250000000  0.4814230000000 1.0
C      1  0.4809380000000  0.5094130000000  0.4624720000000 1.0
C      1  0.5473570000000  0.5584320000000  0.4800200000000 1.0
C      1  0.4600500000000  0.5094560000000  0.4265880000000 1.0
C      1  0.5355580000000  0.5269630000000  0.4462890000000 1.0
C      1  0.4911330000000  0.4875550000000  0.4721830000000 1.0
C      1  0.4941390000000  0.5297000000000  0.5199930000000 1.0
C      1  0.5517720000000  0.5699950000000  0.5276640000000 1.0
C      1  0.5521170000000  0.4514900000000  0.5415810000000 1.0
C      1  0.4294320000000  0.4920620000000  0.4589320000000 1.0
C      1  0.4504190000000  0.5467370000000  0.4613520000000 1.0
C      1  0.4306510000000  0.4830230000000  0.5606780000000 1.0
C      1  0.5196870000000  0.5069790000000  0.4309350000000 1.0
C      1  0.5753320000000  0.4939390000000  0.4614580000000 1.0
C      1  0.5180330000000  0.5216630000000  0.4871150000000 1.0
C      1  0.4799840000000  0.4400880000000  0.4627090000000 1.0
C      1  0.5060840000000  0.4795080000000  0.4299730000000 1.0
C      1  0.4770070000000  0.5543690000000  0.5588990000000 1.0
C      1  0.4580390000000  0.4940060000000  0.4514280000000 1.0
C      1  0.5704920000000  0.4714450000000  0.5300410000000 1.0
C      1  0.5498930000000  0.5407810000000  0.5266780000000 1.0
C      1  0.5854540000000  0.4950290000000  0.4886090000000 1.0
C      1  0.5813980000000  0.4700570000000  0.5031170000000 1.0
C      1  0.5266340000000  0.4710360000000  0.4970950000000 1.0
C      1  0.5716330000000  0.5214260000000  0.5273170000000 1.0
C      1  0.5709660000000  0.4656240000000  0.4562030000000 1.0
C      1  0.4239590000000  0.5360120000000  0.4681320000000 1.0
C      1  0.5628480000000  0.4973580000000  0.5412060000000 1.0
C      1  0.5176840000000  0.4934430000000  0.4813260000000 1.0
C      1  0.5242380000000  0.5785360000000  0.5214600000000 1.0
C      1  0.4969620000000  0.5614710000000  0.4611520000000 1.0
C      1  0.4413100000000  0.5478600000000  0.5262000000000 1.0
C      1  0.4866610000000  0.4349220000000  0.5486430000000 1.0
C      1  0.4179420000000  0.5199330000000  0.4931680000000 1.0
C      1  0.4217920000000  0.4909330000000  0.4877620000000 1.0
C      1  0.4436890000000  0.4574570000000  0.5573120000000 1.0
C      1  0.5239320000000  0.5519050000000  0.4584180000000 1.0
C      1  0.4963730000000  0.5218260000000  0.4395600000000 1.0
C      1  0.4759510000000  0.4755460000000  0.4925740000000 1.0
C      1  0.4603590000000  0.5387990000000  0.4351440000000 1.0
C      1  0.5247870000000  0.4124050000000  0.5153480000000 1.0
C      1  0.4889540000000  0.5293810000000  0.4906910000000 1.0
C      1  0.5168880000000  0.4215300000000  0.4875720000000 1.0
C      1  0.4880260000000  0.5502420000000  0.4358670000000 1.0
C      1  0.4804360000000  0.4671860000000  0.5756340000000 1.0
C      1  0.5710190000000  0.5376080000000  0.4772550000000 1.0
C      1  0.5761160000000  0.4515010000000  0.4811140000000 1.0
C      1  0.4771010000000  0.5701380000000  0.5326250000000 1.0
C      1  0.5629180000000  0.5200410000000  0.4558280000000 1.0
C      1  0.4466590000000  0.4512270000000  0.5092680000000 1.0
C      1  0.5367410000000  0.5387000000000  0.5005720000000 1.0
C      1  0.4247280000000  0.5247390000000  0.5199230000000 1.0
C      1  0.5046360000000  0.4558410000000  0.4504150000000 1.0
C      1  0.4311590000000  0.4972380000000  0.5337290000000 1.0
C      1  0.4814470000000  0.5066960000000  0.5327720000000 1.0
C      1  0.4841140000000  0.4772420000000  0.5219950000000 1.0
C      1  0.4140510000000  0.5156940000000  0.4481080000000 1.0
C      1  0.5014370000000  0.4139900000000  0.5347690000000 1.0
C      1  0.4533510000000  0.5391390000000  0.5524670000000 1.0
C      1  0.4538600000000  0.4747750000000  0.5790730000000 1.0
C      1  0.4316360000000  0.4762870000000  0.5101120000000 1.0
C      1  0.5134010000000  0.4708400000000  0.5223910000000 1.0
C      1  0.5450980000000  0.5800390000000  0.5014870000000 1.0
END
