TITL C-883727-9645-129 0.9416195633956 125000 -3303.47998953814 0 0 24 (C1) n - 1
REM
REM in /home/nfs/bkarasulu/CARBON/AIRSS/Generating-Clusters/ReaxFF-fromJPCA2015/Units_Real/with-SteepDescent/Only-C1/SD-CG/Try1-3A/FIRE-CG
REM
REM
REM
REM
REM
REM ./C.cell (11c1c37f851c82e70ff6c80c92926a4b)
REM
REM compiler GCC version 9.2.1 20190827 (Red Hat 9.2.1-1)
REM options -cpp -mtune=generic -march=x86-64 -g -O0 -fpre-include=/usr/include/finclude/math-vector-fortran.h
REM seed 1984629556 -807493102 1620321180 1417140611 1557910666 -245571574 -1818188578 -2116431773 -638562864 585140862 1229740003 -998932635 -1331004713 852612129 -2096391680 -976988956 1956856328 -425763221 160674773 -701356237 1642652060 -1710842931 1904632832 -894336852 -1226395614 2081853180 1860635888 788283536 -1285124568 958466915 1968361053 1817507039 -2107919104
REM
CELL 1.54180   50.00000   50.00000   50.00000   90.00000   90.00000   90.00000
LATT -1
SFAC C  
C      1  0.4991280000000  0.5228590000000  0.5011960000000 1.0
C      1  0.4866500000000  0.4329480000000  0.5062980000000 1.0
C      1  0.5212010000000  0.5198160000000  0.4831130000000 1.0
C      1  0.4569530000000  0.4775930000000  0.5254130000000 1.0
C      1  0.5022730000000  0.5188580000000  0.4356820000000 1.0
C      1  0.5254710000000  0.5356150000000  0.5387620000000 1.0
C      1  0.4691230000000  0.4568540000000  0.5038780000000 1.0
C      1  0.5188860000000  0.4750540000000  0.4574320000000 1.0
C      1  0.5155050000000  0.5070700000000  0.4546760000000 1.0
C      1  0.4888320000000  0.5656700000000  0.5182960000000 1.0
C      1  0.4509730000000  0.5304490000000  0.5064460000000 1.0
C      1  0.5396280000000  0.4773980000000  0.4746950000000 1.0
C      1  0.5129100000000  0.5624170000000  0.5361990000000 1.0
C      1  0.4530640000000  0.5032260000000  0.5159610000000 1.0
C      1  0.4786510000000  0.5436010000000  0.5015830000000 1.0
C      1  0.5460820000000  0.5141050000000  0.4966330000000 1.0
C      1  0.5495450000000  0.5285650000000  0.5223970000000 1.0
C      1  0.5606610000000  0.4853240000000  0.4916200000000 1.0
C      1  0.4713550000000  0.4821130000000  0.5494900000000 1.0
C      1  0.5055080000000  0.5152520000000  0.5297720000000 1.0
C      1  0.4967460000000  0.4562770000000  0.4577170000000 1.0
C      1  0.4889200000000  0.4980310000000  0.5432420000000 1.0
C      1  0.4721720000000  0.4571860000000  0.4743340000000 1.0
C      1  0.4897660000000  0.4337200000000  0.4751640000000 1.0
END
