TITL C-884127-5181-224 0.803305258426612 125000 -3695.09481590137 0 0 26 (C1) n - 1
REM
REM in /home/nfs/bkarasulu/CARBON/AIRSS/Generating-Clusters/ReaxFF-fromJPCA2015/Units_Real/with-SteepDescent/Only-C1/SD-CG/Try1-3A/FIRE-CG
REM
REM
REM
REM
REM
REM ./C.cell (11c1c37f851c82e70ff6c80c92926a4b)
REM
REM compiler GCC version 9.2.1 20190827 (Red Hat 9.2.1-1)
REM options -cpp -mtune=generic -march=x86-64 -g -O0 -fpre-include=/usr/include/finclude/math-vector-fortran.h
REM seed -2095138958 -1117353174 -1642207648 1575037628 -2033398291 -1211358082 -1844926497 -1613543271 -912145958 -1089538473 967817944 -1465959670 553406983 1590224573 394186067 304325711 446015718 217502346 1115773345 -183167007 1035343516 -374960655 -1938573382 214792066 132876322 382150556 -57080073 929892765 -1911632733 -1916992014 -899191138 1285613541 2139985044
REM
CELL 1.54180   50.00000   50.00000   50.00000   90.00000   90.00000   90.00000
LATT -1
SFAC C  
C      1  0.4882710000000  0.5140950000000  0.5014780000000 1.0
C      1  0.4543370000000  0.5139660000000  0.5364370000000 1.0
C      1  0.5481880000000  0.4868010000000  0.5029780000000 1.0
C      1  0.5158090000000  0.5121330000000  0.4541990000000 1.0
C      1  0.4421140000000  0.5149370000000  0.4852600000000 1.0
C      1  0.4736310000000  0.4959650000000  0.5500180000000 1.0
C      1  0.4900060000000  0.4483340000000  0.4728950000000 1.0
C      1  0.5468680000000  0.4799710000000  0.5309280000000 1.0
C      1  0.4639930000000  0.5160610000000  0.4675170000000 1.0
C      1  0.4260340000000  0.4889940000000  0.4865900000000 1.0
C      1  0.5394680000000  0.5062870000000  0.5386920000000 1.0
C      1  0.5100380000000  0.4653830000000  0.4622560000000 1.0
C      1  0.5275800000000  0.4847710000000  0.4547710000000 1.0
C      1  0.5489090000000  0.5501060000000  0.5149070000000 1.0
C      1  0.5480200000000  0.4952850000000  0.4762560000000 1.0
C      1  0.5300150000000  0.5326470000000  0.5333600000000 1.0
C      1  0.4935420000000  0.4760590000000  0.5387610000000 1.0
C      1  0.5214480000000  0.4697130000000  0.5459630000000 1.0
C      1  0.4729590000000  0.4630670000000  0.4951910000000 1.0
C      1  0.4867020000000  0.4829520000000  0.5110120000000 1.0
C      1  0.4437230000000  0.4656070000000  0.4911130000000 1.0
C      1  0.5310230000000  0.5425410000000  0.4918900000000 1.0
C      1  0.4900130000000  0.5160870000000  0.4688150000000 1.0
C      1  0.5105950000000  0.5331400000000  0.5108960000000 1.0
C      1  0.4589820000000  0.5223870000000  0.5080040000000 1.0
C      1  0.5377310000000  0.5227110000000  0.4698150000000 1.0
END
