TITL C-884128-4793-440 0.307954958477722 125000 -8520.32507060381 0 0 58 (C1) n - 1
REM
REM in /home/nfs/bkarasulu/CARBON/AIRSS/Generating-Clusters/ReaxFF-fromJPCA2015/Units_Real/with-SteepDescent/Only-C1/SD-CG/Try1-3A/FIRE-CG
REM
REM
REM
REM
REM
REM ./C.cell (11c1c37f851c82e70ff6c80c92926a4b)
REM
REM compiler GCC version 9.2.1 20190827 (Red Hat 9.2.1-1)
REM options -cpp -mtune=generic -march=x86-64 -g -O0 -fpre-include=/usr/include/finclude/math-vector-fortran.h
REM seed 281836894 -977335558 -1274654361 1612045425 -1044951245 -1864728189 -2042584512 1912862185 -1631334395 1664248647 371146302 -880897637 -41029657 795733904 -964805409 1079184175 739868862 -847884011 504767646 -1803614003 -1032449884 767804602 -1788396168 976886345 -1968499181 -646582006 1467052390 -1389785512 448407644 1214226211 1208150682 -827238936 -2014503056
REM
CELL 1.54180   50.00000   50.00000   50.00000   90.00000   90.00000   90.00000
LATT -1
SFAC C  
C      1  0.5106180000000  0.4604390000000  0.5227010000000 1.0
C      1  0.5045520000000  0.4475970000000  0.4519830000000 1.0
C      1  0.4335580000000  0.5012220000000  0.4762080000000 1.0
C      1  0.4714290000000  0.5151340000000  0.4651770000000 1.0
C      1  0.4788450000000  0.4466420000000  0.4646250000000 1.0
C      1  0.5407330000000  0.5557980000000  0.5253640000000 1.0
C      1  0.5154040000000  0.5235700000000  0.4916970000000 1.0
C      1  0.4923960000000  0.5404060000000  0.5540760000000 1.0
C      1  0.4457950000000  0.4752110000000  0.5401260000000 1.0
C      1  0.4747400000000  0.4830250000000  0.5847660000000 1.0
C      1  0.4922510000000  0.5055850000000  0.4892640000000 1.0
C      1  0.5550600000000  0.5240160000000  0.4658930000000 1.0
C      1  0.5219800000000  0.4712200000000  0.4941840000000 1.0
C      1  0.4967030000000  0.4840660000000  0.5368680000000 1.0
C      1  0.4455170000000  0.5207340000000  0.5117310000000 1.0
C      1  0.5404090000000  0.5195980000000  0.4239910000000 1.0
C      1  0.4565430000000  0.5073810000000  0.5354150000000 1.0
C      1  0.5191930000000  0.5039980000000  0.5784080000000 1.0
C      1  0.5312920000000  0.4780720000000  0.5701680000000 1.0
C      1  0.5378770000000  0.5468920000000  0.4620750000000 1.0
C      1  0.4825460000000  0.4699740000000  0.5599520000000 1.0
C      1  0.4409520000000  0.4533000000000  0.4925840000000 1.0
C      1  0.4379590000000  0.5289170000000  0.4858070000000 1.0
C      1  0.4554710000000  0.4644570000000  0.4220020000000 1.0
C      1  0.4542080000000  0.4588310000000  0.4524800000000 1.0
C      1  0.4626400000000  0.5421880000000  0.4690340000000 1.0
C      1  0.5655880000000  0.5245010000000  0.5394480000000 1.0
C      1  0.5424370000000  0.5405350000000  0.5508090000000 1.0
C      1  0.5070780000000  0.4863400000000  0.4754290000000 1.0
C      1  0.5559740000000  0.4717350000000  0.5537980000000 1.0
C      1  0.5271190000000  0.5435200000000  0.4356710000000 1.0
C      1  0.4977480000000  0.5437560000000  0.4401030000000 1.0
C      1  0.5250680000000  0.4944670000000  0.4209160000000 1.0
C      1  0.5328190000000  0.4539380000000  0.4477110000000 1.0
C      1  0.5185840000000  0.5287600000000  0.5626790000000 1.0
C      1  0.4358730000000  0.4648870000000  0.5172100000000 1.0
C      1  0.5294140000000  0.4597480000000  0.5479530000000 1.0
C      1  0.5585070000000  0.5359050000000  0.5126500000000 1.0
C      1  0.5157540000000  0.5638780000000  0.5120840000000 1.0
C      1  0.5130810000000  0.5521330000000  0.4822450000000 1.0
C      1  0.4817250000000  0.4997560000000  0.5193560000000 1.0
C      1  0.5017740000000  0.4908000000000  0.4413620000000 1.0
C      1  0.5362460000000  0.4568940000000  0.4756800000000 1.0
C      1  0.5582910000000  0.5051330000000  0.4428200000000 1.0
C      1  0.4864260000000  0.5168010000000  0.4405020000000 1.0
C      1  0.4699290000000  0.4443550000000  0.4934830000000 1.0
C      1  0.5700460000000  0.4955320000000  0.5439120000000 1.0
C      1  0.4838060000000  0.4718820000000  0.4243060000000 1.0
C      1  0.4660000000000  0.4531810000000  0.5421810000000 1.0
C      1  0.4682750000000  0.5257960000000  0.5597000000000 1.0
C      1  0.5445450000000  0.5187300000000  0.4929340000000 1.0
C      1  0.5454410000000  0.4793090000000  0.4344810000000 1.0
C      1  0.4829660000000  0.4464290000000  0.5186180000000 1.0
C      1  0.4351140000000  0.4733080000000  0.4702460000000 1.0
C      1  0.4941370000000  0.5602640000000  0.5308420000000 1.0
C      1  0.4874510000000  0.5558640000000  0.4647480000000 1.0
C      1  0.4949960000000  0.5013110000000  0.5946290000000 1.0
C      1  0.4691140000000  0.5122800000000  0.5849150000000 1.0
END
