TITL C-883726-8501-367 1.89083673866888 125000 -6703.99640036987 0 0 47 (C1) n - 1
REM
REM in /home/nfs/bkarasulu/CARBON/AIRSS/Generating-Clusters/ReaxFF-fromJPCA2015/Units_Real/with-SteepDescent/Only-C1/SD-CG/Try1-3A/FIRE-CG
REM
REM
REM
REM
REM
REM ./C.cell (11c1c37f851c82e70ff6c80c92926a4b)
REM
REM compiler GCC version 9.2.1 20190827 (Red Hat 9.2.1-1)
REM options -cpp -mtune=generic -march=x86-64 -g -O0 -fpre-include=/usr/include/finclude/math-vector-fortran.h
REM seed -1916097245 -1540384325 -2072059885 -661982640 -868912119 -1299588440 -705803187 1391678617 -280092440 -1663630739 -1666817804 -1935817659 1385632227 1704303217 -422561014 -1987651078 -1241068779 -294409963 -1405610267 -518064164 -17908166 -1985934936 624465247 -1505910397 -139719026 -1373910509 -672658982 1317077439 -357600351 -1795159038 -1713087554 -1547780723 -1134826744
REM
CELL 1.54180   50.00000   50.00000   50.00000   90.00000   90.00000   90.00000
LATT -1
SFAC C  
C      1  0.5620180000000  0.5067490000000  0.4884770000000 1.0
C      1  0.5163830000000  0.5010590000000  0.5166130000000 1.0
C      1  0.5368080000000  0.4890700000000  0.4461670000000 1.0
C      1  0.5182530000000  0.5258620000000  0.4733430000000 1.0
C      1  0.4476980000000  0.5434020000000  0.5261680000000 1.0
C      1  0.5429430000000  0.5514330000000  0.5095600000000 1.0
C      1  0.5389900000000  0.4596840000000  0.5459210000000 1.0
C      1  0.5474430000000  0.4652370000000  0.5169340000000 1.0
C      1  0.5415650000000  0.5087130000000  0.4677190000000 1.0
C      1  0.4570890000000  0.5542240000000  0.5016410000000 1.0
C      1  0.5053690000000  0.5230530000000  0.4994690000000 1.0
C      1  0.4691830000000  0.4228740000000  0.5046840000000 1.0
C      1  0.4643980000000  0.5466320000000  0.4786300000000 1.0
C      1  0.5145980000000  0.4711590000000  0.5585050000000 1.0
C      1  0.5121980000000  0.5257260000000  0.4247390000000 1.0
C      1  0.4343130000000  0.5084690000000  0.4979430000000 1.0
C      1  0.4464460000000  0.4878530000000  0.4943350000000 1.0
C      1  0.4950240000000  0.5460590000000  0.5146270000000 1.0
C      1  0.5029040000000  0.5374170000000  0.4509400000000 1.0
C      1  0.5387210000000  0.5305440000000  0.5555470000000 1.0
C      1  0.5227490000000  0.4742030000000  0.5042140000000 1.0
C      1  0.5295490000000  0.5519200000000  0.5477860000000 1.0
C      1  0.5318460000000  0.4449430000000  0.4659290000000 1.0
C      1  0.4537090000000  0.4717870000000  0.5232260000000 1.0
C      1  0.5240760000000  0.4496120000000  0.4443190000000 1.0
C      1  0.5457580000000  0.4627960000000  0.4490330000000 1.0
C      1  0.4731090000000  0.5368350000000  0.4545430000000 1.0
C      1  0.4988850000000  0.4941120000000  0.5442410000000 1.0
C      1  0.4798170000000  0.5161370000000  0.5537570000000 1.0
C      1  0.4714770000000  0.4687790000000  0.4568400000000 1.0
C      1  0.4750530000000  0.5392540000000  0.5361750000000 1.0
C      1  0.5683370000000  0.4815580000000  0.5031940000000 1.0
C      1  0.4507740000000  0.4886560000000  0.4652120000000 1.0
C      1  0.4647470000000  0.4473380000000  0.5018500000000 1.0
C      1  0.5425340000000  0.5158530000000  0.5316660000000 1.0
C      1  0.5118030000000  0.4963380000000  0.4306940000000 1.0
C      1  0.4585730000000  0.4963700000000  0.5570240000000 1.0
C      1  0.4372730000000  0.4935890000000  0.5366000000000 1.0
C      1  0.4299500000000  0.5194110000000  0.5233460000000 1.0
C      1  0.5198660000000  0.5620310000000  0.5223290000000 1.0
C      1  0.4644220000000  0.5090980000000  0.4481140000000 1.0
C      1  0.4748060000000  0.4750820000000  0.5444000000000 1.0
C      1  0.5118870000000  0.4563530000000  0.4835380000000 1.0
C      1  0.4826860000000  0.4520000000000  0.4781010000000 1.0
C      1  0.4841930000000  0.4892640000000  0.4392580000000 1.0
C      1  0.5411880000000  0.4730950000000  0.5728790000000 1.0
C      1  0.5585900000000  0.5283660000000  0.5097700000000 1.0
END
