TITL C-884142-5251-162 22.780780545786 125000 -19148.3120953333 0 0 130 (C1) n - 1
REM
REM in /home/nfs/bkarasulu/CARBON/AIRSS/Generating-Clusters/ReaxFF-fromJPCA2015/Units_Real/with-SteepDescent/Only-C1/SD-CG/Try1-3A/FIRE-CG
REM
REM
REM
REM
REM
REM ./C.cell (11c1c37f851c82e70ff6c80c92926a4b)
REM
REM compiler GCC version 9.2.1 20190827 (Red Hat 9.2.1-1)
REM options -cpp -mtune=generic -march=x86-64 -g -O0 -fpre-include=/usr/include/finclude/math-vector-fortran.h
REM seed 967112096 1986453703 -2080170604 1743166518 -460817909 -2129654385 -1578836727 -192309650 2011954696 1724388304 436636982 630161194 -809261410 -1116222580 -1369765582 -406633411 396009463 -1681629528 735539815 -1920292933 -268953283 -223275466 -559284455 993754808 1727329639 -692325209 -2023825600 1058767791 584149366 1591675069 -778710438 1683232956 1413919112
REM
CELL 1.54180   50.00000   50.00000   50.00000   90.00000   90.00000   90.00000
LATT -1
SFAC C  
C      1  0.4665780000000  0.4956200000000  0.4063260000000 1.0
C      1  0.4568860000000  0.4089320000000  0.4962640000000 1.0
C      1  0.5212250000000  0.4761600000000  0.5344620000000 1.0
C      1  0.5402670000000  0.5400400000000  0.5041960000000 1.0
C      1  0.5366380000000  0.5177190000000  0.4738690000000 1.0
C      1  0.5903330000000  0.5310230000000  0.4454310000000 1.0
C      1  0.4794910000000  0.5512380000000  0.4840620000000 1.0
C      1  0.4488470000000  0.5744490000000  0.5222090000000 1.0
C      1  0.4952550000000  0.4683750000000  0.5795800000000 1.0
C      1  0.5213130000000  0.4121060000000  0.5054410000000 1.0
C      1  0.4390660000000  0.4172080000000  0.4761190000000 1.0
C      1  0.5173090000000  0.5247280000000  0.5190710000000 1.0
C      1  0.5805560000000  0.5436740000000  0.4715330000000 1.0
C      1  0.5228560000000  0.4541050000000  0.5828460000000 1.0
C      1  0.4589790000000  0.4209940000000  0.4575810000000 1.0
C      1  0.4343620000000  0.4871810000000  0.5166270000000 1.0
C      1  0.5950050000000  0.5020060000000  0.4456530000000 1.0
C      1  0.5007060000000  0.4283050000000  0.5494870000000 1.0
C      1  0.5805890000000  0.5096560000000  0.5514580000000 1.0
C      1  0.4721210000000  0.5681640000000  0.4404540000000 1.0
C      1  0.4025730000000  0.4573040000000  0.4688780000000 1.0
C      1  0.5678120000000  0.5313740000000  0.4280490000000 1.0
C      1  0.5323480000000  0.5928690000000  0.5022800000000 1.0
C      1  0.4491530000000  0.5324960000000  0.5527560000000 1.0
C      1  0.5422880000000  0.4295050000000  0.4741460000000 1.0
C      1  0.5262650000000  0.5229870000000  0.5614650000000 1.0
C      1  0.5045740000000  0.5616790000000  0.4739910000000 1.0
C      1  0.4832730000000  0.5952180000000  0.4907490000000 1.0
C      1  0.4746830000000  0.5869560000000  0.5185380000000 1.0
C      1  0.5407190000000  0.4750290000000  0.4164080000000 1.0
C      1  0.4417030000000  0.5016380000000  0.4217130000000 1.0
C      1  0.5562460000000  0.4298420000000  0.5220150000000 1.0
C      1  0.5596080000000  0.5102550000000  0.5311660000000 1.0
C      1  0.4939320000000  0.5228930000000  0.4348390000000 1.0
C      1  0.5866210000000  0.4998660000000  0.4947610000000 1.0
C      1  0.4722440000000  0.4615530000000  0.5296410000000 1.0
C      1  0.4814260000000  0.4500090000000  0.4986860000000 1.0
C      1  0.5486650000000  0.4502730000000  0.4299380000000 1.0
C      1  0.4511980000000  0.5110490000000  0.4635180000000 1.0
C      1  0.5434280000000  0.5721660000000  0.5526020000000 1.0
C      1  0.5840930000000  0.4811530000000  0.5453020000000 1.0
C      1  0.4340150000000  0.5250400000000  0.4427140000000 1.0
C      1  0.5613770000000  0.4418130000000  0.4556230000000 1.0
C      1  0.5938070000000  0.4559640000000  0.4969110000000 1.0
C      1  0.4936710000000  0.5327930000000  0.5331610000000 1.0
C      1  0.4668810000000  0.4328490000000  0.4342060000000 1.0
C      1  0.4165030000000  0.4647080000000  0.5169960000000 1.0
C      1  0.4123340000000  0.5236650000000  0.4702120000000 1.0
C      1  0.5434340000000  0.4931670000000  0.4583180000000 1.0
C      1  0.5266380000000  0.4351510000000  0.5619670000000 1.0
C      1  0.5003030000000  0.4131820000000  0.5211670000000 1.0
C      1  0.4686640000000  0.5196280000000  0.5351290000000 1.0
C      1  0.5215120000000  0.5405630000000  0.4655490000000 1.0
C      1  0.5158810000000  0.5848650000000  0.4587570000000 1.0
C      1  0.4853720000000  0.5459320000000  0.5797480000000 1.0
C      1  0.4687930000000  0.5873370000000  0.4664340000000 1.0
C      1  0.5415640000000  0.5302770000000  0.4204810000000 1.0
C      1  0.5217920000000  0.4494730000000  0.4742210000000 1.0
C      1  0.5836610000000  0.5284990000000  0.4957740000000 1.0
C      1  0.5769790000000  0.4871730000000  0.4663650000000 1.0
C      1  0.5396440000000  0.5012550000000  0.4291150000000 1.0
C      1  0.5448950000000  0.5665430000000  0.4936010000000 1.0
C      1  0.5254650000000  0.5563600000000  0.4291720000000 1.0
C      1  0.4584960000000  0.4907510000000  0.5332260000000 1.0
C      1  0.5120680000000  0.5178730000000  0.4581810000000 1.0
C      1  0.4127820000000  0.5067690000000  0.5170050000000 1.0
C      1  0.6022060000000  0.4304150000000  0.5086140000000 1.0
C      1  0.4500310000000  0.4409230000000  0.5357520000000 1.0
C      1  0.5080850000000  0.4577090000000  0.4959520000000 1.0
C      1  0.4549720000000  0.5164400000000  0.5777220000000 1.0
C      1  0.4710390000000  0.4647520000000  0.4756840000000 1.0
C      1  0.4903620000000  0.5106760000000  0.4042250000000 1.0
C      1  0.4964650000000  0.5533850000000  0.4310810000000 1.0
C      1  0.4505480000000  0.4519370000000  0.4179810000000 1.0
C      1  0.4732200000000  0.5674360000000  0.5636350000000 1.0
C      1  0.5019310000000  0.4961470000000  0.5892550000000 1.0
C      1  0.4244140000000  0.4425560000000  0.4819680000000 1.0
C      1  0.4504280000000  0.5500600000000  0.4378050000000 1.0
C      1  0.5498740000000  0.6085630000000  0.5181700000000 1.0
C      1  0.5316680000000  0.4975450000000  0.5924420000000 1.0
C      1  0.4823540000000  0.4199580000000  0.4990940000000 1.0
C      1  0.5122940000000  0.4821250000000  0.5073790000000 1.0
C      1  0.4311800000000  0.5284440000000  0.5087910000000 1.0
C      1  0.4519310000000  0.5164080000000  0.4918420000000 1.0
C      1  0.5826580000000  0.4206240000000  0.5168370000000 1.0
C      1  0.5809850000000  0.4579770000000  0.4695380000000 1.0
C      1  0.4013990000000  0.5030930000000  0.4877160000000 1.0
C      1  0.4894090000000  0.5827230000000  0.5442450000000 1.0
C      1  0.5022090000000  0.5080900000000  0.5018290000000 1.0
C      1  0.5444150000000  0.4499700000000  0.5423390000000 1.0
C      1  0.4795090000000  0.5242250000000  0.4933330000000 1.0
C      1  0.5215830000000  0.4513220000000  0.4175500000000 1.0
C      1  0.5463850000000  0.4166190000000  0.5001710000000 1.0
C      1  0.5447390000000  0.5226300000000  0.5834850000000 1.0
C      1  0.5060910000000  0.5431420000000  0.5581090000000 1.0
C      1  0.4488530000000  0.5616810000000  0.5491020000000 1.0
C      1  0.4540130000000  0.5655350000000  0.4778580000000 1.0
C      1  0.5566460000000  0.5906470000000  0.5361280000000 1.0
C      1  0.5186600000000  0.4751320000000  0.4619570000000 1.0
C      1  0.4325780000000  0.5678640000000  0.4980420000000 1.0
C      1  0.4435320000000  0.4628080000000  0.4723030000000 1.0
C      1  0.5643310000000  0.5358220000000  0.5194930000000 1.0
C      1  0.5405090000000  0.5735230000000  0.4477340000000 1.0
C      1  0.5454090000000  0.4724000000000  0.5825400000000 1.0
C      1  0.5894630000000  0.4797290000000  0.5147620000000 1.0
C      1  0.4324420000000  0.4751790000000  0.4262380000000 1.0
C      1  0.5321770000000  0.5068860000000  0.5389200000000 1.0
C      1  0.4759750000000  0.5033900000000  0.4506040000000 1.0
C      1  0.4823420000000  0.5182540000000  0.5885370000000 1.0
C      1  0.4928860000000  0.4489490000000  0.4192460000000 1.0
C      1  0.4470540000000  0.4915980000000  0.5643390000000 1.0
C      1  0.4755520000000  0.4261050000000  0.5668340000000 1.0
C      1  0.4454260000000  0.4157790000000  0.5224760000000 1.0
C      1  0.4145360000000  0.5446200000000  0.4908640000000 1.0
C      1  0.5141780000000  0.5697480000000  0.5508360000000 1.0
C      1  0.5645000000000  0.5523570000000  0.5488100000000 1.0
C      1  0.5599920000000  0.5647110000000  0.4689240000000 1.0
C      1  0.4023680000000  0.4905380000000  0.5462850000000 1.0
C      1  0.3998350000000  0.4739000000000  0.4929310000000 1.0
C      1  0.4537730000000  0.4156840000000  0.5505170000000 1.0
C      1  0.5626610000000  0.4664330000000  0.5594900000000 1.0
C      1  0.4169500000000  0.4664160000000  0.5476900000000 1.0
C      1  0.4969640000000  0.4627210000000  0.5462520000000 1.0
C      1  0.4426050000000  0.4638120000000  0.5697780000000 1.0
C      1  0.5688760000000  0.5313090000000  0.5682970000000 1.0
C      1  0.4898340000000  0.4814640000000  0.4619650000000 1.0
C      1  0.4228220000000  0.4728420000000  0.4538910000000 1.0
C      1  0.4680990000000  0.4517200000000  0.5774770000000 1.0
C      1  0.4730670000000  0.4639330000000  0.4053500000000 1.0
C      1  0.5109460000000  0.6011890000000  0.4828460000000 1.0
END
