TITL C-884128-4793-261 94.3723333377454 125000 -28830.796613912 0 0 193 (C1) n - 1
REM
REM in /home/nfs/bkarasulu/CARBON/AIRSS/Generating-Clusters/ReaxFF-fromJPCA2015/Units_Real/with-SteepDescent/Only-C1/SD-CG/Try1-3A/FIRE-CG
REM
REM
REM
REM
REM
REM ./C.cell (11c1c37f851c82e70ff6c80c92926a4b)
REM
REM compiler GCC version 9.2.1 20190827 (Red Hat 9.2.1-1)
REM options -cpp -mtune=generic -march=x86-64 -g -O0 -fpre-include=/usr/include/finclude/math-vector-fortran.h
REM seed -116327052 -1106037732 -1039434820 1539972135 1761786666 -282278385 -2002395044 1085040398 -1420357269 -788100870 -505701487 -2075207130 505329742 231449271 -1094640651 27217345 -726381771 2047957037 1190110178 -2115485343 -2035749204 721270786 -384071485 1971815618 1924196562 663646098 -1687732614 -309096259 286229774 96020452 1687994981 -1313566997 -540726022
REM
CELL 1.54180   50.00000   50.00000   50.00000   90.00000   90.00000   90.00000
LATT -1
SFAC C  
C      1  0.4565360000000  0.6041610000000  0.5173390000000 1.0
C      1  0.5483130000000  0.5262760000000  0.3854800000000 1.0
C      1  0.5648060000000  0.5263470000000  0.4110540000000 1.0
C      1  0.5107420000000  0.4158030000000  0.4317710000000 1.0
C      1  0.4859640000000  0.3920260000000  0.5123890000000 1.0
C      1  0.5137480000000  0.6031370000000  0.4556560000000 1.0
C      1  0.4802610000000  0.5371270000000  0.4936740000000 1.0
C      1  0.5868850000000  0.5110030000000  0.4235310000000 1.0
C      1  0.4462160000000  0.4125980000000  0.5346470000000 1.0
C      1  0.5709860000000  0.4969630000000  0.4600590000000 1.0
C      1  0.4758760000000  0.5622240000000  0.3931870000000 1.0
C      1  0.5211990000000  0.3926230000000  0.4798270000000 1.0
C      1  0.4340180000000  0.5610390000000  0.5220940000000 1.0
C      1  0.4329050000000  0.4665250000000  0.5985940000000 1.0
C      1  0.5339650000000  0.5531040000000  0.5781060000000 1.0
C      1  0.4896000000000  0.6095300000000  0.4718570000000 1.0
C      1  0.5013390000000  0.5489250000000  0.6068400000000 1.0
C      1  0.5552070000000  0.4364860000000  0.4414120000000 1.0
C      1  0.5216230000000  0.5804950000000  0.5794420000000 1.0
C      1  0.6028650000000  0.5500940000000  0.4784230000000 1.0
C      1  0.4236940000000  0.4848090000000  0.4863380000000 1.0
C      1  0.4534490000000  0.5654060000000  0.5681680000000 1.0
C      1  0.3929210000000  0.5319750000000  0.5415920000000 1.0
C      1  0.3981410000000  0.4978350000000  0.4910700000000 1.0
C      1  0.4564200000000  0.4576320000000  0.4638840000000 1.0
C      1  0.5020720000000  0.5148690000000  0.5726860000000 1.0
C      1  0.4140750000000  0.5089010000000  0.5758710000000 1.0
C      1  0.4062040000000  0.4356240000000  0.5124040000000 1.0
C      1  0.4551040000000  0.4700350000000  0.5420320000000 1.0
C      1  0.4472150000000  0.5499610000000  0.4440390000000 1.0
C      1  0.4379140000000  0.5833680000000  0.4780120000000 1.0
C      1  0.5858090000000  0.5532040000000  0.4560490000000 1.0
C      1  0.5118030000000  0.4416520000000  0.4458440000000 1.0
C      1  0.4529910000000  0.4589700000000  0.5170710000000 1.0
C      1  0.3987630000000  0.4627710000000  0.5536090000000 1.0
C      1  0.5438020000000  0.4582470000000  0.5092130000000 1.0
C      1  0.5369370000000  0.5357520000000  0.4745960000000 1.0
C      1  0.5336940000000  0.4171100000000  0.5770990000000 1.0
C      1  0.4533920000000  0.5035740000000  0.4812310000000 1.0
C      1  0.4751720000000  0.3957150000000  0.4602710000000 1.0
C      1  0.4561810000000  0.5367880000000  0.5772390000000 1.0
C      1  0.4306090000000  0.4957230000000  0.5960420000000 1.0
C      1  0.5953020000000  0.5260750000000  0.4464080000000 1.0
C      1  0.4562050000000  0.5314270000000  0.6070270000000 1.0
C      1  0.5746030000000  0.4828700000000  0.5874270000000 1.0
C      1  0.5332370000000  0.5489640000000  0.3943560000000 1.0
C      1  0.6008740000000  0.5191340000000  0.4946860000000 1.0
C      1  0.4203420000000  0.4249090000000  0.5351300000000 1.0
C      1  0.5096850000000  0.5382030000000  0.5646730000000 1.0
C      1  0.4980040000000  0.4438340000000  0.4996780000000 1.0
C      1  0.4842120000000  0.5264990000000  0.6160680000000 1.0
C      1  0.5749180000000  0.5300160000000  0.5057850000000 1.0
C      1  0.4642100000000  0.4775860000000  0.3893070000000 1.0
C      1  0.5981630000000  0.5031550000000  0.4689700000000 1.0
C      1  0.4971150000000  0.4778800000000  0.4706410000000 1.0
C      1  0.4105310000000  0.5370300000000  0.5155850000000 1.0
C      1  0.4288100000000  0.4703440000000  0.5108690000000 1.0
C      1  0.5494340000000  0.5984540000000  0.5119540000000 1.0
C      1  0.4014780000000  0.5263720000000  0.4887490000000 1.0
C      1  0.4752490000000  0.5244720000000  0.5305330000000 1.0
C      1  0.5570270000000  0.4351010000000  0.5784720000000 1.0
C      1  0.4351170000000  0.5879430000000  0.5071360000000 1.0
C      1  0.5630620000000  0.4134970000000  0.4626060000000 1.0
C      1  0.4755280000000  0.4407730000000  0.4043420000000 1.0
C      1  0.5136830000000  0.5561200000000  0.5186060000000 1.0
C      1  0.5037080000000  0.3965820000000  0.4576060000000 1.0
C      1  0.4582150000000  0.4092940000000  0.4819600000000 1.0
C      1  0.4950980000000  0.4894090000000  0.5738240000000 1.0
C      1  0.4746760000000  0.5758980000000  0.4959380000000 1.0
C      1  0.5294980000000  0.4656790000000  0.6053820000000 1.0
C      1  0.5904340000000  0.5707760000000  0.5341970000000 1.0
C      1  0.5219330000000  0.5693250000000  0.4103090000000 1.0
C      1  0.5802480000000  0.4585760000000  0.4422160000000 1.0
C      1  0.4228030000000  0.5099910000000  0.5208860000000 1.0
C      1  0.5503750000000  0.5166160000000  0.5360300000000 1.0
C      1  0.5999560000000  0.4455630000000  0.4847400000000 1.0
C      1  0.5509410000000  0.4940810000000  0.4789430000000 1.0
C      1  0.5029190000000  0.4297680000000  0.5314320000000 1.0
C      1  0.5523830000000  0.5205060000000  0.4902520000000 1.0
C      1  0.4756090000000  0.4387710000000  0.4794690000000 1.0
C      1  0.5814080000000  0.4261900000000  0.4776240000000 1.0
C      1  0.3835080000000  0.5044600000000  0.5405220000000 1.0
C      1  0.4718730000000  0.5723540000000  0.4395940000000 1.0
C      1  0.5208700000000  0.5960350000000  0.5552690000000 1.0
C      1  0.4961230000000  0.5730880000000  0.5900300000000 1.0
C      1  0.4307040000000  0.4173260000000  0.4716240000000 1.0
C      1  0.4588260000000  0.5179230000000  0.5533860000000 1.0
C      1  0.4951020000000  0.5573980000000  0.4506350000000 1.0
C      1  0.5709870000000  0.4468490000000  0.5297300000000 1.0
C      1  0.4925490000000  0.5973440000000  0.5476960000000 1.0
C      1  0.5646820000000  0.5706230000000  0.5490020000000 1.0
C      1  0.4124040000000  0.5359710000000  0.5624290000000 1.0
C      1  0.5225630000000  0.4052540000000  0.5296500000000 1.0
C      1  0.5336320000000  0.4472880000000  0.4594940000000 1.0
C      1  0.4780470000000  0.5815780000000  0.5682170000000 1.0
C      1  0.4357040000000  0.4460850000000  0.5785090000000 1.0
C      1  0.5391980000000  0.4713340000000  0.3886780000000 1.0
C      1  0.5415080000000  0.5161180000000  0.4247290000000 1.0
C      1  0.3870300000000  0.4887450000000  0.5161510000000 1.0
C      1  0.4820020000000  0.4177130000000  0.4194280000000 1.0
C      1  0.6046780000000  0.5282450000000  0.5654670000000 1.0
C      1  0.4149860000000  0.4404330000000  0.5597660000000 1.0
C      1  0.5018110000000  0.4963640000000  0.4103540000000 1.0
C      1  0.4548990000000  0.4826610000000  0.6068330000000 1.0
C      1  0.5142390000000  0.5737960000000  0.4684230000000 1.0
C      1  0.5667720000000  0.4942290000000  0.5257160000000 1.0
C      1  0.5127940000000  0.3864970000000  0.5091770000000 1.0
C      1  0.5217920000000  0.4932540000000  0.4598420000000 1.0
C      1  0.5157560000000  0.4783400000000  0.5547360000000 1.0
C      1  0.5457820000000  0.5911750000000  0.5400980000000 1.0
C      1  0.5225020000000  0.4931170000000  0.6152210000000 1.0
C      1  0.4152560000000  0.4665410000000  0.4461650000000 1.0
C      1  0.6024360000000  0.5520110000000  0.5510290000000 1.0
C      1  0.5968450000000  0.4667960000000  0.4635720000000 1.0
C      1  0.4638640000000  0.5536130000000  0.5130890000000 1.0
C      1  0.3955700000000  0.4901260000000  0.5629430000000 1.0
C      1  0.4315390000000  0.5351200000000  0.4235930000000 1.0
C      1  0.5765200000000  0.5590040000000  0.5101390000000 1.0
C      1  0.5003960000000  0.5145410000000  0.4995630000000 1.0
C      1  0.5430620000000  0.4116050000000  0.4837790000000 1.0
C      1  0.3984550000000  0.4624220000000  0.5238280000000 1.0
C      1  0.4590070000000  0.4495650000000  0.5640960000000 1.0
C      1  0.5024710000000  0.5714500000000  0.4959570000000 1.0
C      1  0.5421400000000  0.5643090000000  0.4743760000000 1.0
C      1  0.4302680000000  0.5584190000000  0.5521650000000 1.0
C      1  0.5243290000000  0.4941140000000  0.4295490000000 1.0
C      1  0.5326530000000  0.6117020000000  0.4917240000000 1.0
C      1  0.4705150000000  0.5320070000000  0.3970930000000 1.0
C      1  0.4090580000000  0.4636640000000  0.4723510000000 1.0
C      1  0.5019480000000  0.6135730000000  0.4969670000000 1.0
C      1  0.4383050000000  0.4508250000000  0.4391150000000 1.0
C      1  0.5411650000000  0.6032750000000  0.4646610000000 1.0
C      1  0.4885080000000  0.4220380000000  0.5596000000000 1.0
C      1  0.5649500000000  0.4266020000000  0.5512000000000 1.0
C      1  0.5264140000000  0.5002780000000  0.5345760000000 1.0
C      1  0.4127560000000  0.4367230000000  0.4845900000000 1.0
C      1  0.4901190000000  0.4744010000000  0.3779680000000 1.0
C      1  0.5284530000000  0.5406990000000  0.6037160000000 1.0
C      1  0.4896230000000  0.5746410000000  0.4154110000000 1.0
C      1  0.4840480000000  0.4749540000000  0.6000400000000 1.0
C      1  0.4610930000000  0.4228060000000  0.5572820000000 1.0
C      1  0.5194950000000  0.5222130000000  0.4581140000000 1.0
C      1  0.5744780000000  0.4854080000000  0.4329020000000 1.0
C      1  0.5075990000000  0.4960890000000  0.3828120000000 1.0
C      1  0.4663060000000  0.5892160000000  0.4684630000000 1.0
C      1  0.4843390000000  0.6097920000000  0.5219620000000 1.0
C      1  0.4572710000000  0.5272580000000  0.4637030000000 1.0
C      1  0.4266100000000  0.5616590000000  0.4627350000000 1.0
C      1  0.5574560000000  0.5421470000000  0.5576530000000 1.0
C      1  0.5288240000000  0.4463610000000  0.3978140000000 1.0
C      1  0.5229760000000  0.4792470000000  0.5144280000000 1.0
C      1  0.5056520000000  0.4509310000000  0.5994560000000 1.0
C      1  0.4594780000000  0.3992000000000  0.5119600000000 1.0
C      1  0.4442730000000  0.5266780000000  0.4003970000000 1.0
C      1  0.5983430000000  0.4508400000000  0.5143880000000 1.0
C      1  0.4140850000000  0.5196210000000  0.4397960000000 1.0
C      1  0.4948120000000  0.4512670000000  0.4603660000000 1.0
C      1  0.5595280000000  0.5755820000000  0.4502950000000 1.0
C      1  0.4974480000000  0.4731760000000  0.5024810000000 1.0
C      1  0.5612800000000  0.4798900000000  0.5010300000000 1.0
C      1  0.5427580000000  0.5714470000000  0.4283360000000 1.0
C      1  0.4455970000000  0.4997600000000  0.3933540000000 1.0
C      1  0.4406210000000  0.4988830000000  0.5401770000000 1.0
C      1  0.5925020000000  0.4821620000000  0.5636910000000 1.0
C      1  0.4941730000000  0.4981730000000  0.6172310000000 1.0
C      1  0.5366720000000  0.4972860000000  0.3791410000000 1.0
C      1  0.4286490000000  0.4817710000000  0.4089630000000 1.0
C      1  0.5660420000000  0.5099030000000  0.5945530000000 1.0
C      1  0.5556030000000  0.4611690000000  0.5921750000000 1.0
C      1  0.5023120000000  0.5355590000000  0.5366620000000 1.0
C      1  0.5368510000000  0.4274480000000  0.4187570000000 1.0
C      1  0.4673610000000  0.4838420000000  0.4644200000000 1.0
C      1  0.5297600000000  0.4395760000000  0.4881380000000 1.0
C      1  0.5064340000000  0.4278080000000  0.5824510000000 1.0
C      1  0.4893010000000  0.5208490000000  0.4165860000000 1.0
C      1  0.5727530000000  0.4728740000000  0.5445250000000 1.0
C      1  0.5771200000000  0.5307200000000  0.5772040000000 1.0
C      1  0.4108300000000  0.5367740000000  0.4636270000000 1.0
C      1  0.4990250000000  0.4494920000000  0.3904200000000 1.0
C      1  0.4490210000000  0.4586050000000  0.4056610000000 1.0
C      1  0.5574880000000  0.5746480000000  0.4981730000000 1.0
C      1  0.4370950000000  0.4210570000000  0.4439780000000 1.0
C      1  0.6087460000000  0.5026540000000  0.5497000000000 1.0
C      1  0.4753800000000  0.5004520000000  0.5069940000000 1.0
C      1  0.6126090000000  0.5025000000000  0.5203290000000 1.0
C      1  0.5097510000000  0.4543700000000  0.5444580000000 1.0
C      1  0.4145580000000  0.4908000000000  0.4325670000000 1.0
C      1  0.5065800000000  0.5340990000000  0.4357640000000 1.0
C      1  0.4615530000000  0.4062850000000  0.4365510000000 1.0
C      1  0.5405910000000  0.5149150000000  0.6083850000000 1.0
C      1  0.4796320000000  0.5414440000000  0.4680630000000 1.0
C      1  0.5428370000000  0.4065930000000  0.5504150000000 1.0
C      1  0.6080400000000  0.4759920000000  0.5176940000000 1.0
END
