TITL C-883730-8503-351 24.8831422878566 125000 -16883.0821673822 0 0 114 (C1) n - 1
REM
REM in /home/nfs/bkarasulu/CARBON/AIRSS/Generating-Clusters/ReaxFF-fromJPCA2015/Units_Real/with-SteepDescent/Only-C1/SD-CG/Try1-3A/FIRE-CG
REM
REM
REM
REM
REM
REM ./C.cell (11c1c37f851c82e70ff6c80c92926a4b)
REM
REM compiler GCC version 9.2.1 20190827 (Red Hat 9.2.1-1)
REM options -cpp -mtune=generic -march=x86-64 -g -O0 -fpre-include=/usr/include/finclude/math-vector-fortran.h
REM seed -1027892909 -1599498814 -456371793 -1898631750 -481536534 -1560488030 250103112 -35515841 -1308424424 1582444427 798835048 -847343601 -1317786147 572191068 1922688300 -381268847 -153326846 -36201314 -1753316210 245067245 -165764218 169624918 1600506277 1955745941 -1107478277 1652198086 1403090107 -1957993335 -634860228 -705253606 -944900251 -1479318264 -2054622036
REM
CELL 1.54180   50.00000   50.00000   50.00000   90.00000   90.00000   90.00000
LATT -1
SFAC C  
C      1  0.5138200000000  0.4553470000000  0.4280800000000 1.0
C      1  0.5769720000000  0.4860410000000  0.4343270000000 1.0
C      1  0.5617090000000  0.5245790000000  0.5791930000000 1.0
C      1  0.5348910000000  0.5341820000000  0.5803010000000 1.0
C      1  0.4300410000000  0.4435340000000  0.5265520000000 1.0
C      1  0.5803020000000  0.4584980000000  0.5564550000000 1.0
C      1  0.5098450000000  0.4827720000000  0.4172290000000 1.0
C      1  0.4623130000000  0.5513630000000  0.5777320000000 1.0
C      1  0.5161660000000  0.5141190000000  0.4572910000000 1.0
C      1  0.4111390000000  0.4864990000000  0.5335150000000 1.0
C      1  0.4596460000000  0.4313570000000  0.4657160000000 1.0
C      1  0.5610260000000  0.5245150000000  0.5259440000000 1.0
C      1  0.5414190000000  0.4458720000000  0.4364190000000 1.0
C      1  0.4437410000000  0.5335710000000  0.5679960000000 1.0
C      1  0.5066050000000  0.5838730000000  0.5224420000000 1.0
C      1  0.5160570000000  0.4910720000000  0.5384780000000 1.0
C      1  0.5646520000000  0.4362610000000  0.5477370000000 1.0
C      1  0.5382150000000  0.4750310000000  0.5251300000000 1.0
C      1  0.5368950000000  0.5311680000000  0.5391120000000 1.0
C      1  0.4706580000000  0.4178550000000  0.5138760000000 1.0
C      1  0.4946400000000  0.5334010000000  0.5089500000000 1.0
C      1  0.4610520000000  0.5038190000000  0.4190120000000 1.0
C      1  0.5543390000000  0.5684990000000  0.4651340000000 1.0
C      1  0.4904260000000  0.5281130000000  0.4607610000000 1.0
C      1  0.5358230000000  0.4334180000000  0.5547520000000 1.0
C      1  0.4776400000000  0.5344150000000  0.5324100000000 1.0
C      1  0.4602220000000  0.5555540000000  0.4406700000000 1.0
C      1  0.4766770000000  0.5804460000000  0.4843370000000 1.0
C      1  0.4333510000000  0.5189480000000  0.4484580000000 1.0
C      1  0.5221660000000  0.5448760000000  0.4954260000000 1.0
C      1  0.4450190000000  0.4796950000000  0.4245970000000 1.0
C      1  0.5300210000000  0.4813830000000  0.4826880000000 1.0
C      1  0.4453920000000  0.5045770000000  0.5693720000000 1.0
C      1  0.4051520000000  0.4653860000000  0.4655490000000 1.0
C      1  0.5045830000000  0.4251920000000  0.4660670000000 1.0
C      1  0.5218660000000  0.4632680000000  0.5029860000000 1.0
C      1  0.5867970000000  0.4880650000000  0.5178060000000 1.0
C      1  0.4788740000000  0.5840920000000  0.5141130000000 1.0
C      1  0.4830150000000  0.4277460000000  0.4864210000000 1.0
C      1  0.4053710000000  0.5010210000000  0.5075160000000 1.0
C      1  0.4007740000000  0.4756750000000  0.4940020000000 1.0
C      1  0.5270520000000  0.4193200000000  0.5078730000000 1.0
C      1  0.5159970000000  0.4236210000000  0.5343540000000 1.0
C      1  0.5046370000000  0.5840690000000  0.4760750000000 1.0
C      1  0.5513970000000  0.4412560000000  0.4645090000000 1.0
C      1  0.4069130000000  0.4610320000000  0.5192190000000 1.0
C      1  0.4348420000000  0.5564300000000  0.5234260000000 1.0
C      1  0.4333960000000  0.4832650000000  0.5526190000000 1.0
C      1  0.4427460000000  0.4230870000000  0.5101950000000 1.0
C      1  0.4176580000000  0.5349120000000  0.4664670000000 1.0
C      1  0.5767980000000  0.4874570000000  0.4645520000000 1.0
C      1  0.4624340000000  0.4949930000000  0.5175030000000 1.0
C      1  0.4438200000000  0.4939410000000  0.4631410000000 1.0
C      1  0.4357980000000  0.4231190000000  0.4803200000000 1.0
C      1  0.5786510000000  0.4605750000000  0.5040580000000 1.0
C      1  0.4806890000000  0.4522720000000  0.5794530000000 1.0
C      1  0.5421230000000  0.5659450000000  0.4384790000000 1.0
C      1  0.5084610000000  0.5273220000000  0.5757000000000 1.0
C      1  0.4551520000000  0.5685530000000  0.4668670000000 1.0
C      1  0.4854020000000  0.4257830000000  0.5370740000000 1.0
C      1  0.4647210000000  0.5778760000000  0.5392840000000 1.0
C      1  0.4284530000000  0.5607500000000  0.4754900000000 1.0
C      1  0.5064510000000  0.4604660000000  0.5886130000000 1.0
C      1  0.5619600000000  0.4634190000000  0.4303670000000 1.0
C      1  0.5573360000000  0.5038890000000  0.4188000000000 1.0
C      1  0.5686570000000  0.5527450000000  0.4869540000000 1.0
C      1  0.4748190000000  0.4735330000000  0.5026290000000 1.0
C      1  0.4751720000000  0.5023030000000  0.5701240000000 1.0
C      1  0.4706760000000  0.4438900000000  0.5544600000000 1.0
C      1  0.4773780000000  0.5717520000000  0.5658480000000 1.0
C      1  0.5662550000000  0.4949230000000  0.5700070000000 1.0
C      1  0.6008780000000  0.5102430000000  0.5017170000000 1.0
C      1  0.4879230000000  0.5470480000000  0.4394440000000 1.0
C      1  0.5979870000000  0.5073120000000  0.4735980000000 1.0
C      1  0.4836050000000  0.4789560000000  0.5857590000000 1.0
C      1  0.5511520000000  0.5015740000000  0.4841230000000 1.0
C      1  0.4851860000000  0.4802620000000  0.4764330000000 1.0
C      1  0.4497910000000  0.5304210000000  0.4287230000000 1.0
C      1  0.5717920000000  0.4588630000000  0.4763820000000 1.0
C      1  0.5305980000000  0.4244180000000  0.4788840000000 1.0
C      1  0.5182760000000  0.5711910000000  0.5460000000000 1.0
C      1  0.5399980000000  0.4823360000000  0.5765120000000 1.0
C      1  0.5590570000000  0.4991860000000  0.5131930000000 1.0
C      1  0.5214210000000  0.5743720000000  0.4984480000000 1.0
C      1  0.4212670000000  0.5233650000000  0.4949510000000 1.0
C      1  0.5284820000000  0.5831850000000  0.4580260000000 1.0
C      1  0.5589150000000  0.4498000000000  0.5222920000000 1.0
C      1  0.4183180000000  0.5544700000000  0.5028670000000 1.0
C      1  0.5013880000000  0.5329190000000  0.4176220000000 1.0
C      1  0.4451400000000  0.4565600000000  0.5475060000000 1.0
C      1  0.4903660000000  0.5058550000000  0.4140720000000 1.0
C      1  0.4762090000000  0.5260880000000  0.4856850000000 1.0
C      1  0.4947550000000  0.4532450000000  0.5039950000000 1.0
C      1  0.4759740000000  0.5070980000000  0.5405590000000 1.0
C      1  0.5921450000000  0.5335010000000  0.4855670000000 1.0
C      1  0.5362410000000  0.5273250000000  0.4778950000000 1.0
C      1  0.5024480000000  0.5562670000000  0.5662160000000 1.0
C      1  0.5857810000000  0.4849950000000  0.5500200000000 1.0
C      1  0.5297590000000  0.4995110000000  0.4295750000000 1.0
C      1  0.4526270000000  0.5113350000000  0.4944680000000 1.0
C      1  0.5145350000000  0.5172940000000  0.5265430000000 1.0
C      1  0.4674800000000  0.4783420000000  0.4577500000000 1.0
C      1  0.4942910000000  0.4413640000000  0.4433340000000 1.0
C      1  0.5285900000000  0.5449540000000  0.4193700000000 1.0
C      1  0.5526020000000  0.5316430000000  0.4187560000000 1.0
C      1  0.5176880000000  0.4995260000000  0.5662070000000 1.0
C      1  0.4190300000000  0.4419670000000  0.4684970000000 1.0
C      1  0.5313500000000  0.4543040000000  0.5746670000000 1.0
C      1  0.4252140000000  0.4772290000000  0.4456600000000 1.0
C      1  0.5438690000000  0.5598760000000  0.5378200000000 1.0
C      1  0.4662110000000  0.4520370000000  0.4459920000000 1.0
C      1  0.5634400000000  0.5519550000000  0.5162110000000 1.0
C      1  0.5092380000000  0.4901980000000  0.4701170000000 1.0
C      1  0.4538250000000  0.5500090000000  0.5395320000000 1.0
END
