TITL C-883739-1268-229 15.7269382008511 125000 -9822.26439940867 0 0 67 (C1) n - 1
REM
REM in /home/nfs/bkarasulu/CARBON/AIRSS/Generating-Clusters/ReaxFF-fromJPCA2015/Units_Real/with-SteepDescent/Only-C1/SD-CG/Try1-3A/FIRE-CG
REM
REM
REM
REM
REM
REM ./C.cell (11c1c37f851c82e70ff6c80c92926a4b)
REM
REM compiler GCC version 9.2.1 20190827 (Red Hat 9.2.1-1)
REM options -cpp -mtune=generic -march=x86-64 -g -O0 -fpre-include=/usr/include/finclude/math-vector-fortran.h
REM seed -753533158 -133872282 2085948596 784686682 572898224 935928900 -1284612077 140918735 1044117116 27847421 -1444672081 -694983800 2001071816 -653960465 -2067714448 -366483022 -578284154 -1404388104 -1557106382 1588184053 1643873795 1772047538 1019508799 756927906 715792182 254737672 506854619 -1100226718 1383522657 -1978041740 -638777599 -1010261164 304643315
REM
CELL 1.54180   50.00000   50.00000   50.00000   90.00000   90.00000   90.00000
LATT -1
SFAC C  
C      1  0.4965330000000  0.4918250000000  0.5325240000000 1.0
C      1  0.5065010000000  0.4409890000000  0.4400720000000 1.0
C      1  0.5067550000000  0.4812290000000  0.5792880000000 1.0
C      1  0.4472340000000  0.4505030000000  0.4824720000000 1.0
C      1  0.4922560000000  0.5469300000000  0.4776970000000 1.0
C      1  0.5361790000000  0.5147510000000  0.5535510000000 1.0
C      1  0.4864220000000  0.5326850000000  0.4475260000000 1.0
C      1  0.4891030000000  0.5049320000000  0.5890770000000 1.0
C      1  0.5424850000000  0.4610390000000  0.4605740000000 1.0
C      1  0.5347540000000  0.5053550000000  0.5252280000000 1.0
C      1  0.5518160000000  0.5185170000000  0.4458540000000 1.0
C      1  0.5006480000000  0.5121000000000  0.4323610000000 1.0
C      1  0.4375410000000  0.5388940000000  0.5154310000000 1.0
C      1  0.4610790000000  0.5288740000000  0.4552640000000 1.0
C      1  0.5279670000000  0.4401000000000  0.4760180000000 1.0
C      1  0.4895210000000  0.4674540000000  0.5532740000000 1.0
C      1  0.5140070000000  0.4261330000000  0.5231160000000 1.0
C      1  0.4716860000000  0.4708350000000  0.4389490000000 1.0
C      1  0.4834880000000  0.5692590000000  0.5115490000000 1.0
C      1  0.4845860000000  0.4661050000000  0.4915840000000 1.0
C      1  0.5795800000000  0.5267370000000  0.4764140000000 1.0
C      1  0.4772500000000  0.4902380000000  0.4771960000000 1.0
C      1  0.4890260000000  0.4860420000000  0.4240050000000 1.0
C      1  0.5451610000000  0.4673280000000  0.5462780000000 1.0
C      1  0.5261960000000  0.5483510000000  0.5114800000000 1.0
C      1  0.4424440000000  0.4701910000000  0.5372970000000 1.0
C      1  0.4769770000000  0.5582340000000  0.5381770000000 1.0
C      1  0.5081760000000  0.4628170000000  0.4216040000000 1.0
C      1  0.4278210000000  0.4970440000000  0.4745070000000 1.0
C      1  0.5458120000000  0.5626250000000  0.4784110000000 1.0
C      1  0.5286150000000  0.5040440000000  0.4362420000000 1.0
C      1  0.4487830000000  0.5109150000000  0.5172280000000 1.0
C      1  0.4419900000000  0.5468650000000  0.4881530000000 1.0
C      1  0.4406010000000  0.4996420000000  0.5418930000000 1.0
C      1  0.4503750000000  0.5454520000000  0.5403610000000 1.0
C      1  0.5192100000000  0.4829370000000  0.5204210000000 1.0
C      1  0.5367380000000  0.5534170000000  0.5363820000000 1.0
C      1  0.5599280000000  0.5445050000000  0.4611770000000 1.0
C      1  0.4308960000000  0.4901810000000  0.5024020000000 1.0
C      1  0.5006450000000  0.4312360000000  0.4655300000000 1.0
C      1  0.4368680000000  0.5251260000000  0.4677270000000 1.0
C      1  0.5350840000000  0.4874960000000  0.5649070000000 1.0
C      1  0.4979370000000  0.4401860000000  0.5431440000000 1.0
C      1  0.5520270000000  0.4564650000000  0.5190210000000 1.0
C      1  0.5633260000000  0.4767480000000  0.4733930000000 1.0
C      1  0.4745620000000  0.4457240000000  0.4725590000000 1.0
C      1  0.5622260000000  0.5030110000000  0.5142210000000 1.0
C      1  0.5544750000000  0.5526150000000  0.5093190000000 1.0
C      1  0.5717450000000  0.5280230000000  0.5043000000000 1.0
C      1  0.5118310000000  0.4769480000000  0.4941190000000 1.0
C      1  0.4981840000000  0.5232260000000  0.4978680000000 1.0
C      1  0.4597020000000  0.4852510000000  0.4548430000000 1.0
C      1  0.4383340000000  0.4718500000000  0.4622810000000 1.0
C      1  0.4765840000000  0.5246180000000  0.5723260000000 1.0
C      1  0.5657050000000  0.4762820000000  0.5024250000000 1.0
C      1  0.4378950000000  0.4629450000000  0.5075020000000 1.0
C      1  0.4508680000000  0.5216990000000  0.5574510000000 1.0
C      1  0.5225290000000  0.5406640000000  0.5574380000000 1.0
C      1  0.5345480000000  0.4377230000000  0.5042920000000 1.0
C      1  0.5315040000000  0.4745000000000  0.4367950000000 1.0
C      1  0.5041020000000  0.5007570000000  0.4796950000000 1.0
C      1  0.5709770000000  0.5029230000000  0.4612520000000 1.0
C      1  0.5085390000000  0.5653910000000  0.4962430000000 1.0
C      1  0.4678700000000  0.5613700000000  0.4882530000000 1.0
C      1  0.4604780000000  0.4563690000000  0.5561150000000 1.0
C      1  0.4819950000000  0.5102400000000  0.5180970000000 1.0
C      1  0.4933190000000  0.5445430000000  0.5578470000000 1.0
END
