TITL C-884128-4793-328 44.8904170229212 125000 -16595.3257237633 0 0 111 (C1) n - 1
REM
REM in /home/nfs/bkarasulu/CARBON/AIRSS/Generating-Clusters/ReaxFF-fromJPCA2015/Units_Real/with-SteepDescent/Only-C1/SD-CG/Try1-3A/FIRE-CG
REM
REM
REM
REM
REM
REM ./C.cell (11c1c37f851c82e70ff6c80c92926a4b)
REM
REM compiler GCC version 9.2.1 20190827 (Red Hat 9.2.1-1)
REM options -cpp -mtune=generic -march=x86-64 -g -O0 -fpre-include=/usr/include/finclude/math-vector-fortran.h
REM seed -652791614 1278482009 -732312338 -1970736143 2023318608 -1342149103 -1136363674 -853710427 -472885097 -1850234766 430647971 460911109 991072381 -834679026 -616796240 1431855315 -1657446534 593261389 1639982586 1414299369 -1961126091 -660147134 -2084800878 2134029060 1454972096 974993877 1284088162 2113809359 -1769989019 571465816 643749341 699843839 -1643804779
REM
CELL 1.54180   50.00000   50.00000   50.00000   90.00000   90.00000   90.00000
LATT -1
SFAC C  
C      1  0.4104080000000  0.5447730000000  0.4736740000000 1.0
C      1  0.4998450000000  0.5372740000000  0.4315740000000 1.0
C      1  0.5068970000000  0.4905050000000  0.5364610000000 1.0
C      1  0.5459660000000  0.5100800000000  0.4043640000000 1.0
C      1  0.5841110000000  0.5369250000000  0.5089840000000 1.0
C      1  0.4564890000000  0.5173470000000  0.4536790000000 1.0
C      1  0.5150280000000  0.4704380000000  0.5842620000000 1.0
C      1  0.4806920000000  0.5117610000000  0.4696210000000 1.0
C      1  0.4748120000000  0.4718050000000  0.4596060000000 1.0
C      1  0.4560420000000  0.4334340000000  0.4888570000000 1.0
C      1  0.4346920000000  0.5200140000000  0.5876650000000 1.0
C      1  0.4163230000000  0.5566190000000  0.5009420000000 1.0
C      1  0.4435000000000  0.4538100000000  0.5313930000000 1.0
C      1  0.4957370000000  0.5086330000000  0.4235970000000 1.0
C      1  0.4121720000000  0.4838430000000  0.4499400000000 1.0
C      1  0.4819610000000  0.5335160000000  0.5102290000000 1.0
C      1  0.5455310000000  0.5223080000000  0.4856310000000 1.0
C      1  0.5083080000000  0.5966200000000  0.4701620000000 1.0
C      1  0.5374300000000  0.4821360000000  0.4048060000000 1.0
C      1  0.4665520000000  0.4791210000000  0.5812920000000 1.0
C      1  0.4349260000000  0.5592910000000  0.4633350000000 1.0
C      1  0.4092840000000  0.4879690000000  0.5382220000000 1.0
C      1  0.5636510000000  0.4618150000000  0.5324280000000 1.0
C      1  0.5065880000000  0.4532690000000  0.5055750000000 1.0
C      1  0.5289170000000  0.4196480000000  0.5342800000000 1.0
C      1  0.4676600000000  0.5763810000000  0.5000500000000 1.0
C      1  0.4761940000000  0.4265030000000  0.4232020000000 1.0
C      1  0.4658280000000  0.4939950000000  0.5565940000000 1.0
C      1  0.5316090000000  0.4952920000000  0.5253290000000 1.0
C      1  0.4487850000000  0.4942210000000  0.4358000000000 1.0
C      1  0.4908490000000  0.4865020000000  0.4773420000000 1.0
C      1  0.5925820000000  0.5067240000000  0.4690550000000 1.0
C      1  0.4174200000000  0.4839520000000  0.5666480000000 1.0
C      1  0.4368000000000  0.5058740000000  0.5063700000000 1.0
C      1  0.4972790000000  0.4047130000000  0.4939090000000 1.0
C      1  0.5151490000000  0.5499550000000  0.4740950000000 1.0
C      1  0.5659130000000  0.5595150000000  0.5100170000000 1.0
C      1  0.5501550000000  0.5521890000000  0.4842570000000 1.0
C      1  0.5886470000000  0.5332850000000  0.4798460000000 1.0
C      1  0.4052300000000  0.5172130000000  0.4699430000000 1.0
C      1  0.5709200000000  0.4324760000000  0.4717410000000 1.0
C      1  0.5512740000000  0.5038320000000  0.4636620000000 1.0
C      1  0.4501230000000  0.4603630000000  0.4731120000000 1.0
C      1  0.5428870000000  0.5453470000000  0.5502970000000 1.0
C      1  0.5029400000000  0.4107070000000  0.5221450000000 1.0
C      1  0.4579490000000  0.4323430000000  0.5180460000000 1.0
C      1  0.5468640000000  0.4247610000000  0.4532510000000 1.0
C      1  0.5226580000000  0.5395170000000  0.5280850000000 1.0
C      1  0.4710500000000  0.4109120000000  0.4788450000000 1.0
C      1  0.4924870000000  0.5106720000000  0.5526310000000 1.0
C      1  0.5187990000000  0.4791970000000  0.4762520000000 1.0
C      1  0.4956780000000  0.5353260000000  0.5360860000000 1.0
C      1  0.5908000000000  0.4825430000000  0.4874760000000 1.0
C      1  0.5267900000000  0.4976390000000  0.5824680000000 1.0
C      1  0.4415380000000  0.5692790000000  0.4905960000000 1.0
C      1  0.5320720000000  0.5185270000000  0.5098850000000 1.0
C      1  0.5749430000000  0.5045780000000  0.4460330000000 1.0
C      1  0.4653140000000  0.4729640000000  0.5364540000000 1.0
C      1  0.4358420000000  0.4689840000000  0.4465850000000 1.0
C      1  0.4105130000000  0.5424090000000  0.5255180000000 1.0
C      1  0.5304140000000  0.4198860000000  0.4746490000000 1.0
C      1  0.4122070000000  0.5574730000000  0.5528500000000 1.0
C      1  0.4720210000000  0.4187220000000  0.4520100000000 1.0
C      1  0.4918660000000  0.4700600000000  0.5246530000000 1.0
C      1  0.4045860000000  0.4898310000000  0.4765320000000 1.0
C      1  0.5204360000000  0.4315450000000  0.5591090000000 1.0
C      1  0.5795410000000  0.5150180000000  0.5287360000000 1.0
C      1  0.4877410000000  0.5823210000000  0.4531320000000 1.0
C      1  0.5815380000000  0.4583140000000  0.4785790000000 1.0
C      1  0.5543340000000  0.4313510000000  0.5243780000000 1.0
C      1  0.5102220000000  0.5205610000000  0.5772410000000 1.0
C      1  0.4882270000000  0.4590360000000  0.5791030000000 1.0
C      1  0.5565850000000  0.4691700000000  0.5605310000000 1.0
C      1  0.5527980000000  0.4972340000000  0.5673090000000 1.0
C      1  0.4753920000000  0.5829170000000  0.5272600000000 1.0
C      1  0.5635310000000  0.4264750000000  0.4987580000000 1.0
C      1  0.5322870000000  0.4385170000000  0.4306320000000 1.0
C      1  0.4691290000000  0.5686390000000  0.5537690000000 1.0
C      1  0.4992140000000  0.5678580000000  0.5610550000000 1.0
C      1  0.4802130000000  0.5581140000000  0.4387760000000 1.0
C      1  0.4958700000000  0.5311450000000  0.4845060000000 1.0
C      1  0.4811360000000  0.4242340000000  0.5354910000000 1.0
C      1  0.5168690000000  0.5034200000000  0.4042230000000 1.0
C      1  0.5283360000000  0.5880480000000  0.5213540000000 1.0
C      1  0.5035420000000  0.5860010000000  0.5375610000000 1.0
C      1  0.4916230000000  0.4361280000000  0.5606090000000 1.0
C      1  0.5353970000000  0.4534340000000  0.5725380000000 1.0
C      1  0.5502340000000  0.5698070000000  0.5315170000000 1.0
C      1  0.4587350000000  0.5193000000000  0.5082440000000 1.0
C      1  0.4904420000000  0.5731110000000  0.4785190000000 1.0
C      1  0.4143850000000  0.5139140000000  0.5249680000000 1.0
C      1  0.5532330000000  0.5439870000000  0.4405240000000 1.0
C      1  0.4284320000000  0.4771690000000  0.4935010000000 1.0
C      1  0.5187740000000  0.5466580000000  0.5695200000000 1.0
C      1  0.4241250000000  0.5400210000000  0.5724620000000 1.0
C      1  0.5706460000000  0.5499760000000  0.4631910000000 1.0
C      1  0.4382840000000  0.4880590000000  0.5865940000000 1.0
C      1  0.5636680000000  0.5216440000000  0.4246800000000 1.0
C      1  0.5239810000000  0.5453130000000  0.4463090000000 1.0
C      1  0.5854100000000  0.4857600000000  0.5186690000000 1.0
C      1  0.5620250000000  0.5193770000000  0.5510440000000 1.0
C      1  0.5052700000000  0.4327340000000  0.4270570000000 1.0
C      1  0.5207950000000  0.5945470000000  0.4945900000000 1.0
C      1  0.5349490000000  0.4841510000000  0.4528450000000 1.0
C      1  0.4202400000000  0.4672850000000  0.5199370000000 1.0
C      1  0.4770120000000  0.4867770000000  0.4336420000000 1.0
C      1  0.5391680000000  0.4672900000000  0.4295190000000 1.0
C      1  0.5451580000000  0.4751620000000  0.5163880000000 1.0
C      1  0.5314740000000  0.4638870000000  0.4965140000000 1.0
C      1  0.5066050000000  0.4310560000000  0.4859600000000 1.0
C      1  0.4545010000000  0.5459230000000  0.4462580000000 1.0
END
