TITL C-884128-4793-165 0.857201463017848 125000 -19948.0534855007 0 0 132 (C1) n - 1
REM
REM in /home/nfs/bkarasulu/CARBON/AIRSS/Generating-Clusters/ReaxFF-fromJPCA2015/Units_Real/with-SteepDescent/Only-C1/SD-CG/Try1-3A/FIRE-CG
REM
REM
REM
REM
REM
REM ./C.cell (11c1c37f851c82e70ff6c80c92926a4b)
REM
REM compiler GCC version 9.2.1 20190827 (Red Hat 9.2.1-1)
REM options -cpp -mtune=generic -march=x86-64 -g -O0 -fpre-include=/usr/include/finclude/math-vector-fortran.h
REM seed -401646681 -886470374 -885139991 -1868576891 -795300418 468862811 752004752 1030958361 171283798 1212658867 -1369580237 1097540063 1177098390 881610926 -213452541 341251777 -395384058 107228656 248328786 -229611845 -881099150 2050995956 1201061245 1049454583 -379528732 -66616317 567401876 1045586373 2113934848 1860344675 -1918640827 1020441392 2061810441
REM
CELL 1.54180   50.00000   50.00000   50.00000   90.00000   90.00000   90.00000
LATT -1
SFAC C  
C      1  0.4637480000000  0.5681970000000  0.5595160000000 1.0
C      1  0.4910160000000  0.5598960000000  0.4221640000000 1.0
C      1  0.4326150000000  0.5408700000000  0.5770550000000 1.0
C      1  0.5370070000000  0.5319110000000  0.5488720000000 1.0
C      1  0.5374650000000  0.5639770000000  0.4497790000000 1.0
C      1  0.4314400000000  0.4412190000000  0.5265160000000 1.0
C      1  0.4339140000000  0.5534450000000  0.4956680000000 1.0
C      1  0.5583920000000  0.4887580000000  0.4307270000000 1.0
C      1  0.4334600000000  0.5479970000000  0.5275940000000 1.0
C      1  0.4892130000000  0.5608540000000  0.5479890000000 1.0
C      1  0.4820150000000  0.4471080000000  0.5231500000000 1.0
C      1  0.4248660000000  0.4474120000000  0.4693940000000 1.0
C      1  0.5908950000000  0.5012170000000  0.5477340000000 1.0
C      1  0.5006290000000  0.5368400000000  0.5164340000000 1.0
C      1  0.4811120000000  0.5098700000000  0.5923240000000 1.0
C      1  0.4390030000000  0.4236760000000  0.4790020000000 1.0
C      1  0.5351630000000  0.4618570000000  0.5702390000000 1.0
C      1  0.4582330000000  0.5535890000000  0.5838390000000 1.0
C      1  0.4695060000000  0.4068220000000  0.5176010000000 1.0
C      1  0.4623990000000  0.4746770000000  0.4499170000000 1.0
C      1  0.5586400000000  0.4905430000000  0.5075980000000 1.0
C      1  0.4606190000000  0.5040070000000  0.4101000000000 1.0
C      1  0.5236160000000  0.4616940000000  0.4719730000000 1.0
C      1  0.5268360000000  0.5337080000000  0.5021950000000 1.0
C      1  0.5691160000000  0.4335100000000  0.4987110000000 1.0
C      1  0.5162130000000  0.4391430000000  0.4550350000000 1.0
C      1  0.4759400000000  0.4922920000000  0.4323620000000 1.0
C      1  0.4731830000000  0.5251800000000  0.3947720000000 1.0
C      1  0.4594870000000  0.4951980000000  0.5787580000000 1.0
C      1  0.4830860000000  0.5394140000000  0.5911640000000 1.0
C      1  0.5040900000000  0.4926240000000  0.5017360000000 1.0
C      1  0.5712690000000  0.5008940000000  0.5679150000000 1.0
C      1  0.4640890000000  0.5825400000000  0.4637710000000 1.0
C      1  0.4690900000000  0.5280040000000  0.4772280000000 1.0
C      1  0.4427860000000  0.5159420000000  0.5653400000000 1.0
C      1  0.4974840000000  0.4018790000000  0.5071970000000 1.0
C      1  0.5808580000000  0.4499170000000  0.5212790000000 1.0
C      1  0.5725580000000  0.5727550000000  0.4844370000000 1.0
C      1  0.4877050000000  0.5988770000000  0.4702770000000 1.0
C      1  0.5078680000000  0.5627630000000  0.4453500000000 1.0
C      1  0.4021660000000  0.4886360000000  0.4765570000000 1.0
C      1  0.4669140000000  0.5102310000000  0.5273570000000 1.0
C      1  0.4657040000000  0.4581190000000  0.5005230000000 1.0
C      1  0.5455560000000  0.5824920000000  0.5220220000000 1.0
C      1  0.4056400000000  0.4989830000000  0.5373040000000 1.0
C      1  0.4974850000000  0.5369540000000  0.4057200000000 1.0
C      1  0.4452960000000  0.4216040000000  0.5078050000000 1.0
C      1  0.5037760000000  0.5349100000000  0.5446660000000 1.0
C      1  0.4152690000000  0.5481240000000  0.5540840000000 1.0
C      1  0.4487250000000  0.5767850000000  0.4888340000000 1.0
C      1  0.6043990000000  0.4977280000000  0.5229590000000 1.0
C      1  0.4993540000000  0.4432610000000  0.4089480000000 1.0
C      1  0.4365860000000  0.4868940000000  0.5323420000000 1.0
C      1  0.5029170000000  0.5976860000000  0.4959150000000 1.0
C      1  0.5068550000000  0.4589520000000  0.5326970000000 1.0
C      1  0.4570960000000  0.5881480000000  0.5150780000000 1.0
C      1  0.4719620000000  0.4247000000000  0.5407000000000 1.0
C      1  0.4171340000000  0.5133340000000  0.4691960000000 1.0
C      1  0.5076230000000  0.4983230000000  0.5916700000000 1.0
C      1  0.5258990000000  0.5221130000000  0.5890890000000 1.0
C      1  0.5941130000000  0.4912080000000  0.4715590000000 1.0
C      1  0.4867570000000  0.4537040000000  0.5751190000000 1.0
C      1  0.4917100000000  0.5403240000000  0.4666760000000 1.0
C      1  0.5533930000000  0.5407470000000  0.4379320000000 1.0
C      1  0.5834060000000  0.4873740000000  0.4459740000000 1.0
C      1  0.5473580000000  0.4018490000000  0.4844340000000 1.0
C      1  0.4389140000000  0.5317820000000  0.4774140000000 1.0
C      1  0.5300300000000  0.5872270000000  0.4976270000000 1.0
C      1  0.5177510000000  0.5299230000000  0.4729800000000 1.0
C      1  0.5158190000000  0.4177800000000  0.5510680000000 1.0
C      1  0.5351190000000  0.4999380000000  0.4972890000000 1.0
C      1  0.5109500000000  0.5473350000000  0.5859640000000 1.0
C      1  0.5400800000000  0.5810160000000  0.5506390000000 1.0
C      1  0.4844930000000  0.5985670000000  0.5182050000000 1.0
C      1  0.5603230000000  0.4706090000000  0.5289500000000 1.0
C      1  0.6011720000000  0.4693150000000  0.5237240000000 1.0
C      1  0.5172770000000  0.5933390000000  0.5594090000000 1.0
C      1  0.3971280000000  0.5258350000000  0.5485180000000 1.0
C      1  0.5066160000000  0.4879100000000  0.5311860000000 1.0
C      1  0.4886750000000  0.4322100000000  0.4579690000000 1.0
C      1  0.5726560000000  0.4434460000000  0.4710610000000 1.0
C      1  0.4450690000000  0.5744020000000  0.5377090000000 1.0
C      1  0.4428140000000  0.5527080000000  0.4257880000000 1.0
C      1  0.5759590000000  0.5457250000000  0.5203420000000 1.0
C      1  0.4467520000000  0.4758570000000  0.5083580000000 1.0
C      1  0.5698160000000  0.5721610000000  0.5127760000000 1.0
C      1  0.5004320000000  0.4705520000000  0.4829010000000 1.0
C      1  0.5282170000000  0.4439140000000  0.5477290000000 1.0
C      1  0.5208980000000  0.5049870000000  0.4586340000000 1.0
C      1  0.4771780000000  0.4583150000000  0.4720760000000 1.0
C      1  0.4424960000000  0.4609180000000  0.5464670000000 1.0
C      1  0.4530910000000  0.4094150000000  0.4569900000000 1.0
C      1  0.4652790000000  0.5677920000000  0.4373520000000 1.0
C      1  0.4903900000000  0.4268460000000  0.5633740000000 1.0
C      1  0.4463090000000  0.5297690000000  0.4066160000000 1.0
C      1  0.5053130000000  0.4990110000000  0.4339500000000 1.0
C      1  0.5492010000000  0.4609950000000  0.4280230000000 1.0
C      1  0.4589960000000  0.4211400000000  0.4311080000000 1.0
C      1  0.5017130000000  0.3929250000000  0.4798590000000 1.0
C      1  0.5904450000000  0.4654130000000  0.4632670000000 1.0
C      1  0.5499670000000  0.5223570000000  0.5722030000000 1.0
C      1  0.5738150000000  0.5428420000000  0.4553990000000 1.0
C      1  0.4061900000000  0.4534050000000  0.5157470000000 1.0
C      1  0.5486170000000  0.4137240000000  0.5092730000000 1.0
C      1  0.5571410000000  0.4384920000000  0.4466590000000 1.0
C      1  0.4809140000000  0.5179540000000  0.5038130000000 1.0
C      1  0.5447490000000  0.5143890000000  0.4242300000000 1.0
C      1  0.5174630000000  0.5159900000000  0.4136890000000 1.0
C      1  0.5385180000000  0.4870270000000  0.4725580000000 1.0
C      1  0.5850590000000  0.5027160000000  0.4966480000000 1.0
C      1  0.4486750000000  0.5253160000000  0.5389830000000 1.0
C      1  0.4903130000000  0.5081170000000  0.5439440000000 1.0
C      1  0.5918330000000  0.5313780000000  0.5008320000000 1.0
C      1  0.5453290000000  0.5769210000000  0.4747240000000 1.0
C      1  0.5255780000000  0.4546500000000  0.4101980000000 1.0
C      1  0.4616930000000  0.4677360000000  0.5688980000000 1.0
C      1  0.5575240000000  0.4763630000000  0.5583290000000 1.0
C      1  0.5898890000000  0.5493120000000  0.4771830000000 1.0
C      1  0.4958260000000  0.5883910000000  0.5430370000000 1.0
C      1  0.5245290000000  0.5705010000000  0.5736430000000 1.0
C      1  0.4069790000000  0.4615720000000  0.4870390000000 1.0
C      1  0.4769390000000  0.4323840000000  0.4159020000000 1.0
C      1  0.4346880000000  0.4676850000000  0.4496970000000 1.0
C      1  0.5358930000000  0.4181910000000  0.4482820000000 1.0
C      1  0.5208110000000  0.4106350000000  0.5229790000000 1.0
C      1  0.4159990000000  0.4905840000000  0.4509420000000 1.0
C      1  0.5488120000000  0.5350210000000  0.5237460000000 1.0
C      1  0.4820140000000  0.4036150000000  0.4610170000000 1.0
C      1  0.5030710000000  0.5876520000000  0.4498230000000 1.0
C      1  0.5281890000000  0.3947050000000  0.4657450000000 1.0
C      1  0.5101420000000  0.4706710000000  0.5827120000000 1.0
C      1  0.3957510000000  0.4763650000000  0.5289340000000 1.0
END
