TITL C-884129-4740-200 -5.61637723003196 125000 -7036.84535412281 0 0 48 (C1) n - 1
REM
REM in /home/nfs/bkarasulu/CARBON/AIRSS/Generating-Clusters/ReaxFF-fromJPCA2015/Units_Real/with-SteepDescent/Only-C1/SD-CG/Try1-3A/FIRE-CG
REM
REM
REM
REM
REM
REM ./C.cell (11c1c37f851c82e70ff6c80c92926a4b)
REM
REM compiler GCC version 9.2.1 20190827 (Red Hat 9.2.1-1)
REM options -cpp -mtune=generic -march=x86-64 -g -O0 -fpre-include=/usr/include/finclude/math-vector-fortran.h
REM seed -1526056018 2009175582 -1081997393 2010282063 -413200889 -547702870 1660776321 839467915 -1317367355 396100899 -1946383204 -68926451 -612557230 -1817093854 1164263621 1431557534 -336629348 971487659 -1385695096 553227699 182017231 1689444262 -639205839 131416546 -628387837 -474077583 1448402481 1535225683 993301587 949548416 -1617669254 1798759135 469838967
REM
CELL 1.54180   50.00000   50.00000   50.00000   90.00000   90.00000   90.00000
LATT -1
SFAC C  
C      1  0.4904690000000  0.4483520000000  0.5536520000000 1.0
C      1  0.5399180000000  0.4986140000000  0.5497570000000 1.0
C      1  0.5197300000000  0.5558080000000  0.5398910000000 1.0
C      1  0.5025950000000  0.5244620000000  0.4467120000000 1.0
C      1  0.4357190000000  0.4781630000000  0.5283450000000 1.0
C      1  0.4701780000000  0.5104660000000  0.4873570000000 1.0
C      1  0.5201260000000  0.5457530000000  0.4494640000000 1.0
C      1  0.5355410000000  0.5616830000000  0.5163790000000 1.0
C      1  0.5657490000000  0.4893800000000  0.5179480000000 1.0
C      1  0.5362380000000  0.4544210000000  0.4636010000000 1.0
C      1  0.4517850000000  0.5512410000000  0.5073490000000 1.0
C      1  0.4580010000000  0.4683610000000  0.4685270000000 1.0
C      1  0.5317950000000  0.4846460000000  0.4564150000000 1.0
C      1  0.5083020000000  0.5253900000000  0.4986750000000 1.0
C      1  0.4655460000000  0.4975860000000  0.5486630000000 1.0
C      1  0.4672120000000  0.4673470000000  0.5533830000000 1.0
C      1  0.4979950000000  0.5365820000000  0.5263750000000 1.0
C      1  0.4346800000000  0.4871750000000  0.4684340000000 1.0
C      1  0.5202780000000  0.4642150000000  0.5145250000000 1.0
C      1  0.5522390000000  0.5364290000000  0.5129620000000 1.0
C      1  0.4948300000000  0.4447010000000  0.4628070000000 1.0
C      1  0.4883680000000  0.5732410000000  0.4984750000000 1.0
C      1  0.4904920000000  0.4691780000000  0.5094880000000 1.0
C      1  0.5101850000000  0.4959990000000  0.4388810000000 1.0
C      1  0.5601770000000  0.4619100000000  0.4760020000000 1.0
C      1  0.4730250000000  0.4458070000000  0.5153670000000 1.0
C      1  0.5312800000000  0.5566430000000  0.4727030000000 1.0
C      1  0.5178730000000  0.5713910000000  0.4933990000000 1.0
C      1  0.5161320000000  0.4363640000000  0.4781610000000 1.0
C      1  0.4921060000000  0.5265020000000  0.4752800000000 1.0
C      1  0.4405260000000  0.5131150000000  0.4823290000000 1.0
C      1  0.4498580000000  0.4542250000000  0.5323220000000 1.0
C      1  0.5171450000000  0.4359960000000  0.5085180000000 1.0
C      1  0.4770080000000  0.5577460000000  0.5209800000000 1.0
C      1  0.4948320000000  0.4312180000000  0.5285740000000 1.0
C      1  0.5427000000000  0.4759700000000  0.5300940000000 1.0
C      1  0.4371350000000  0.5253520000000  0.5089490000000 1.0
C      1  0.5137330000000  0.5055830000000  0.5519470000000 1.0
C      1  0.5683990000000  0.4862600000000  0.4877030000000 1.0
C      1  0.4771260000000  0.4816700000000  0.4867130000000 1.0
C      1  0.5593080000000  0.5148660000000  0.5307520000000 1.0
C      1  0.4623020000000  0.5677640000000  0.4833430000000 1.0
C      1  0.5369930000000  0.5280060000000  0.4886170000000 1.0
C      1  0.5480040000000  0.5011910000000  0.4731150000000 1.0
C      1  0.4755710000000  0.4564350000000  0.4464750000000 1.0
C      1  0.4418520000000  0.5049720000000  0.5313590000000 1.0
C      1  0.4898610000000  0.4771250000000  0.4295350000000 1.0
C      1  0.4890820000000  0.5146970000000  0.5497000000000 1.0
END
