TITL C-883728-9229-136 150.12132299164 125000 -28128.5841678509 0 0 191 (C1) n - 1
REM
REM in /home/nfs/bkarasulu/CARBON/AIRSS/Generating-Clusters/ReaxFF-fromJPCA2015/Units_Real/with-SteepDescent/Only-C1/SD-CG/Try1-3A/FIRE-CG
REM
REM
REM
REM
REM
REM ./C.cell (11c1c37f851c82e70ff6c80c92926a4b)
REM
REM compiler GCC version 9.2.1 20190827 (Red Hat 9.2.1-1)
REM options -cpp -mtune=generic -march=x86-64 -g -O0 -fpre-include=/usr/include/finclude/math-vector-fortran.h
REM seed 111204092 -142175780 1839772153 833131369 1824463007 1439547033 685916934 -450858863 1610657812 297543639 -699795444 1028542958 -1445785706 67622791 -1036911573 -456344671 464629489 -27824710 283762972 -953554164 1843113730 1620904851 -190847542 -1527882737 -1818480553 360396391 -160252983 1986736763 1680156760 -877696075 -938068897 384309616 1626731398
REM
CELL 1.54180   50.00000   50.00000   50.00000   90.00000   90.00000   90.00000
LATT -1
SFAC C  
C      1  0.5662040000000  0.5806970000000  0.5423370000000 1.0
C      1  0.4245140000000  0.5703290000000  0.4863220000000 1.0
C      1  0.5095340000000  0.4492840000000  0.4368470000000 1.0
C      1  0.5866130000000  0.4238220000000  0.4774520000000 1.0
C      1  0.4708090000000  0.4660500000000  0.3875650000000 1.0
C      1  0.5107010000000  0.5955820000000  0.4852870000000 1.0
C      1  0.4507890000000  0.5428230000000  0.6088990000000 1.0
C      1  0.5499360000000  0.5374480000000  0.5176590000000 1.0
C      1  0.5901430000000  0.4346570000000  0.5422880000000 1.0
C      1  0.4672920000000  0.4939740000000  0.3971770000000 1.0
C      1  0.5353560000000  0.4365080000000  0.4987050000000 1.0
C      1  0.4922080000000  0.5496340000000  0.6053210000000 1.0
C      1  0.5322200000000  0.5514740000000  0.4705640000000 1.0
C      1  0.4389500000000  0.4706230000000  0.5921530000000 1.0
C      1  0.4298680000000  0.4490260000000  0.4183190000000 1.0
C      1  0.5239940000000  0.5525020000000  0.5164440000000 1.0
C      1  0.4818710000000  0.5919260000000  0.4356710000000 1.0
C      1  0.4981640000000  0.5064980000000  0.5837240000000 1.0
C      1  0.5159030000000  0.4000300000000  0.5087790000000 1.0
C      1  0.5121940000000  0.4366010000000  0.4100660000000 1.0
C      1  0.4698110000000  0.4992740000000  0.6126990000000 1.0
C      1  0.4778240000000  0.4338810000000  0.5750650000000 1.0
C      1  0.4102880000000  0.5262430000000  0.4403920000000 1.0
C      1  0.5037790000000  0.5586040000000  0.5369590000000 1.0
C      1  0.5743620000000  0.4139870000000  0.5274010000000 1.0
C      1  0.5889520000000  0.5677920000000  0.5292410000000 1.0
C      1  0.4749280000000  0.5278560000000  0.6172860000000 1.0
C      1  0.5406920000000  0.4705620000000  0.5961890000000 1.0
C      1  0.3960090000000  0.4622230000000  0.5082610000000 1.0
C      1  0.4849190000000  0.4943300000000  0.5187230000000 1.0
C      1  0.5003000000000  0.4791820000000  0.5529360000000 1.0
C      1  0.4126960000000  0.4572830000000  0.5849860000000 1.0
C      1  0.5270640000000  0.4691290000000  0.4543230000000 1.0
C      1  0.4068700000000  0.5002400000000  0.4268290000000 1.0
C      1  0.4897370000000  0.4150510000000  0.4205080000000 1.0
C      1  0.5566460000000  0.4563830000000  0.5020720000000 1.0
C      1  0.5909140000000  0.5002930000000  0.5669950000000 1.0
C      1  0.4468660000000  0.5126160000000  0.5060590000000 1.0
C      1  0.6086480000000  0.5533950000000  0.5448930000000 1.0
C      1  0.4978890000000  0.4547950000000  0.3877190000000 1.0
C      1  0.5581890000000  0.4532970000000  0.5801370000000 1.0
C      1  0.4879530000000  0.4800480000000  0.5953650000000 1.0
C      1  0.4675250000000  0.5508630000000  0.5055260000000 1.0
C      1  0.5112810000000  0.4773440000000  0.3859840000000 1.0
C      1  0.5701990000000  0.5138730000000  0.5846160000000 1.0
C      1  0.4670240000000  0.5258380000000  0.4908070000000 1.0
C      1  0.5977470000000  0.5268410000000  0.4729380000000 1.0
C      1  0.6003030000000  0.5418790000000  0.5670030000000 1.0
C      1  0.5477660000000  0.5003420000000  0.5969950000000 1.0
C      1  0.4907410000000  0.5015370000000  0.4515210000000 1.0
C      1  0.5171460000000  0.5158870000000  0.4871270000000 1.0
C      1  0.4565120000000  0.5819890000000  0.5760350000000 1.0
C      1  0.5848930000000  0.4489420000000  0.5688960000000 1.0
C      1  0.4392120000000  0.5895810000000  0.4670730000000 1.0
C      1  0.4662940000000  0.5299980000000  0.4267890000000 1.0
C      1  0.4883070000000  0.4015540000000  0.4466430000000 1.0
C      1  0.6019970000000  0.4496370000000  0.4784040000000 1.0
C      1  0.4233820000000  0.4741640000000  0.4325210000000 1.0
C      1  0.4619670000000  0.4223220000000  0.4127910000000 1.0
C      1  0.4351320000000  0.4428890000000  0.5352720000000 1.0
C      1  0.4247540000000  0.4341200000000  0.5748110000000 1.0
C      1  0.4100270000000  0.5109850000000  0.4009060000000 1.0
C      1  0.4587060000000  0.5321060000000  0.5506260000000 1.0
C      1  0.4484380000000  0.5125220000000  0.3887570000000 1.0
C      1  0.5125510000000  0.4615840000000  0.5968110000000 1.0
C      1  0.5818520000000  0.5810230000000  0.4740590000000 1.0
C      1  0.4837830000000  0.5217770000000  0.5629400000000 1.0
C      1  0.5896530000000  0.5197680000000  0.4465180000000 1.0
C      1  0.5517570000000  0.4025080000000  0.5430550000000 1.0
C      1  0.5493240000000  0.4709360000000  0.4045910000000 1.0
C      1  0.5243780000000  0.5173690000000  0.5922490000000 1.0
C      1  0.5324840000000  0.5230480000000  0.3986510000000 1.0
C      1  0.4862520000000  0.4747440000000  0.4655720000000 1.0
C      1  0.5402850000000  0.4090940000000  0.4908520000000 1.0
C      1  0.5059020000000  0.4395670000000  0.5780570000000 1.0
C      1  0.5641890000000  0.5985080000000  0.4886300000000 1.0
C      1  0.5579680000000  0.5632660000000  0.4320050000000 1.0
C      1  0.5755630000000  0.4194960000000  0.4507900000000 1.0
C      1  0.5575350000000  0.5634230000000  0.5654930000000 1.0
C      1  0.5111800000000  0.4917090000000  0.5031480000000 1.0
C      1  0.4371770000000  0.5650030000000  0.5692160000000 1.0
C      1  0.5517640000000  0.4594910000000  0.4620850000000 1.0
C      1  0.5885630000000  0.4912240000000  0.4409320000000 1.0
C      1  0.5639310000000  0.5126010000000  0.5252370000000 1.0
C      1  0.4662260000000  0.5990990000000  0.4601590000000 1.0
C      1  0.5720520000000  0.5382790000000  0.4290240000000 1.0
C      1  0.5098140000000  0.6051470000000  0.5472620000000 1.0
C      1  0.4386540000000  0.4192380000000  0.5560530000000 1.0
C      1  0.5984850000000  0.4688700000000  0.4557620000000 1.0
C      1  0.6040360000000  0.4665440000000  0.5028990000000 1.0
C      1  0.5657840000000  0.4961910000000  0.5497540000000 1.0
C      1  0.6022540000000  0.5070500000000  0.4950250000000 1.0
C      1  0.4034040000000  0.5273230000000  0.4687440000000 1.0
C      1  0.4096010000000  0.4894360000000  0.5587020000000 1.0
C      1  0.5136690000000  0.5442450000000  0.4053680000000 1.0
C      1  0.4676570000000  0.5650400000000  0.5979630000000 1.0
C      1  0.4804620000000  0.5550780000000  0.4601300000000 1.0
C      1  0.4870470000000  0.3999330000000  0.5038210000000 1.0
C      1  0.4297000000000  0.5400340000000  0.5667380000000 1.0
C      1  0.5506320000000  0.6056740000000  0.4634100000000 1.0
C      1  0.4275700000000  0.5315480000000  0.3920070000000 1.0
C      1  0.5062400000000  0.4443800000000  0.4992280000000 1.0
C      1  0.5315060000000  0.5661120000000  0.5770370000000 1.0
C      1  0.5510590000000  0.4307840000000  0.4593100000000 1.0
C      1  0.4457850000000  0.5116250000000  0.5339600000000 1.0
C      1  0.5414210000000  0.5056900000000  0.5577660000000 1.0
C      1  0.4677230000000  0.4134410000000  0.5556810000000 1.0
C      1  0.5991420000000  0.4722600000000  0.5586210000000 1.0
C      1  0.4099140000000  0.4534940000000  0.4841080000000 1.0
C      1  0.5319360000000  0.4914450000000  0.5221100000000 1.0
C      1  0.5346200000000  0.4938000000000  0.4419350000000 1.0
C      1  0.4855550000000  0.4496270000000  0.4516470000000 1.0
C      1  0.4809830000000  0.4348030000000  0.4757450000000 1.0
C      1  0.4429280000000  0.4985720000000  0.6007110000000 1.0
C      1  0.4592500000000  0.4474870000000  0.4883730000000 1.0
C      1  0.4307740000000  0.5633120000000  0.4588010000000 1.0
C      1  0.5599860000000  0.4800180000000  0.4828560000000 1.0
C      1  0.5678390000000  0.5851310000000  0.4484290000000 1.0
C      1  0.5214770000000  0.6036950000000  0.4588210000000 1.0
C      1  0.4422270000000  0.5664720000000  0.4197330000000 1.0
C      1  0.4800090000000  0.4027550000000  0.5311700000000 1.0
C      1  0.5211490000000  0.5682910000000  0.4918990000000 1.0
C      1  0.4179890000000  0.4803930000000  0.4745470000000 1.0
C      1  0.5332530000000  0.4923590000000  0.3903300000000 1.0
C      1  0.3867740000000  0.4904470000000  0.5035890000000 1.0
C      1  0.3850340000000  0.5126270000000  0.5223010000000 1.0
C      1  0.4910820000000  0.5182330000000  0.4752870000000 1.0
C      1  0.4472940000000  0.4033750000000  0.5082850000000 1.0
C      1  0.4422720000000  0.4940120000000  0.4854070000000 1.0
C      1  0.3941880000000  0.5117620000000  0.5496550000000 1.0
C      1  0.4361210000000  0.4886000000000  0.5476600000000 1.0
C      1  0.6018750000000  0.4588740000000  0.5319770000000 1.0
C      1  0.5244990000000  0.4697320000000  0.5598210000000 1.0
C      1  0.4518400000000  0.4463180000000  0.3988020000000 1.0
C      1  0.5112710000000  0.5772750000000  0.5582450000000 1.0
C      1  0.5187790000000  0.5427700000000  0.4466260000000 1.0
C      1  0.5522500000000  0.4678470000000  0.5543450000000 1.0
C      1  0.5437650000000  0.4658830000000  0.5252820000000 1.0
C      1  0.5877990000000  0.4843640000000  0.4909490000000 1.0
C      1  0.5184440000000  0.5035520000000  0.5422440000000 1.0
C      1  0.5099980000000  0.5896730000000  0.4363290000000 1.0
C      1  0.5580910000000  0.5201920000000  0.4111950000000 1.0
C      1  0.4789680000000  0.5689980000000  0.4877680000000 1.0
C      1  0.3979140000000  0.4620690000000  0.5589660000000 1.0
C      1  0.5430520000000  0.4433300000000  0.4112270000000 1.0
C      1  0.4977400000000  0.4460450000000  0.5275350000000 1.0
C      1  0.5195240000000  0.5463690000000  0.5955790000000 1.0
C      1  0.5561790000000  0.5347150000000  0.4734420000000 1.0
C      1  0.4638360000000  0.4610540000000  0.5790070000000 1.0
C      1  0.4845880000000  0.5463560000000  0.4106210000000 1.0
C      1  0.4554420000000  0.5428010000000  0.4515540000000 1.0
C      1  0.4091130000000  0.5464760000000  0.4916420000000 1.0
C      1  0.5555290000000  0.5970990000000  0.5197630000000 1.0
C      1  0.4197130000000  0.4255810000000  0.4764300000000 1.0
C      1  0.4473090000000  0.4826230000000  0.4459430000000 1.0
C      1  0.4238870000000  0.4033180000000  0.4941370000000 1.0
C      1  0.5154990000000  0.5139410000000  0.4429070000000 1.0
C      1  0.6086330000000  0.5226390000000  0.5465340000000 1.0
C      1  0.4702820000000  0.5723010000000  0.4163980000000 1.0
C      1  0.4221320000000  0.5463840000000  0.4189320000000 1.0
C      1  0.5095220000000  0.4697280000000  0.4828440000000 1.0
C      1  0.3960960000000  0.5003200000000  0.4780310000000 1.0
C      1  0.5448520000000  0.5106040000000  0.4822450000000 1.0
C      1  0.5741200000000  0.5418120000000  0.5768450000000 1.0
C      1  0.4639220000000  0.5862770000000  0.5468100000000 1.0
C      1  0.5322630000000  0.6036170000000  0.5311270000000 1.0
C      1  0.4055740000000  0.4511000000000  0.5334080000000 1.0
C      1  0.4930870000000  0.5158760000000  0.5364930000000 1.0
C      1  0.4340100000000  0.5256560000000  0.5925990000000 1.0
C      1  0.4426760000000  0.4161060000000  0.4605180000000 1.0
C      1  0.4400970000000  0.4243430000000  0.4329970000000 1.0
C      1  0.4726400000000  0.4062720000000  0.4715130000000 1.0
C      1  0.5105620000000  0.4325600000000  0.5485840000000 1.0
C      1  0.4005590000000  0.5377780000000  0.5187380000000 1.0
C      1  0.5545410000000  0.4256020000000  0.4315440000000 1.0
C      1  0.5691770000000  0.4126300000000  0.4980680000000 1.0
C      1  0.5829000000000  0.5504670000000  0.4829280000000 1.0
C      1  0.4816920000000  0.5983670000000  0.4848620000000 1.0
C      1  0.4480300000000  0.4323830000000  0.5099160000000 1.0
C      1  0.5595380000000  0.4918170000000  0.4249120000000 1.0
C      1  0.4659090000000  0.4994550000000  0.4289420000000 1.0
C      1  0.4794590000000  0.4684250000000  0.5332960000000 1.0
C      1  0.4591890000000  0.4733340000000  0.4763470000000 1.0
C      1  0.4801840000000  0.6093080000000  0.5394190000000 1.0
C      1  0.4079120000000  0.5361410000000  0.5476500000000 1.0
C      1  0.5263860000000  0.5635410000000  0.4265480000000 1.0
C      1  0.5929780000000  0.5154520000000  0.5216480000000 1.0
C      1  0.5741200000000  0.5512140000000  0.5103890000000 1.0
C      1  0.4734200000000  0.5574190000000  0.5337720000000 1.0
C      1  0.5229640000000  0.4068680000000  0.5369610000000 1.0
C      1  0.4530470000000  0.4659130000000  0.5484780000000 1.0
END
