TITL C-883733-4178-311 -0.44597144379339 125000 -23793.6579363498 0 0 160 (C1) n - 1
REM
REM in /home/nfs/bkarasulu/CARBON/AIRSS/Generating-Clusters/ReaxFF-fromJPCA2015/Units_Real/with-SteepDescent/Only-C1/SD-CG/Try1-3A/FIRE-CG
REM
REM
REM
REM
REM
REM ./C.cell (11c1c37f851c82e70ff6c80c92926a4b)
REM
REM compiler GCC version 9.2.1 20190827 (Red Hat 9.2.1-1)
REM options -cpp -mtune=generic -march=x86-64 -g -O0 -fpre-include=/usr/include/finclude/math-vector-fortran.h
REM seed -902839348 1795136336 -1656122237 -552976475 1631655662 1169200375 1484843536 -259020083 1148520519 1880539696 1802508017 569661616 1128422633 268899653 751679352 -2131861298 820958760 -94477405 -585748963 1462155511 -696390113 -20772296 -1704612661 755658106 -582819785 -1824971232 271597260 -1172828065 150855832 160379842 1711863207 823726955 1849462531
REM
CELL 1.54180   50.00000   50.00000   50.00000   90.00000   90.00000   90.00000
LATT -1
SFAC C  
C      1  0.4528560000000  0.5123840000000  0.5400850000000 1.0
C      1  0.4376030000000  0.4576580000000  0.5697660000000 1.0
C      1  0.4994890000000  0.3966860000000  0.4987840000000 1.0
C      1  0.4937000000000  0.4488800000000  0.4541120000000 1.0
C      1  0.4925410000000  0.5507290000000  0.5905890000000 1.0
C      1  0.5221560000000  0.5491120000000  0.4886660000000 1.0
C      1  0.5666510000000  0.4301110000000  0.5109730000000 1.0
C      1  0.5108520000000  0.4466900000000  0.5848840000000 1.0
C      1  0.6065660000000  0.5110130000000  0.4713240000000 1.0
C      1  0.5629110000000  0.5175240000000  0.4176090000000 1.0
C      1  0.5548340000000  0.5859380000000  0.4624950000000 1.0
C      1  0.5401010000000  0.4287690000000  0.4578350000000 1.0
C      1  0.5207600000000  0.5053440000000  0.5680120000000 1.0
C      1  0.4605940000000  0.4921200000000  0.5208660000000 1.0
C      1  0.5405950000000  0.4675680000000  0.4164330000000 1.0
C      1  0.4354740000000  0.4609740000000  0.4200530000000 1.0
C      1  0.4885180000000  0.4432380000000  0.5449350000000 1.0
C      1  0.4805850000000  0.5922780000000  0.4559070000000 1.0
C      1  0.4107820000000  0.5135060000000  0.5236660000000 1.0
C      1  0.5346090000000  0.4636850000000  0.5902830000000 1.0
C      1  0.4523510000000  0.4103050000000  0.5275210000000 1.0
C      1  0.5829510000000  0.5536960000000  0.4811750000000 1.0
C      1  0.4308080000000  0.4671280000000  0.4628190000000 1.0
C      1  0.4969030000000  0.5269420000000  0.4022620000000 1.0
C      1  0.5091850000000  0.4612110000000  0.5446180000000 1.0
C      1  0.5280940000000  0.5926590000000  0.4514910000000 1.0
C      1  0.4755170000000  0.5264700000000  0.4466660000000 1.0
C      1  0.5489780000000  0.5349700000000  0.5058340000000 1.0
C      1  0.5836360000000  0.4461760000000  0.4708690000000 1.0
C      1  0.4977820000000  0.4022490000000  0.4683300000000 1.0
C      1  0.5231390000000  0.5015570000000  0.5146030000000 1.0
C      1  0.4558300000000  0.4978760000000  0.4922030000000 1.0
C      1  0.5340070000000  0.5437930000000  0.4633220000000 1.0
C      1  0.4875050000000  0.4883290000000  0.5251150000000 1.0
C      1  0.4109120000000  0.5133760000000  0.5529870000000 1.0
C      1  0.5588220000000  0.5101440000000  0.4923450000000 1.0
C      1  0.5597190000000  0.5971840000000  0.4897230000000 1.0
C      1  0.5406220000000  0.5309150000000  0.5344380000000 1.0
C      1  0.4911670000000  0.5335050000000  0.4883700000000 1.0
C      1  0.4868540000000  0.5982120000000  0.5286280000000 1.0
C      1  0.5253500000000  0.4595620000000  0.5213890000000 1.0
C      1  0.4084260000000  0.4860460000000  0.5598560000000 1.0
C      1  0.5836380000000  0.5106950000000  0.4525450000000 1.0
C      1  0.5607580000000  0.5840360000000  0.5163630000000 1.0
C      1  0.4515540000000  0.4689200000000  0.4843960000000 1.0
C      1  0.5784730000000  0.4574950000000  0.5537760000000 1.0
C      1  0.4768360000000  0.5389590000000  0.4189640000000 1.0
C      1  0.5509120000000  0.4483930000000  0.5714940000000 1.0
C      1  0.5490980000000  0.4812500000000  0.4614900000000 1.0
C      1  0.5972710000000  0.4705350000000  0.4603640000000 1.0
C      1  0.4324750000000  0.5168070000000  0.4244920000000 1.0
C      1  0.5544960000000  0.5249590000000  0.5859690000000 1.0
C      1  0.5103400000000  0.4241950000000  0.4532100000000 1.0
C      1  0.4871820000000  0.5045820000000  0.4830000000000 1.0
C      1  0.4609860000000  0.5890450000000  0.5403940000000 1.0
C      1  0.4217850000000  0.4480120000000  0.4433600000000 1.0
C      1  0.5469640000000  0.4092630000000  0.5022790000000 1.0
C      1  0.5031590000000  0.4885920000000  0.5015910000000 1.0
C      1  0.5142280000000  0.4841610000000  0.3909910000000 1.0
C      1  0.6019190000000  0.5336500000000  0.4909010000000 1.0
C      1  0.5056730000000  0.5946090000000  0.4701680000000 1.0
C      1  0.4723130000000  0.4481370000000  0.5221310000000 1.0
C      1  0.5106590000000  0.5796810000000  0.4959190000000 1.0
C      1  0.4244860000000  0.4888830000000  0.4214060000000 1.0
C      1  0.5177790000000  0.4115850000000  0.5447230000000 1.0
C      1  0.4805620000000  0.4822130000000  0.6002940000000 1.0
C      1  0.5051270000000  0.5252870000000  0.5923140000000 1.0
C      1  0.4560760000000  0.4994230000000  0.5996980000000 1.0
C      1  0.5509920000000  0.4084470000000  0.4750660000000 1.0
C      1  0.4064240000000  0.5055090000000  0.4700240000000 1.0
C      1  0.4169750000000  0.4881560000000  0.4494950000000 1.0
C      1  0.4601370000000  0.4456530000000  0.4197590000000 1.0
C      1  0.5184490000000  0.5794540000000  0.4274590000000 1.0
C      1  0.5557050000000  0.5078320000000  0.4643830000000 1.0
C      1  0.5158010000000  0.5959010000000  0.5245840000000 1.0
C      1  0.5670520000000  0.5031840000000  0.5731720000000 1.0
C      1  0.4287640000000  0.5608610000000  0.5324340000000 1.0
C      1  0.5393680000000  0.5864640000000  0.5386430000000 1.0
C      1  0.5700130000000  0.4397450000000  0.5363760000000 1.0
C      1  0.4538540000000  0.4223890000000  0.4428670000000 1.0
C      1  0.4893830000000  0.5832410000000  0.4296580000000 1.0
C      1  0.4984930000000  0.5034970000000  0.4550490000000 1.0
C      1  0.4668920000000  0.5656950000000  0.4215710000000 1.0
C      1  0.5436770000000  0.4829080000000  0.5259800000000 1.0
C      1  0.6023870000000  0.5198970000000  0.5169560000000 1.0
C      1  0.4947420000000  0.5622560000000  0.5500770000000 1.0
C      1  0.4919080000000  0.4764840000000  0.4432740000000 1.0
C      1  0.4910350000000  0.5358400000000  0.5153730000000 1.0
C      1  0.5628210000000  0.5570280000000  0.4575220000000 1.0
C      1  0.4050550000000  0.4556180000000  0.4972020000000 1.0
C      1  0.4728800000000  0.4797920000000  0.3968630000000 1.0
C      1  0.4253080000000  0.5327340000000  0.5722010000000 1.0
C      1  0.5283430000000  0.4311680000000  0.5647140000000 1.0
C      1  0.4293120000000  0.4253110000000  0.4596550000000 1.0
C      1  0.5449710000000  0.5059100000000  0.5510890000000 1.0
C      1  0.4421870000000  0.5455610000000  0.4824470000000 1.0
C      1  0.5133510000000  0.4606370000000  0.4937850000000 1.0
C      1  0.4470700000000  0.5375450000000  0.5257440000000 1.0
C      1  0.5998130000000  0.5283390000000  0.5453430000000 1.0
C      1  0.5864150000000  0.4872860000000  0.4360220000000 1.0
C      1  0.5806470000000  0.5433790000000  0.5597140000000 1.0
C      1  0.5377420000000  0.5716010000000  0.5633910000000 1.0
C      1  0.6075800000000  0.4848720000000  0.4830960000000 1.0
C      1  0.4565030000000  0.5082310000000  0.4357440000000 1.0
C      1  0.5219670000000  0.4048180000000  0.5160270000000 1.0
C      1  0.4719460000000  0.4026830000000  0.5068210000000 1.0
C      1  0.4692310000000  0.5408250000000  0.4710780000000 1.0
C      1  0.4672450000000  0.4992580000000  0.5603750000000 1.0
C      1  0.5043590000000  0.4994650000000  0.6052330000000 1.0
C      1  0.4114700000000  0.4593030000000  0.5535970000000 1.0
C      1  0.4526900000000  0.5828530000000  0.4630170000000 1.0
C      1  0.5325690000000  0.4686200000000  0.4437670000000 1.0
C      1  0.4635890000000  0.5519520000000  0.5832270000000 1.0
C      1  0.5210100000000  0.5301420000000  0.4191800000000 1.0
C      1  0.4968780000000  0.4885400000000  0.5532400000000 1.0
C      1  0.5938630000000  0.5025730000000  0.5603350000000 1.0
C      1  0.3962720000000  0.4905840000000  0.5158160000000 1.0
C      1  0.4825800000000  0.4549750000000  0.5873220000000 1.0
C      1  0.4415090000000  0.5828890000000  0.5180890000000 1.0
C      1  0.4180690000000  0.5325720000000  0.4674180000000 1.0
C      1  0.5987790000000  0.4905060000000  0.5143960000000 1.0
C      1  0.4598740000000  0.4401450000000  0.5734140000000 1.0
C      1  0.4614790000000  0.4154440000000  0.5553000000000 1.0
C      1  0.4837560000000  0.4537580000000  0.4043390000000 1.0
C      1  0.5156410000000  0.4596570000000  0.4019820000000 1.0
C      1  0.4471290000000  0.4854680000000  0.5759000000000 1.0
C      1  0.5350070000000  0.4587030000000  0.4719900000000 1.0
C      1  0.5313770000000  0.4934850000000  0.5926420000000 1.0
C      1  0.4776540000000  0.4309630000000  0.5002430000000 1.0
C      1  0.5129910000000  0.5246010000000  0.5283880000000 1.0
C      1  0.4835110000000  0.4523650000000  0.4812440000000 1.0
C      1  0.4924450000000  0.5014090000000  0.3876910000000 1.0
C      1  0.4336190000000  0.4291790000000  0.5132140000000 1.0
C      1  0.4325180000000  0.5210480000000  0.5046700000000 1.0
C      1  0.4267440000000  0.5412060000000  0.4410730000000 1.0
C      1  0.4698050000000  0.4850350000000  0.4263490000000 1.0
C      1  0.4793910000000  0.5566370000000  0.5264700000000 1.0
C      1  0.4271990000000  0.5604800000000  0.5618570000000 1.0
C      1  0.4424710000000  0.5758610000000  0.4893520000000 1.0
C      1  0.5690410000000  0.4228800000000  0.4605580000000 1.0
C      1  0.5584260000000  0.5517390000000  0.5752560000000 1.0
C      1  0.5596790000000  0.5449840000000  0.4264430000000 1.0
C      1  0.4014630000000  0.4639600000000  0.5253580000000 1.0
C      1  0.4198530000000  0.4315490000000  0.4872520000000 1.0
C      1  0.4528950000000  0.5737820000000  0.5652190000000 1.0
C      1  0.5097630000000  0.5681020000000  0.5713570000000 1.0
C      1  0.5729960000000  0.4548600000000  0.4959440000000 1.0
C      1  0.4481590000000  0.5275230000000  0.5887520000000 1.0
C      1  0.5251260000000  0.5201760000000  0.4475360000000 1.0
C      1  0.4829910000000  0.5787940000000  0.5077190000000 1.0
C      1  0.4732300000000  0.4077060000000  0.4560570000000 1.0
C      1  0.5643010000000  0.4888360000000  0.4168870000000 1.0
C      1  0.5707120000000  0.5582250000000  0.5069060000000 1.0
C      1  0.5674480000000  0.4847280000000  0.5048330000000 1.0
C      1  0.5949060000000  0.4794710000000  0.5433580000000 1.0
C      1  0.3989400000000  0.4843240000000  0.4892790000000 1.0
C      1  0.5340660000000  0.5561140000000  0.4173750000000 1.0
C      1  0.4442430000000  0.5654290000000  0.4404800000000 1.0
C      1  0.4467390000000  0.4554520000000  0.5121380000000 1.0
C      1  0.4908550000000  0.4150600000000  0.5554360000000 1.0
END
