TITL C-883735-9890-32 685171.032534772 125000 -6412.80975777057 0 0 45 (C1) n - 1
REM
REM in /home/nfs/bkarasulu/CARBON/AIRSS/Generating-Clusters/ReaxFF-fromJPCA2015/Units_Real/with-SteepDescent/Only-C1/SD-CG/Try1-3A/FIRE-CG
REM
REM
REM
REM
REM
REM ./C.cell (11c1c37f851c82e70ff6c80c92926a4b)
REM
REM compiler GCC version 9.2.1 20190827 (Red Hat 9.2.1-1)
REM options -cpp -mtune=generic -march=x86-64 -g -O0 -fpre-include=/usr/include/finclude/math-vector-fortran.h
REM seed 1081828612 1670320535 18089556 -792773656 -1607323115 1731596026 -276831762 1444834885 -1901119246 -1966930592 1841092642 -1339617387 1226343980 1175929060 1730703875 1283145386 810808819 -1781619891 1710093269 55281977 -592795901 -161139507 -727122802 -1472963496 1777241881 1393207535 -1210520728 -1658459479 1311685443 1768312742 2045388541 -756891955 177755027
REM
CELL 1.54180   50.00000   50.00000   50.00000   90.00000   90.00000   90.00000
LATT -1
SFAC C  
C      1  0.4976370000000  0.4860760000000  0.4860470000000 1.0
C      1  0.4426760000000  0.5323940000000  0.5224620000000 1.0
C      1  0.5234530000000  0.5362490000000  0.4382620000000 1.0
C      1  0.4771010000000  0.4488430000000  0.5091670000000 1.0
C      1  0.4221440000000  0.5039500000000  0.5014530000000 1.0
C      1  0.4617280000000  0.5280870000000  0.4795200000000 1.0
C      1  0.5111130000000  0.5228460000000  0.4776320000000 1.0
C      1  0.5281590000000  0.5347700000000  0.5271480000000 1.0
C      1  0.4362240000000  0.4627120000000  0.4882100000000 1.0
C      1  0.4733760000000  0.5386980000000  0.4515900000000 1.0
C      1  0.4753330000000  0.5561950000000  0.5228670000000 1.0
C      1  0.5088220000000  0.5018320000000  0.5598540000000 1.0
C      1  0.4999440000000  0.5483690000000  0.4483960000000 1.0
C      1  0.5158370000000  0.4972160000000  0.4662100000000 1.0
C      1  0.5133130000000  0.4388940000000  0.4744150000000 1.0
C      1  0.5023240000000  0.5204000000000  0.4175320000000 1.0
C      1  0.5037570000000  0.4158970000000  0.4653500000000 1.0
C      1  0.5258990000000  0.4562710000000  0.5462300000000 1.0
C      1  0.4814550000000  0.5095140000000  0.5514340000000 1.0
C      1  0.4767310000000  0.5227950000000  0.4289040000000 1.0
C      1  0.4951690000000  0.4592340000000  0.4905920000000 1.0
C      1  0.5358900000000  0.5386330000000  0.4785720000000 1.0
C      1  0.5121440000000  0.4732310000000  0.5658770000000 1.0
C      1  0.5472060000000  0.4704360000000  0.5306690000000 1.0
C      1  0.4835290000000  0.5375070000000  0.5434710000000 1.0
C      1  0.5511710000000  0.4700970000000  0.5036300000000 1.0
C      1  0.4390660000000  0.5046840000000  0.5271350000000 1.0
C      1  0.4991700000000  0.5363690000000  0.5174170000000 1.0
C      1  0.5436340000000  0.4460000000000  0.4706410000000 1.0
C      1  0.5689900000000  0.5273840000000  0.5179540000000 1.0
C      1  0.5433760000000  0.4947950000000  0.4585980000000 1.0
C      1  0.5450030000000  0.5237290000000  0.4547940000000 1.0
C      1  0.5786070000000  0.5101520000000  0.5324950000000 1.0
C      1  0.4730590000000  0.4635100000000  0.5333430000000 1.0
C      1  0.5319930000000  0.5141790000000  0.5472540000000 1.0
C      1  0.4518070000000  0.4504210000000  0.5001590000000 1.0
C      1  0.4359030000000  0.5129540000000  0.4780080000000 1.0
C      1  0.4552700000000  0.5479720000000  0.5030860000000 1.0
C      1  0.5472930000000  0.5411100000000  0.5061330000000 1.0
C      1  0.5558360000000  0.4723140000000  0.4754170000000 1.0
C      1  0.5562650000000  0.4973370000000  0.5439420000000 1.0
C      1  0.4968230000000  0.4550770000000  0.5492080000000 1.0
C      1  0.4884010000000  0.5141340000000  0.4937420000000 1.0
C      1  0.4239410000000  0.4854530000000  0.4778920000000 1.0
C      1  0.4634250000000  0.4912810000000  0.5372870000000 1.0
END
