TITL C-883741-3679-278 0.422122618641975 125000 -9495.31155463233 0 0 64 (C1) n - 1
REM
REM in /home/nfs/bkarasulu/CARBON/AIRSS/Generating-Clusters/ReaxFF-fromJPCA2015/Units_Real/with-SteepDescent/Only-C1/SD-CG/Try1-3A/FIRE-CG
REM
REM
REM
REM
REM
REM ./C.cell (11c1c37f851c82e70ff6c80c92926a4b)
REM
REM compiler GCC version 9.2.1 20190827 (Red Hat 9.2.1-1)
REM options -cpp -mtune=generic -march=x86-64 -g -O0 -fpre-include=/usr/include/finclude/math-vector-fortran.h
REM seed -1871225782 -2019132234 575426268 -95348952 1913214743 -299516733 27574623 1121169230 1009009442 -1708785655 1740477997 -641872196 991300241 1430783401 331763576 -857730357 -661437067 1735723301 1357095556 2030638942 -468944508 188756141 1624665606 -634482719 -41087928 1597627480 -1332037045 1644045755 -1544013131 -543942341 -1676393766 326860164 -1581101449
REM
CELL 1.54180   50.00000   50.00000   50.00000   90.00000   90.00000   90.00000
LATT -1
SFAC C  
C      1  0.5667230000000  0.4639300000000  0.5241010000000 1.0
C      1  0.5112070000000  0.4691880000000  0.5707680000000 1.0
C      1  0.5590400000000  0.5137700000000  0.4396260000000 1.0
C      1  0.5176980000000  0.4498570000000  0.4549690000000 1.0
C      1  0.4683390000000  0.4297080000000  0.4714040000000 1.0
C      1  0.4775930000000  0.4184680000000  0.4970710000000 1.0
C      1  0.5422590000000  0.5370630000000  0.4466400000000 1.0
C      1  0.5379580000000  0.4774800000000  0.5619780000000 1.0
C      1  0.5546680000000  0.5395090000000  0.4712450000000 1.0
C      1  0.4825550000000  0.5259770000000  0.4816970000000 1.0
C      1  0.4950190000000  0.4351800000000  0.5397680000000 1.0
C      1  0.4988860000000  0.5018740000000  0.4763850000000 1.0
C      1  0.5241100000000  0.5627810000000  0.5365430000000 1.0
C      1  0.5543250000000  0.5058090000000  0.5166320000000 1.0
C      1  0.4598580000000  0.4729360000000  0.5462500000000 1.0
C      1  0.5054350000000  0.4171190000000  0.4861480000000 1.0
C      1  0.5341970000000  0.5277540000000  0.5549890000000 1.0
C      1  0.4500040000000  0.4999490000000  0.5416000000000 1.0
C      1  0.4849050000000  0.5743380000000  0.5082590000000 1.0
C      1  0.5048350000000  0.4940010000000  0.4281340000000 1.0
C      1  0.4714770000000  0.4316250000000  0.5225080000000 1.0
C      1  0.5033910000000  0.4731200000000  0.5240760000000 1.0
C      1  0.4938780000000  0.5209230000000  0.4352710000000 1.0
C      1  0.5458810000000  0.4878110000000  0.4545390000000 1.0
C      1  0.4484670000000  0.4511230000000  0.4729470000000 1.0
C      1  0.4909430000000  0.4525580000000  0.5621720000000 1.0
C      1  0.4825220000000  0.5728530000000  0.4784760000000 1.0
C      1  0.4540880000000  0.4552940000000  0.5234270000000 1.0
C      1  0.5527690000000  0.5527210000000  0.4910580000000 1.0
C      1  0.5475330000000  0.5468570000000  0.5369070000000 1.0
C      1  0.4425670000000  0.4641270000000  0.4976670000000 1.0
C      1  0.4592690000000  0.5366620000000  0.4661800000000 1.0
C      1  0.4552360000000  0.5280580000000  0.5503800000000 1.0
C      1  0.5122490000000  0.5415280000000  0.4452480000000 1.0
C      1  0.4428320000000  0.5469950000000  0.5309900000000 1.0
C      1  0.4814160000000  0.5188480000000  0.5098170000000 1.0
C      1  0.5308240000000  0.5056220000000  0.5006840000000 1.0
C      1  0.5150740000000  0.4475100000000  0.5217850000000 1.0
C      1  0.4966870000000  0.4302520000000  0.4612040000000 1.0
C      1  0.4208340000000  0.5168910000000  0.4921850000000 1.0
C      1  0.4680230000000  0.5624550000000  0.5303760000000 1.0
C      1  0.5677250000000  0.4802070000000  0.5020310000000 1.0
C      1  0.5226940000000  0.4734480000000  0.4384070000000 1.0
C      1  0.5049020000000  0.4979460000000  0.5087020000000 1.0
C      1  0.4251920000000  0.5410850000000  0.5076300000000 1.0
C      1  0.4524160000000  0.4958060000000  0.4571970000000 1.0
C      1  0.5385020000000  0.4489430000000  0.4761310000000 1.0
C      1  0.5272440000000  0.5657110000000  0.4881410000000 1.0
C      1  0.5075640000000  0.5618600000000  0.4659290000000 1.0
C      1  0.5577770000000  0.4703030000000  0.4768120000000 1.0
C      1  0.5093660000000  0.5444490000000  0.5530090000000 1.0
C      1  0.4570070000000  0.5043250000000  0.5134660000000 1.0
C      1  0.4909530000000  0.4793120000000  0.5515600000000 1.0
C      1  0.5560150000000  0.4630830000000  0.5461940000000 1.0
C      1  0.5136230000000  0.5724110000000  0.5123440000000 1.0
C      1  0.5261570000000  0.4341010000000  0.4982180000000 1.0
C      1  0.5436880000000  0.5020310000000  0.5465580000000 1.0
C      1  0.4803750000000  0.5443030000000  0.5500780000000 1.0
C      1  0.5598280000000  0.5362220000000  0.5126090000000 1.0
C      1  0.4649160000000  0.5191560000000  0.4437340000000 1.0
C      1  0.4479680000000  0.4691090000000  0.4472570000000 1.0
C      1  0.5271090000000  0.5024220000000  0.4734990000000 1.0
C      1  0.4409190000000  0.4936550000000  0.4895050000000 1.0
C      1  0.4324850000000  0.5395910000000  0.4788850000000 1.0
END
