TITL C-883738-3659-116 -8.32499066855776 125000 -13152.5253770813 0 0 89 (C1) n - 1
REM
REM in /home/nfs/bkarasulu/CARBON/AIRSS/Generating-Clusters/ReaxFF-fromJPCA2015/Units_Real/with-SteepDescent/Only-C1/SD-CG/Try1-3A/FIRE-CG
REM
REM
REM
REM
REM
REM ./C.cell (11c1c37f851c82e70ff6c80c92926a4b)
REM
REM compiler GCC version 9.2.1 20190827 (Red Hat 9.2.1-1)
REM options -cpp -mtune=generic -march=x86-64 -g -O0 -fpre-include=/usr/include/finclude/math-vector-fortran.h
REM seed -1962893632 -1454753135 1289356119 971077865 -1727190123 -424027103 1539043826 -75839278 -1809244372 1107689584 -333952276 921629484 1582586314 1854494895 525395713 -1132121362 851198471 1712190908 2143945541 -1000814308 -395788092 1375676913 -1550449948 -2103975276 -308446821 -2039358675 1033591444 -284574826 327141226 -1972863242 -1700626359 1518084236 -1107215908
REM
CELL 1.54180   50.00000   50.00000   50.00000   90.00000   90.00000   90.00000
LATT -1
SFAC C  
C      1  0.5087690000000  0.5689870000000  0.4667090000000 1.0
C      1  0.5091920000000  0.5707890000000  0.5459790000000 1.0
C      1  0.5260640000000  0.4590060000000  0.5675160000000 1.0
C      1  0.4849090000000  0.4922140000000  0.5796600000000 1.0
C      1  0.5009560000000  0.5171360000000  0.5781120000000 1.0
C      1  0.4715800000000  0.4255380000000  0.4785120000000 1.0
C      1  0.5692650000000  0.4772830000000  0.5436830000000 1.0
C      1  0.5561520000000  0.5193280000000  0.4494830000000 1.0
C      1  0.5119790000000  0.4197110000000  0.5117560000000 1.0
C      1  0.5632230000000  0.4416240000000  0.5119320000000 1.0
C      1  0.5506920000000  0.4744310000000  0.5658730000000 1.0
C      1  0.4900320000000  0.4924910000000  0.4170350000000 1.0
C      1  0.5010920000000  0.4666440000000  0.5823610000000 1.0
C      1  0.5194240000000  0.4765800000000  0.4660410000000 1.0
C      1  0.4510910000000  0.5740920000000  0.4703830000000 1.0
C      1  0.4139110000000  0.4906550000000  0.5031360000000 1.0
C      1  0.4956460000000  0.4152000000000  0.4872580000000 1.0
C      1  0.5597230000000  0.4815260000000  0.5186580000000 1.0
C      1  0.5681050000000  0.4490280000000  0.4819500000000 1.0
C      1  0.4911830000000  0.5165400000000  0.4707220000000 1.0
C      1  0.4815420000000  0.5000280000000  0.5094740000000 1.0
C      1  0.5478740000000  0.5468850000000  0.4483400000000 1.0
C      1  0.4496380000000  0.5230100000000  0.4936530000000 1.0
C      1  0.4273210000000  0.5338720000000  0.5265960000000 1.0
C      1  0.5049500000000  0.5330160000000  0.4299170000000 1.0
C      1  0.5664280000000  0.5440600000000  0.5601580000000 1.0
C      1  0.5324630000000  0.4929230000000  0.5126770000000 1.0
C      1  0.5258630000000  0.5153460000000  0.5614170000000 1.0
C      1  0.4903020000000  0.5265880000000  0.4991580000000 1.0
C      1  0.5428360000000  0.5006320000000  0.4322560000000 1.0
C      1  0.4269180000000  0.5315530000000  0.4768910000000 1.0
C      1  0.5531340000000  0.5673790000000  0.4669890000000 1.0
C      1  0.4208850000000  0.4984910000000  0.4545030000000 1.0
C      1  0.5632730000000  0.5237790000000  0.5750270000000 1.0
C      1  0.5203250000000  0.5651740000000  0.5207050000000 1.0
C      1  0.5254810000000  0.5160980000000  0.5317000000000 1.0
C      1  0.5021310000000  0.4806760000000  0.5030620000000 1.0
C      1  0.4213370000000  0.4621650000000  0.4972840000000 1.0
C      1  0.4807570000000  0.5729030000000  0.4742270000000 1.0
C      1  0.5731090000000  0.5165000000000  0.5042750000000 1.0
C      1  0.5334740000000  0.4293270000000  0.4543030000000 1.0
C      1  0.4987680000000  0.4249010000000  0.5372410000000 1.0
C      1  0.4763680000000  0.4471530000000  0.5353210000000 1.0
C      1  0.4274650000000  0.5604790000000  0.4821980000000 1.0
C      1  0.5290630000000  0.4567160000000  0.4459790000000 1.0
C      1  0.5683170000000  0.5440160000000  0.5098520000000 1.0
C      1  0.5525820000000  0.4734350000000  0.4409750000000 1.0
C      1  0.4089610000000  0.5070060000000  0.4783800000000 1.0
C      1  0.5793710000000  0.4992220000000  0.5263600000000 1.0
C      1  0.4536490000000  0.4344340000000  0.4598170000000 1.0
C      1  0.5687010000000  0.4735570000000  0.4654170000000 1.0
C      1  0.5161310000000  0.5074560000000  0.4217600000000 1.0
C      1  0.4798740000000  0.4667630000000  0.4222270000000 1.0
C      1  0.5138500000000  0.4319550000000  0.5616990000000 1.0
C      1  0.5408270000000  0.4232130000000  0.5037010000000 1.0
C      1  0.5312960000000  0.5753000000000  0.4850390000000 1.0
C      1  0.4416350000000  0.4553570000000  0.4757960000000 1.0
C      1  0.5377810000000  0.5683190000000  0.5436480000000 1.0
C      1  0.4626500000000  0.5597110000000  0.5329120000000 1.0
C      1  0.4246400000000  0.5045460000000  0.5268170000000 1.0
C      1  0.4958260000000  0.4324150000000  0.4388570000000 1.0
C      1  0.5470340000000  0.5012410000000  0.5775690000000 1.0
C      1  0.4924080000000  0.4375320000000  0.5829980000000 1.0
C      1  0.5362060000000  0.4938180000000  0.4826170000000 1.0
C      1  0.5505250000000  0.4264810000000  0.4755310000000 1.0
C      1  0.4448390000000  0.4913380000000  0.4420370000000 1.0
C      1  0.5636850000000  0.5035360000000  0.4751450000000 1.0
C      1  0.4483130000000  0.5792630000000  0.5166330000000 1.0
C      1  0.4490030000000  0.4613080000000  0.5437120000000 1.0
C      1  0.5632580000000  0.5570950000000  0.5363020000000 1.0
C      1  0.4632310000000  0.5881780000000  0.4925480000000 1.0
C      1  0.5131720000000  0.5362130000000  0.5154840000000 1.0
C      1  0.4317410000000  0.4577060000000  0.5227330000000 1.0
C      1  0.5077890000000  0.4164610000000  0.4590290000000 1.0
C      1  0.5195650000000  0.5533680000000  0.4446600000000 1.0
C      1  0.4841890000000  0.5572260000000  0.5525840000000 1.0
C      1  0.4701720000000  0.4420520000000  0.4329740000000 1.0
C      1  0.4639570000000  0.5044170000000  0.5629040000000 1.0
C      1  0.4804520000000  0.5264810000000  0.4452900000000 1.0
C      1  0.4897480000000  0.4617770000000  0.5201610000000 1.0
C      1  0.4261050000000  0.5605970000000  0.5115230000000 1.0
C      1  0.4663690000000  0.5067310000000  0.4287370000000 1.0
C      1  0.4583770000000  0.4964660000000  0.4927490000000 1.0
C      1  0.4560850000000  0.5328130000000  0.5209570000000 1.0
C      1  0.5585610000000  0.5648200000000  0.4922990000000 1.0
C      1  0.4583150000000  0.4790070000000  0.4676840000000 1.0
C      1  0.4790570000000  0.5313620000000  0.5652960000000 1.0
C      1  0.4927340000000  0.4868670000000  0.4707530000000 1.0
C      1  0.4443250000000  0.4906830000000  0.5457260000000 1.0
END
