TITL C-884128-4793-265 31.4389031149504 125000 -25495.4350868563 0 0 170 (C1) n - 1
REM
REM in /home/nfs/bkarasulu/CARBON/AIRSS/Generating-Clusters/ReaxFF-fromJPCA2015/Units_Real/with-SteepDescent/Only-C1/SD-CG/Try1-3A/FIRE-CG
REM
REM
REM
REM
REM
REM ./C.cell (11c1c37f851c82e70ff6c80c92926a4b)
REM
REM compiler GCC version 9.2.1 20190827 (Red Hat 9.2.1-1)
REM options -cpp -mtune=generic -march=x86-64 -g -O0 -fpre-include=/usr/include/finclude/math-vector-fortran.h
REM seed 237157668 532891470 -1563247186 398258807 -1484334155 744655572 -112813903 -214933950 -182399428 -178043379 -1829128684 755690278 -374819411 1047672087 453664729 -204239240 -1826564765 474487124 -292155993 -1586040990 1012249491 -1857798147 2130700207 -1885081451 -1616307455 827537325 350689118 441560006 1918736852 1659845037 -1952556681 1506289398 -488448637
REM
CELL 1.54180   50.00000   50.00000   50.00000   90.00000   90.00000   90.00000
LATT -1
SFAC C  
C      1  0.3916520000000  0.5099170000000  0.5381370000000 1.0
C      1  0.3874050000000  0.4931440000000  0.5161480000000 1.0
C      1  0.5009400000000  0.5200320000000  0.5079000000000 1.0
C      1  0.4153820000000  0.4740410000000  0.5633340000000 1.0
C      1  0.5722350000000  0.5352650000000  0.5680450000000 1.0
C      1  0.4567620000000  0.5668930000000  0.5481200000000 1.0
C      1  0.4789790000000  0.4125150000000  0.5545210000000 1.0
C      1  0.4865330000000  0.4689400000000  0.4598850000000 1.0
C      1  0.5895400000000  0.4334780000000  0.5181070000000 1.0
C      1  0.4324700000000  0.4954090000000  0.4346010000000 1.0
C      1  0.4182900000000  0.5716340000000  0.4426420000000 1.0
C      1  0.5714660000000  0.4330270000000  0.4468520000000 1.0
C      1  0.5098620000000  0.6075090000000  0.4685930000000 1.0
C      1  0.4851250000000  0.5315450000000  0.5506420000000 1.0
C      1  0.4608770000000  0.5871680000000  0.4568060000000 1.0
C      1  0.4992490000000  0.4556190000000  0.5201400000000 1.0
C      1  0.4944270000000  0.4642540000000  0.3803720000000 1.0
C      1  0.4242260000000  0.5170080000000  0.4514830000000 1.0
C      1  0.5558630000000  0.5842060000000  0.5478660000000 1.0
C      1  0.5401630000000  0.5129700000000  0.4019270000000 1.0
C      1  0.5891420000000  0.5239260000000  0.5452880000000 1.0
C      1  0.4550850000000  0.5351280000000  0.5147790000000 1.0
C      1  0.4070040000000  0.5633310000000  0.4692530000000 1.0
C      1  0.5293110000000  0.5583180000000  0.4849100000000 1.0
C      1  0.4566640000000  0.5357330000000  0.5859080000000 1.0
C      1  0.5122170000000  0.6053870000000  0.5241000000000 1.0
C      1  0.5392070000000  0.5150850000000  0.4658440000000 1.0
C      1  0.4008710000000  0.5433440000000  0.4893360000000 1.0
C      1  0.5362440000000  0.5405120000000  0.5346520000000 1.0
C      1  0.5127920000000  0.5766570000000  0.5665630000000 1.0
C      1  0.5196430000000  0.4958960000000  0.4758970000000 1.0
C      1  0.5426330000000  0.5000640000000  0.5975030000000 1.0
C      1  0.5490050000000  0.4354620000000  0.5737540000000 1.0
C      1  0.5807320000000  0.4605570000000  0.4406260000000 1.0
C      1  0.4786410000000  0.5245650000000  0.5251660000000 1.0
C      1  0.4990750000000  0.4123710000000  0.4320490000000 1.0
C      1  0.4824130000000  0.5181210000000  0.6225440000000 1.0
C      1  0.4018070000000  0.4551650000000  0.4823840000000 1.0
C      1  0.5182560000000  0.4404500000000  0.5077550000000 1.0
C      1  0.5340530000000  0.5641390000000  0.5825140000000 1.0
C      1  0.4621960000000  0.4116970000000  0.4658070000000 1.0
C      1  0.5699710000000  0.4525200000000  0.5840770000000 1.0
C      1  0.4940950000000  0.3982580000000  0.5063530000000 1.0
C      1  0.5018360000000  0.5048200000000  0.5857400000000 1.0
C      1  0.4885230000000  0.5666440000000  0.4089580000000 1.0
C      1  0.4091220000000  0.5022990000000  0.5597270000000 1.0
C      1  0.4335540000000  0.4648020000000  0.5854060000000 1.0
C      1  0.4907380000000  0.5588910000000  0.5514210000000 1.0
C      1  0.5439210000000  0.4038200000000  0.5478670000000 1.0
C      1  0.5669580000000  0.4857340000000  0.5608880000000 1.0
C      1  0.5273520000000  0.5932420000000  0.5479780000000 1.0
C      1  0.5311670000000  0.5415550000000  0.6006800000000 1.0
C      1  0.5484060000000  0.5581180000000  0.4221640000000 1.0
C      1  0.5041090000000  0.5453510000000  0.3961870000000 1.0
C      1  0.5158540000000  0.4881670000000  0.6070400000000 1.0
C      1  0.4229420000000  0.4191390000000  0.5053930000000 1.0
C      1  0.4188130000000  0.4328350000000  0.5298350000000 1.0
C      1  0.5419850000000  0.4541140000000  0.4108280000000 1.0
C      1  0.5222340000000  0.4969340000000  0.5245730000000 1.0
C      1  0.4033650000000  0.4696650000000  0.5103440000000 1.0
C      1  0.5021730000000  0.5726900000000  0.4366810000000 1.0
C      1  0.4260350000000  0.5261610000000  0.5594650000000 1.0
C      1  0.5469020000000  0.4801980000000  0.5173070000000 1.0
C      1  0.4797170000000  0.4063370000000  0.4447570000000 1.0
C      1  0.5948370000000  0.4786400000000  0.4589460000000 1.0
C      1  0.6014200000000  0.4706250000000  0.4866610000000 1.0
C      1  0.5949970000000  0.4721470000000  0.5301530000000 1.0
C      1  0.4242240000000  0.4691640000000  0.4376870000000 1.0
C      1  0.5916520000000  0.5679150000000  0.4831830000000 1.0
C      1  0.5598810000000  0.5612680000000  0.5681900000000 1.0
C      1  0.4306970000000  0.5413110000000  0.5818330000000 1.0
C      1  0.4466760000000  0.4820020000000  0.6032640000000 1.0
C      1  0.4816200000000  0.5293400000000  0.3881320000000 1.0
C      1  0.4402810000000  0.4296760000000  0.4582180000000 1.0
C      1  0.5450150000000  0.4393700000000  0.4353530000000 1.0
C      1  0.4441490000000  0.5161200000000  0.4724100000000 1.0
C      1  0.4593660000000  0.4509310000000  0.5787780000000 1.0
C      1  0.5033410000000  0.4368220000000  0.5922090000000 1.0
C      1  0.3941200000000  0.4938850000000  0.4678870000000 1.0
C      1  0.4604620000000  0.4491210000000  0.5311560000000 1.0
C      1  0.5231610000000  0.4460730000000  0.5722550000000 1.0
C      1  0.4570290000000  0.5925580000000  0.5325010000000 1.0
C      1  0.5052590000000  0.4813440000000  0.4256880000000 1.0
C      1  0.4526140000000  0.5734600000000  0.4816160000000 1.0
C      1  0.4340310000000  0.5431660000000  0.5336770000000 1.0
C      1  0.5217060000000  0.5246440000000  0.4441870000000 1.0
C      1  0.5350290000000  0.5976260000000  0.4563870000000 1.0
C      1  0.5947080000000  0.5070790000000  0.4526150000000 1.0
C      1  0.5909240000000  0.5545920000000  0.4562160000000 1.0
C      1  0.5213000000000  0.6056220000000  0.4956590000000 1.0
C      1  0.4458170000000  0.5764990000000  0.4337280000000 1.0
C      1  0.5180600000000  0.5064640000000  0.4204630000000 1.0
C      1  0.5643860000000  0.5002890000000  0.4125650000000 1.0
C      1  0.4088100000000  0.4566710000000  0.5402960000000 1.0
C      1  0.5678220000000  0.4775040000000  0.5350700000000 1.0
C      1  0.4744120000000  0.5152950000000  0.5699620000000 1.0
C      1  0.5557720000000  0.5359740000000  0.5126420000000 1.0
C      1  0.4487010000000  0.4089010000000  0.5140200000000 1.0
C      1  0.5065300000000  0.4755840000000  0.5375100000000 1.0
C      1  0.5641600000000  0.4714330000000  0.4184990000000 1.0
C      1  0.5548460000000  0.5256770000000  0.5920250000000 1.0
C      1  0.4999340000000  0.5429280000000  0.4507080000000 1.0
C      1  0.5382760000000  0.4547710000000  0.4586260000000 1.0
C      1  0.3986920000000  0.5212510000000  0.4676140000000 1.0
C      1  0.5324760000000  0.4107140000000  0.4716590000000 1.0
C      1  0.5041040000000  0.5287550000000  0.6019790000000 1.0
C      1  0.4322250000000  0.4813040000000  0.5079130000000 1.0
C      1  0.4408480000000  0.5179740000000  0.3868500000000 1.0
C      1  0.4490980000000  0.5622680000000  0.5755950000000 1.0
C      1  0.4594460000000  0.4983710000000  0.4266170000000 1.0
C      1  0.5077180000000  0.4607880000000  0.6063400000000 1.0
C      1  0.4006550000000  0.4690630000000  0.4567280000000 1.0
C      1  0.4744850000000  0.4561180000000  0.5081340000000 1.0
C      1  0.5155810000000  0.4699910000000  0.4654140000000 1.0
C      1  0.5324590000000  0.5792410000000  0.4344070000000 1.0
C      1  0.5805700000000  0.4140320000000  0.5351920000000 1.0
C      1  0.4095790000000  0.5123580000000  0.5173130000000 1.0
C      1  0.4690990000000  0.4702300000000  0.4831720000000 1.0
C      1  0.5118490000000  0.4154120000000  0.4939130000000 1.0
C      1  0.4832330000000  0.6068660000000  0.5282760000000 1.0
C      1  0.5117090000000  0.4576260000000  0.4080390000000 1.0
C      1  0.4571190000000  0.4226690000000  0.5378210000000 1.0
C      1  0.6034340000000  0.5305460000000  0.4680430000000 1.0
C      1  0.5425880000000  0.5869000000000  0.4845770000000 1.0
C      1  0.5789410000000  0.5180190000000  0.4305270000000 1.0
C      1  0.5482480000000  0.5364150000000  0.4838360000000 1.0
C      1  0.5178960000000  0.3993600000000  0.5465230000000 1.0
C      1  0.4644180000000  0.4648850000000  0.5533570000000 1.0
C      1  0.5412810000000  0.4551910000000  0.5053390000000 1.0
C      1  0.4196950000000  0.4331060000000  0.4790090000000 1.0
C      1  0.5726120000000  0.5463810000000  0.4345870000000 1.0
C      1  0.4953310000000  0.5094560000000  0.4831440000000 1.0
C      1  0.4084040000000  0.5400670000000  0.5173080000000 1.0
C      1  0.4938190000000  0.3950380000000  0.5354880000000 1.0
C      1  0.5727970000000  0.5860210000000  0.4969000000000 1.0
C      1  0.4417580000000  0.4958720000000  0.5302670000000 1.0
C      1  0.4426260000000  0.4471650000000  0.4346010000000 1.0
C      1  0.4649400000000  0.4478920000000  0.4148510000000 1.0
C      1  0.6094950000000  0.4873320000000  0.5095540000000 1.0
C      1  0.4840600000000  0.5326150000000  0.4704880000000 1.0
C      1  0.5169070000000  0.4726670000000  0.5637390000000 1.0
C      1  0.5881330000000  0.4453530000000  0.4921620000000 1.0
C      1  0.4781170000000  0.4281490000000  0.5789250000000 1.0
C      1  0.4696100000000  0.4681730000000  0.3931630000000 1.0
C      1  0.4599020000000  0.5658910000000  0.4100580000000 1.0
C      1  0.4912370000000  0.4361100000000  0.4179720000000 1.0
C      1  0.5388550000000  0.4945010000000  0.5673390000000 1.0
C      1  0.5839210000000  0.5349390000000  0.5184220000000 1.0
C      1  0.4711300000000  0.4065990000000  0.4944040000000 1.0
C      1  0.6010270000000  0.5427860000000  0.4952290000000 1.0
C      1  0.5297910000000  0.5153190000000  0.5462560000000 1.0
C      1  0.4471480000000  0.4889700000000  0.4836780000000 1.0
C      1  0.5337350000000  0.5413670000000  0.4021810000000 1.0
C      1  0.4564850000000  0.5409390000000  0.4848450000000 1.0
C      1  0.5671290000000  0.5848010000000  0.5229240000000 1.0
C      1  0.4568180000000  0.5439930000000  0.3895180000000 1.0
C      1  0.4593260000000  0.4933630000000  0.5514730000000 1.0
C      1  0.4624010000000  0.4992080000000  0.6150320000000 1.0
C      1  0.4641640000000  0.5007480000000  0.3970150000000 1.0
C      1  0.5604250000000  0.4223710000000  0.4721770000000 1.0
C      1  0.5193230000000  0.4104310000000  0.4488130000000 1.0
C      1  0.5814730000000  0.4724740000000  0.5819540000000 1.0
C      1  0.5121930000000  0.5576550000000  0.5296690000000 1.0
C      1  0.5083950000000  0.5500600000000  0.5023090000000 1.0
C      1  0.4887540000000  0.5940680000000  0.4535870000000 1.0
C      1  0.4808360000000  0.4843910000000  0.4379250000000 1.0
C      1  0.6040410000000  0.4998260000000  0.5359210000000 1.0
C      1  0.5567420000000  0.4487100000000  0.4830480000000 1.0
C      1  0.4552870000000  0.5854710000000  0.5056640000000 1.0
C      1  0.5591690000000  0.4281080000000  0.5458290000000 1.0
END
