TITL C-884139-6216-120 84.8667056687657 125000 -28488.6537518088 0 0 190 (C1) n - 1
REM
REM in /home/nfs/bkarasulu/CARBON/AIRSS/Generating-Clusters/ReaxFF-fromJPCA2015/Units_Real/with-SteepDescent/Only-C1/SD-CG/Try1-3A/FIRE-CG
REM
REM
REM
REM
REM
REM ./C.cell (11c1c37f851c82e70ff6c80c92926a4b)
REM
REM compiler GCC version 9.2.1 20190827 (Red Hat 9.2.1-1)
REM options -cpp -mtune=generic -march=x86-64 -g -O0 -fpre-include=/usr/include/finclude/math-vector-fortran.h
REM seed 879867886 -261439394 850003485 670580885 1423612168 -346840981 -806007915 494041758 1918554928 -1998166543 -1671516157 1708289004 1749378351 -607707825 -576308500 1821696012 79386342 -1709992829 -1864496763 1084204987 1176859629 -937539602 155307502 56791548 381945148 -1041775368 708619971 -1710450237 -977184797 2085055190 1419208042 654899077 419016388
REM
CELL 1.54180   50.00000   50.00000   50.00000   90.00000   90.00000   90.00000
LATT -1
SFAC C  
C      1  0.4829200000000  0.5721010000000  0.4151800000000 1.0
C      1  0.5625090000000  0.4591340000000  0.5815840000000 1.0
C      1  0.5633180000000  0.5090630000000  0.4659140000000 1.0
C      1  0.4448710000000  0.5607720000000  0.5934580000000 1.0
C      1  0.5822010000000  0.4920280000000  0.4142280000000 1.0
C      1  0.4697570000000  0.3954980000000  0.4486090000000 1.0
C      1  0.4107700000000  0.5186390000000  0.4860700000000 1.0
C      1  0.4709280000000  0.3739570000000  0.5022150000000 1.0
C      1  0.5138650000000  0.3935760000000  0.5414020000000 1.0
C      1  0.4406760000000  0.4865790000000  0.4177650000000 1.0
C      1  0.4682630000000  0.5473110000000  0.4508350000000 1.0
C      1  0.5608600000000  0.5250520000000  0.5962320000000 1.0
C      1  0.5740560000000  0.5203460000000  0.4099000000000 1.0
C      1  0.5765430000000  0.4285380000000  0.5207000000000 1.0
C      1  0.5092680000000  0.4179940000000  0.4686010000000 1.0
C      1  0.4270330000000  0.5841380000000  0.5151070000000 1.0
C      1  0.5514070000000  0.6130540000000  0.4755870000000 1.0
C      1  0.5421900000000  0.3988080000000  0.5073110000000 1.0
C      1  0.4282110000000  0.5129610000000  0.4191400000000 1.0
C      1  0.5798450000000  0.5393250000000  0.4312080000000 1.0
C      1  0.4009500000000  0.5252760000000  0.5440940000000 1.0
C      1  0.4277940000000  0.4660880000000  0.4372960000000 1.0
C      1  0.4796950000000  0.5773620000000  0.5647670000000 1.0
C      1  0.3920350000000  0.5020540000000  0.5012340000000 1.0
C      1  0.5658580000000  0.5072800000000  0.5300750000000 1.0
C      1  0.4113260000000  0.5234530000000  0.5711930000000 1.0
C      1  0.5236760000000  0.4701540000000  0.4132510000000 1.0
C      1  0.4892270000000  0.4409650000000  0.5373690000000 1.0
C      1  0.5691850000000  0.5716400000000  0.4686090000000 1.0
C      1  0.5124100000000  0.5210770000000  0.5235740000000 1.0
C      1  0.5291730000000  0.5352500000000  0.4433180000000 1.0
C      1  0.6057360000000  0.4759350000000  0.5199550000000 1.0
C      1  0.4758090000000  0.5753580000000  0.4572670000000 1.0
C      1  0.5228890000000  0.6107400000000  0.4722190000000 1.0
C      1  0.4799390000000  0.5594120000000  0.5404240000000 1.0
C      1  0.4636320000000  0.5303500000000  0.4727590000000 1.0
C      1  0.5789480000000  0.5325730000000  0.5343590000000 1.0
C      1  0.5541760000000  0.4997790000000  0.5562880000000 1.0
C      1  0.5164010000000  0.4955640000000  0.6050050000000 1.0
C      1  0.5358630000000  0.4122580000000  0.4312570000000 1.0
C      1  0.5936770000000  0.5040090000000  0.4740510000000 1.0
C      1  0.4741940000000  0.5007890000000  0.4691260000000 1.0
C      1  0.4503900000000  0.4911110000000  0.5934970000000 1.0
C      1  0.4273350000000  0.4993070000000  0.5739780000000 1.0
C      1  0.3834500000000  0.4624890000000  0.4708620000000 1.0
C      1  0.4622920000000  0.4516830000000  0.4652190000000 1.0
C      1  0.5224010000000  0.5557280000000  0.4665660000000 1.0
C      1  0.5377870000000  0.4577870000000  0.5176590000000 1.0
C      1  0.4031580000000  0.4839420000000  0.5733800000000 1.0
C      1  0.6095350000000  0.5016230000000  0.5281840000000 1.0
C      1  0.4030790000000  0.5079380000000  0.4605140000000 1.0
C      1  0.4762530000000  0.4200920000000  0.5594650000000 1.0
C      1  0.4460990000000  0.3911470000000  0.4928040000000 1.0
C      1  0.5503060000000  0.5950030000000  0.5563190000000 1.0
C      1  0.5351890000000  0.4500360000000  0.5901150000000 1.0
C      1  0.4941840000000  0.5801470000000  0.4988500000000 1.0
C      1  0.4864190000000  0.4978780000000  0.3941040000000 1.0
C      1  0.5060500000000  0.4611960000000  0.5516010000000 1.0
C      1  0.5329100000000  0.4824960000000  0.5040750000000 1.0
C      1  0.4601210000000  0.4775840000000  0.5019910000000 1.0
C      1  0.4123650000000  0.5481260000000  0.4804110000000 1.0
C      1  0.5975240000000  0.5669140000000  0.4681920000000 1.0
C      1  0.5849040000000  0.4779020000000  0.5769290000000 1.0
C      1  0.5405840000000  0.4980270000000  0.3869200000000 1.0
C      1  0.4657960000000  0.4791150000000  0.4034340000000 1.0
C      1  0.5001920000000  0.6164970000000  0.5447240000000 1.0
C      1  0.4397300000000  0.4733780000000  0.5210470000000 1.0
C      1  0.4989140000000  0.5490030000000  0.4030320000000 1.0
C      1  0.5532390000000  0.5464070000000  0.5442730000000 1.0
C      1  0.4760240000000  0.3789600000000  0.5288890000000 1.0
C      1  0.4418850000000  0.4982060000000  0.5428060000000 1.0
C      1  0.3951180000000  0.4764500000000  0.5475020000000 1.0
C      1  0.5352710000000  0.5243200000000  0.5570780000000 1.0
C      1  0.5533160000000  0.5242760000000  0.4869710000000 1.0
C      1  0.6029740000000  0.5452160000000  0.4486360000000 1.0
C      1  0.4945770000000  0.5870470000000  0.4377040000000 1.0
C      1  0.5218640000000  0.6009050000000  0.5598330000000 1.0
C      1  0.4794810000000  0.5132310000000  0.5605490000000 1.0
C      1  0.4313360000000  0.4242260000000  0.5339210000000 1.0
C      1  0.5322860000000  0.4151540000000  0.5508050000000 1.0
C      1  0.5494060000000  0.5532370000000  0.5889550000000 1.0
C      1  0.5997980000000  0.4777240000000  0.4639850000000 1.0
C      1  0.5361570000000  0.4192180000000  0.4843810000000 1.0
C      1  0.4053750000000  0.5516170000000  0.5318510000000 1.0
C      1  0.4216060000000  0.4086840000000  0.4488450000000 1.0
C      1  0.5173680000000  0.5842020000000  0.4529900000000 1.0
C      1  0.4975630000000  0.3793370000000  0.4922960000000 1.0
C      1  0.5593170000000  0.5942600000000  0.4530510000000 1.0
C      1  0.4488220000000  0.5950260000000  0.4994420000000 1.0
C      1  0.5632740000000  0.4589890000000  0.4381670000000 1.0
C      1  0.4782800000000  0.4585490000000  0.4883050000000 1.0
C      1  0.4218410000000  0.4517240000000  0.4901030000000 1.0
C      1  0.6148210000000  0.5519860000000  0.5190640000000 1.0
C      1  0.4184990000000  0.5533830000000  0.4528100000000 1.0
C      1  0.5976930000000  0.4670870000000  0.5484460000000 1.0
C      1  0.3939310000000  0.4395750000000  0.4827810000000 1.0
C      1  0.5489250000000  0.5531790000000  0.4841100000000 1.0
C      1  0.4102030000000  0.4589150000000  0.5657600000000 1.0
C      1  0.4049040000000  0.4301770000000  0.4583680000000 1.0
C      1  0.5610230000000  0.6072280000000  0.5317300000000 1.0
C      1  0.4987610000000  0.3906080000000  0.4628490000000 1.0
C      1  0.5403190000000  0.5080350000000  0.6010840000000 1.0
C      1  0.4370410000000  0.4489710000000  0.5737780000000 1.0
C      1  0.6123590000000  0.5508450000000  0.4897360000000 1.0
C      1  0.4916970000000  0.4807500000000  0.5374190000000 1.0
C      1  0.4567550000000  0.5243840000000  0.5423920000000 1.0
C      1  0.4734130000000  0.5610280000000  0.5901150000000 1.0
C      1  0.5473340000000  0.5889570000000  0.5144260000000 1.0
C      1  0.5629320000000  0.4287100000000  0.4713190000000 1.0
C      1  0.4261360000000  0.4415840000000  0.4244760000000 1.0
C      1  0.4948880000000  0.4786640000000  0.4721760000000 1.0
C      1  0.5012410000000  0.5537850000000  0.4876120000000 1.0
C      1  0.4373100000000  0.4091820000000  0.5114430000000 1.0
C      1  0.5619250000000  0.4799200000000  0.3971670000000 1.0
C      1  0.4976800000000  0.4977390000000  0.5160670000000 1.0
C      1  0.4120230000000  0.5271740000000  0.4400630000000 1.0
C      1  0.4356110000000  0.4151170000000  0.4228170000000 1.0
C      1  0.4664680000000  0.6098840000000  0.5199050000000 1.0
C      1  0.5469240000000  0.5243800000000  0.3985980000000 1.0
C      1  0.5334440000000  0.4544650000000  0.5446170000000 1.0
C      1  0.4788500000000  0.4498310000000  0.4424110000000 1.0
C      1  0.4844800000000  0.4256410000000  0.4092820000000 1.0
C      1  0.4856130000000  0.4538400000000  0.5934390000000 1.0
C      1  0.4358750000000  0.4612850000000  0.4658060000000 1.0
C      1  0.5863660000000  0.4452140000000  0.5390300000000 1.0
C      1  0.5350200000000  0.5915550000000  0.4386160000000 1.0
C      1  0.4196170000000  0.5479840000000  0.5849740000000 1.0
C      1  0.5273920000000  0.4884600000000  0.4353440000000 1.0
C      1  0.5580110000000  0.4306870000000  0.4433660000000 1.0
C      1  0.3940980000000  0.5002410000000  0.5303760000000 1.0
C      1  0.5007630000000  0.5696490000000  0.5244310000000 1.0
C      1  0.5116490000000  0.4268060000000  0.4204010000000 1.0
C      1  0.4736060000000  0.5449060000000  0.4951980000000 1.0
C      1  0.4278560000000  0.4483900000000  0.5175630000000 1.0
C      1  0.4542950000000  0.5741540000000  0.4220810000000 1.0
C      1  0.5135270000000  0.4868010000000  0.3911290000000 1.0
C      1  0.5803300000000  0.4405820000000  0.4916130000000 1.0
C      1  0.5041560000000  0.4365190000000  0.4464440000000 1.0
C      1  0.4458530000000  0.3965030000000  0.4634270000000 1.0
C      1  0.4366550000000  0.5763000000000  0.4459000000000 1.0
C      1  0.4528220000000  0.5878350000000  0.4703470000000 1.0
C      1  0.4864590000000  0.3911400000000  0.5512930000000 1.0
C      1  0.5080960000000  0.5195660000000  0.5515160000000 1.0
C      1  0.4929480000000  0.6228980000000  0.5161620000000 1.0
C      1  0.4714540000000  0.5106730000000  0.5910370000000 1.0
C      1  0.5039290000000  0.6073010000000  0.4935490000000 1.0
C      1  0.6080610000000  0.5286360000000  0.5373690000000 1.0
C      1  0.5446950000000  0.4821410000000  0.4573630000000 1.0
C      1  0.5499680000000  0.4706990000000  0.5585850000000 1.0
C      1  0.4728050000000  0.4524440000000  0.4136850000000 1.0
C      1  0.5230270000000  0.4783290000000  0.4769140000000 1.0
C      1  0.6109880000000  0.5269790000000  0.4704420000000 1.0
C      1  0.4674440000000  0.4852740000000  0.5498540000000 1.0
C      1  0.4720210000000  0.5273520000000  0.4298550000000 1.0
C      1  0.4873870000000  0.5069070000000  0.4439360000000 1.0
C      1  0.3819800000000  0.4900820000000  0.4744710000000 1.0
C      1  0.5210490000000  0.5598880000000  0.5918370000000 1.0
C      1  0.4963920000000  0.5451900000000  0.6005110000000 1.0
C      1  0.5487180000000  0.5062960000000  0.5084720000000 1.0
C      1  0.5254130000000  0.3886290000000  0.4438770000000 1.0
C      1  0.5235260000000  0.4265010000000  0.5776480000000 1.0
C      1  0.5579010000000  0.5677370000000  0.5654510000000 1.0
C      1  0.5116770000000  0.4680570000000  0.5916430000000 1.0
C      1  0.5169580000000  0.5485460000000  0.5138670000000 1.0
C      1  0.4572400000000  0.4634700000000  0.5905890000000 1.0
C      1  0.4810280000000  0.5260720000000  0.4019190000000 1.0
C      1  0.4466370000000  0.4267550000000  0.5595290000000 1.0
C      1  0.4221780000000  0.5723570000000  0.5434870000000 1.0
C      1  0.4942960000000  0.4389470000000  0.5092040000000 1.0
C      1  0.5178290000000  0.3847870000000  0.5127670000000 1.0
C      1  0.4086030000000  0.5638770000000  0.5045470000000 1.0
C      1  0.5577140000000  0.5291110000000  0.4469110000000 1.0
C      1  0.5882640000000  0.4749510000000  0.4370820000000 1.0
C      1  0.5541850000000  0.4114010000000  0.5302190000000 1.0
C      1  0.5950270000000  0.4650390000000  0.4905770000000 1.0
C      1  0.5640260000000  0.6086610000000  0.5019930000000 1.0
C      1  0.5089610000000  0.5811060000000  0.5756140000000 1.0
C      1  0.4742940000000  0.5019590000000  0.4997240000000 1.0
C      1  0.4947560000000  0.5164850000000  0.6070610000000 1.0
C      1  0.4269460000000  0.5729880000000  0.5722180000000 1.0
C      1  0.4628720000000  0.5445970000000  0.5226520000000 1.0
C      1  0.4946970000000  0.4287640000000  0.5826610000000 1.0
C      1  0.4739500000000  0.6052090000000  0.5480160000000 1.0
C      1  0.5444450000000  0.5598630000000  0.5132970000000 1.0
C      1  0.5506920000000  0.4573620000000  0.4116690000000 1.0
C      1  0.4649260000000  0.4078800000000  0.4232970000000 1.0
C      1  0.5216110000000  0.4417170000000  0.5005670000000 1.0
C      1  0.5757890000000  0.5052060000000  0.5795710000000 1.0
C      1  0.5142750000000  0.5117320000000  0.4376660000000 1.0
C      1  0.5255430000000  0.5401840000000  0.4117750000000 1.0
END
