TITL C-884141-4321-199 -5.76483145399755 125000 -6721.95678258571 0 0 46 (C1) n - 1
REM
REM in /home/nfs/bkarasulu/CARBON/AIRSS/Generating-Clusters/ReaxFF-fromJPCA2015/Units_Real/with-SteepDescent/Only-C1/SD-CG/Try1-3A/FIRE-CG
REM
REM
REM
REM
REM
REM ./C.cell (11c1c37f851c82e70ff6c80c92926a4b)
REM
REM compiler GCC version 9.2.1 20190827 (Red Hat 9.2.1-1)
REM options -cpp -mtune=generic -march=x86-64 -g -O0 -fpre-include=/usr/include/finclude/math-vector-fortran.h
REM seed -940611336 2117554315 -1776138221 -1644368941 -1284136200 426031932 -1112859426 796314547 237550127 544940654 -29287869 1650720112 291879113 -2029216750 -1646684376 -1903944004 -1653443883 -974997526 -1464113890 362730401 -1611707276 104530821 -623725693 -1549881490 -234164595 1679469055 132176153 2120946227 807510016 181698446 893646600 -1872252978 1489467201
REM
CELL 1.54180   50.00000   50.00000   50.00000   90.00000   90.00000   90.00000
LATT -1
SFAC C  
C      1  0.4940690000000  0.4436010000000  0.4796400000000 1.0
C      1  0.4494220000000  0.4710680000000  0.4852980000000 1.0
C      1  0.5009320000000  0.4566480000000  0.5458080000000 1.0
C      1  0.5183520000000  0.5137500000000  0.4419690000000 1.0
C      1  0.4375930000000  0.5327480000000  0.4868820000000 1.0
C      1  0.4790400000000  0.5743980000000  0.5208250000000 1.0
C      1  0.5684500000000  0.4702640000000  0.5237600000000 1.0
C      1  0.4720440000000  0.4723540000000  0.4286110000000 1.0
C      1  0.5532950000000  0.5031910000000  0.4638000000000 1.0
C      1  0.5015570000000  0.5218850000000  0.5738990000000 1.0
C      1  0.4933460000000  0.5568220000000  0.4500280000000 1.0
C      1  0.5138680000000  0.4357310000000  0.5017040000000 1.0
C      1  0.5388200000000  0.5412980000000  0.5418610000000 1.0
C      1  0.5311460000000  0.5526510000000  0.5173180000000 1.0
C      1  0.5622740000000  0.4965420000000  0.5369610000000 1.0
C      1  0.5552580000000  0.5227960000000  0.5297620000000 1.0
C      1  0.4947480000000  0.5269590000000  0.4554730000000 1.0
C      1  0.4747640000000  0.4675200000000  0.5370210000000 1.0
C      1  0.4704500000000  0.5569500000000  0.5340240000000 1.0
C      1  0.5247010000000  0.5188920000000  0.5592980000000 1.0
C      1  0.5412430000000  0.4427130000000  0.5069630000000 1.0
C      1  0.4392450000000  0.4873770000000  0.5081730000000 1.0
C      1  0.5003260000000  0.4636350000000  0.4289880000000 1.0
C      1  0.4757230000000  0.5677040000000  0.4715190000000 1.0
C      1  0.5172490000000  0.4892710000000  0.4273530000000 1.0
C      1  0.4701280000000  0.4433190000000  0.5202110000000 1.0
C      1  0.5146730000000  0.5657340000000  0.5026080000000 1.0
C      1  0.4572630000000  0.4899840000000  0.4641960000000 1.0
C      1  0.5574430000000  0.4837370000000  0.4790500000000 1.0
C      1  0.5619940000000  0.4624010000000  0.4957770000000 1.0
C      1  0.4977530000000  0.4341750000000  0.5260880000000 1.0
C      1  0.4304250000000  0.5125980000000  0.4992940000000 1.0
C      1  0.4582820000000  0.5431290000000  0.4723620000000 1.0
C      1  0.5280490000000  0.4661450000000  0.5505770000000 1.0
C      1  0.4987200000000  0.4530400000000  0.4543920000000 1.0
C      1  0.4644610000000  0.4920380000000  0.5239710000000 1.0
C      1  0.4778760000000  0.5124020000000  0.5076190000000 1.0
C      1  0.4910700000000  0.5786170000000  0.4948360000000 1.0
C      1  0.4735480000000  0.5330920000000  0.5248170000000 1.0
C      1  0.5484540000000  0.4518430000000  0.5342290000000 1.0
C      1  0.4811510000000  0.5245130000000  0.5867940000000 1.0
C      1  0.4534810000000  0.4832270000000  0.4369820000000 1.0
C      1  0.4737600000000  0.5156790000000  0.4753180000000 1.0
C      1  0.5382120000000  0.4931320000000  0.5545990000000 1.0
C      1  0.4667940000000  0.4488890000000  0.4918070000000 1.0
C      1  0.5485470000000  0.5255370000000  0.4475340000000 1.0
END
