TITL C-883740-3686-91 -18.5340943396271 125000 -18009.5975482456 0 0 119 (C1) n - 1
REM
REM in /home/nfs/bkarasulu/CARBON/AIRSS/Generating-Clusters/ReaxFF-fromJPCA2015/Units_Real/with-SteepDescent/Only-C1/SD-CG/Try1-3A/FIRE-CG
REM
REM
REM
REM
REM
REM ./C.cell (11c1c37f851c82e70ff6c80c92926a4b)
REM
REM compiler GCC version 9.2.1 20190827 (Red Hat 9.2.1-1)
REM options -cpp -mtune=generic -march=x86-64 -g -O0 -fpre-include=/usr/include/finclude/math-vector-fortran.h
REM seed -1499937474 846777353 422818544 -173063926 -2085155313 1590775654 -1852777849 -2045384830 -1123194662 1577979888 -1498246593 -1745968569 -1331181546 -1039193829 -1230324366 -34552245 1428164160 -317861163 -140256494 264927017 1003740316 -2023400343 -362690813 1937856277 1079683110 614794941 806476391 396581767 -1717692031 -834610627 1569649411 -1849525583 66937918
REM
CELL 1.54180   50.00000   50.00000   50.00000   90.00000   90.00000   90.00000
LATT -1
SFAC C  
C      1  0.4424370000000  0.5529170000000  0.5412230000000 1.0
C      1  0.5030280000000  0.4840870000000  0.5520240000000 1.0
C      1  0.5702790000000  0.4992240000000  0.5795910000000 1.0
C      1  0.4773230000000  0.4429430000000  0.5492940000000 1.0
C      1  0.4682160000000  0.4925950000000  0.4415060000000 1.0
C      1  0.5239330000000  0.5828830000000  0.4737770000000 1.0
C      1  0.4302400000000  0.4589490000000  0.4463090000000 1.0
C      1  0.5312080000000  0.4823490000000  0.5593290000000 1.0
C      1  0.5083350000000  0.5126320000000  0.4147800000000 1.0
C      1  0.4502540000000  0.4986110000000  0.4661550000000 1.0
C      1  0.5026620000000  0.5915610000000  0.4910160000000 1.0
C      1  0.4744340000000  0.4638330000000  0.5923870000000 1.0
C      1  0.5102960000000  0.5098040000000  0.4821010000000 1.0
C      1  0.4538570000000  0.4744560000000  0.5759730000000 1.0
C      1  0.5522130000000  0.5728320000000  0.4830380000000 1.0
C      1  0.4982890000000  0.5907660000000  0.4313580000000 1.0
C      1  0.4708460000000  0.5793370000000  0.4346070000000 1.0
C      1  0.5204770000000  0.5732970000000  0.5344760000000 1.0
C      1  0.4201060000000  0.5417380000000  0.4967680000000 1.0
C      1  0.4212360000000  0.4317020000000  0.4821550000000 1.0
C      1  0.4506150000000  0.4896690000000  0.4160310000000 1.0
C      1  0.4063170000000  0.4669370000000  0.5144020000000 1.0
C      1  0.5604670000000  0.4387700000000  0.5403050000000 1.0
C      1  0.4891070000000  0.5499980000000  0.4100340000000 1.0
C      1  0.5029690000000  0.5168250000000  0.5930070000000 1.0
C      1  0.4793180000000  0.4250720000000  0.5281610000000 1.0
C      1  0.4557390000000  0.5262030000000  0.5717610000000 1.0
C      1  0.4616450000000  0.4905690000000  0.4996210000000 1.0
C      1  0.5657450000000  0.4696160000000  0.5800860000000 1.0
C      1  0.4780100000000  0.5466070000000  0.4742960000000 1.0
C      1  0.5138080000000  0.4836300000000  0.4706100000000 1.0
C      1  0.5396190000000  0.5296680000000  0.5430340000000 1.0
C      1  0.4436320000000  0.5342130000000  0.4270000000000 1.0
C      1  0.5905530000000  0.4782380000000  0.5380370000000 1.0
C      1  0.4027940000000  0.4797790000000  0.5383370000000 1.0
C      1  0.4740790000000  0.5859500000000  0.5317070000000 1.0
C      1  0.5407460000000  0.4193950000000  0.5489960000000 1.0
C      1  0.5279720000000  0.5309500000000  0.5951280000000 1.0
C      1  0.5842270000000  0.5069680000000  0.4627850000000 1.0
C      1  0.5573550000000  0.5433160000000  0.5629370000000 1.0
C      1  0.5610610000000  0.5752380000000  0.5118070000000 1.0
C      1  0.5567370000000  0.5398960000000  0.4411640000000 1.0
C      1  0.5810390000000  0.5322930000000  0.4780880000000 1.0
C      1  0.4491380000000  0.4843270000000  0.5268470000000 1.0
C      1  0.4444370000000  0.5569200000000  0.5108440000000 1.0
C      1  0.4693110000000  0.4463020000000  0.4213590000000 1.0
C      1  0.5894650000000  0.4819690000000  0.4780140000000 1.0
C      1  0.4676970000000  0.5723220000000  0.4630690000000 1.0
C      1  0.4980190000000  0.4361290000000  0.5717700000000 1.0
C      1  0.4574990000000  0.5850200000000  0.5080320000000 1.0
C      1  0.5336980000000  0.5541210000000  0.4307780000000 1.0
C      1  0.5449500000000  0.4252550000000  0.4746550000000 1.0
C      1  0.5040060000000  0.4426000000000  0.4860000000000 1.0
C      1  0.4362580000000  0.4325590000000  0.4568400000000 1.0
C      1  0.4609320000000  0.4396470000000  0.5100030000000 1.0
C      1  0.5149810000000  0.4550130000000  0.5103210000000 1.0
C      1  0.4903370000000  0.5130400000000  0.4380840000000 1.0
C      1  0.5033840000000  0.4787670000000  0.5229660000000 1.0
C      1  0.5274820000000  0.4338790000000  0.5712330000000 1.0
C      1  0.4088110000000  0.5056740000000  0.4795390000000 1.0
C      1  0.5003900000000  0.4042740000000  0.5205190000000 1.0
C      1  0.4629220000000  0.5556770000000  0.4170860000000 1.0
C      1  0.4358330000000  0.5271950000000  0.5514470000000 1.0
C      1  0.4919370000000  0.5307280000000  0.5197060000000 1.0
C      1  0.5174620000000  0.5440070000000  0.5296760000000 1.0
C      1  0.4634990000000  0.5006980000000  0.5802030000000 1.0
C      1  0.5549270000000  0.5240300000000  0.5859030000000 1.0
C      1  0.4915720000000  0.5027820000000  0.5088880000000 1.0
C      1  0.5484000000000  0.5832840000000  0.5364310000000 1.0
C      1  0.5524290000000  0.4883710000000  0.4265340000000 1.0
C      1  0.5335360000000  0.4072110000000  0.4938410000000 1.0
C      1  0.4440100000000  0.4614540000000  0.4210670000000 1.0
C      1  0.5373870000000  0.4612180000000  0.5795250000000 1.0
C      1  0.5217020000000  0.5780600000000  0.4449560000000 1.0
C      1  0.5660620000000  0.4622180000000  0.5058040000000 1.0
C      1  0.4347690000000  0.5132240000000  0.4069870000000 1.0
C      1  0.4816450000000  0.4612890000000  0.4425290000000 1.0
C      1  0.5466700000000  0.4593700000000  0.4315180000000 1.0
C      1  0.4132840000000  0.5158160000000  0.5068140000000 1.0
C      1  0.4133690000000  0.4592770000000  0.4891490000000 1.0
C      1  0.5900840000000  0.4741700000000  0.5077500000000 1.0
C      1  0.5219460000000  0.4616770000000  0.4167490000000 1.0
C      1  0.4238080000000  0.4809200000000  0.4680640000000 1.0
C      1  0.4903190000000  0.4996570000000  0.5728470000000 1.0
C      1  0.4886630000000  0.4196420000000  0.4766350000000 1.0
C      1  0.5653340000000  0.5106190000000  0.4406930000000 1.0
C      1  0.5418360000000  0.4854080000000  0.4746300000000 1.0
C      1  0.4726790000000  0.5437410000000  0.5026700000000 1.0
C      1  0.5018430000000  0.5452100000000  0.5862110000000 1.0
C      1  0.4266450000000  0.5034410000000  0.5332870000000 1.0
C      1  0.4931280000000  0.4632430000000  0.4722220000000 1.0
C      1  0.4444030000000  0.4192350000000  0.4957240000000 1.0
C      1  0.4971880000000  0.4490370000000  0.4227520000000 1.0
C      1  0.5767700000000  0.5007170000000  0.5506360000000 1.0
C      1  0.5477920000000  0.5017990000000  0.5434060000000 1.0
C      1  0.5649920000000  0.4713960000000  0.4659950000000 1.0
C      1  0.5443550000000  0.4501190000000  0.5171600000000 1.0
C      1  0.4412680000000  0.5243380000000  0.4549650000000 1.0
C      1  0.5608850000000  0.5729020000000  0.5619430000000 1.0
C      1  0.4764680000000  0.5476040000000  0.5720650000000 1.0
C      1  0.5045040000000  0.4000760000000  0.4915480000000 1.0
C      1  0.4595160000000  0.4179730000000  0.4708680000000 1.0
C      1  0.5591690000000  0.5286140000000  0.4974960000000 1.0
C      1  0.4650520000000  0.5667570000000  0.5527770000000 1.0
C      1  0.4165170000000  0.5322390000000  0.4687610000000 1.0
C      1  0.4692530000000  0.4633180000000  0.4944380000000 1.0
C      1  0.5683280000000  0.5534410000000  0.4636010000000 1.0
C      1  0.4734320000000  0.5911400000000  0.4845070000000 1.0
C      1  0.5271520000000  0.4902560000000  0.4113300000000 1.0
C      1  0.5476650000000  0.5525450000000  0.5049070000000 1.0
C      1  0.5559900000000  0.4446260000000  0.4559460000000 1.0
C      1  0.4995680000000  0.4534000000000  0.5936880000000 1.0
C      1  0.5776640000000  0.4581840000000  0.5551240000000 1.0
C      1  0.4963660000000  0.5278010000000  0.4620560000000 1.0
C      1  0.4581100000000  0.4660360000000  0.5479660000000 1.0
C      1  0.5285840000000  0.4071810000000  0.5252020000000 1.0
C      1  0.5011680000000  0.5898670000000  0.5207720000000 1.0
C      1  0.5400130000000  0.5101320000000  0.4878780000000 1.0
C      1  0.5161080000000  0.5414960000000  0.4105910000000 1.0
END
