TITL C-884134-5972-160 161.196742083872 125000 -25922.7091012551 0 0 177 (C1) n - 1
REM
REM in /home/nfs/bkarasulu/CARBON/AIRSS/Generating-Clusters/ReaxFF-fromJPCA2015/Units_Real/with-SteepDescent/Only-C1/SD-CG/Try1-3A/FIRE-CG
REM
REM
REM
REM
REM
REM ./C.cell (11c1c37f851c82e70ff6c80c92926a4b)
REM
REM compiler GCC version 9.2.1 20190827 (Red Hat 9.2.1-1)
REM options -cpp -mtune=generic -march=x86-64 -g -O0 -fpre-include=/usr/include/finclude/math-vector-fortran.h
REM seed 1032361459 -1379201607 -496106062 911427252 -426760869 703769018 1443982067 -1174421406 479906827 296319240 -619491509 -2075570975 1269670222 99130780 -383016020 1680983354 1032813482 235066243 1233572035 1642193659 -1692874518 1678044509 -1100991020 -148275569 -536531566 -1972282410 -1150997654 -1199186158 -1967793046 889067075 1653161735 850540633 -267052395
REM
CELL 1.54180   50.00000   50.00000   50.00000   90.00000   90.00000   90.00000
LATT -1
SFAC C  
C      1  0.5861880000000  0.4923850000000  0.5579200000000 1.0
C      1  0.4708840000000  0.3878700000000  0.5316770000000 1.0
C      1  0.5763620000000  0.4438370000000  0.5437230000000 1.0
C      1  0.5672530000000  0.5711750000000  0.4603460000000 1.0
C      1  0.4460240000000  0.5683320000000  0.5532470000000 1.0
C      1  0.5985790000000  0.5403150000000  0.4766650000000 1.0
C      1  0.4124550000000  0.5300820000000  0.5246370000000 1.0
C      1  0.4218590000000  0.4989460000000  0.4619760000000 1.0
C      1  0.5403630000000  0.5684300000000  0.4704370000000 1.0
C      1  0.4410320000000  0.5994090000000  0.5180020000000 1.0
C      1  0.5895770000000  0.5186900000000  0.4374290000000 1.0
C      1  0.4281860000000  0.4178010000000  0.4795570000000 1.0
C      1  0.5282530000000  0.4577070000000  0.5335170000000 1.0
C      1  0.4867460000000  0.4317840000000  0.5692650000000 1.0
C      1  0.4659970000000  0.5355630000000  0.4941490000000 1.0
C      1  0.5100570000000  0.4875710000000  0.4422760000000 1.0
C      1  0.5004770000000  0.3867870000000  0.5318870000000 1.0
C      1  0.4491180000000  0.4620740000000  0.5533540000000 1.0
C      1  0.4445150000000  0.5314520000000  0.4250950000000 1.0
C      1  0.4354000000000  0.4236150000000  0.5520990000000 1.0
C      1  0.4272160000000  0.5828700000000  0.5001530000000 1.0
C      1  0.4329470000000  0.4115400000000  0.5064200000000 1.0
C      1  0.5804580000000  0.5406710000000  0.4203050000000 1.0
C      1  0.4883260000000  0.4123650000000  0.4670890000000 1.0
C      1  0.4117070000000  0.4663800000000  0.4295610000000 1.0
C      1  0.5644580000000  0.4765290000000  0.6079720000000 1.0
C      1  0.4942580000000  0.5001630000000  0.5940590000000 1.0
C      1  0.5687790000000  0.4714410000000  0.4358320000000 1.0
C      1  0.4672700000000  0.5458270000000  0.5612310000000 1.0
C      1  0.5771070000000  0.4936370000000  0.5857900000000 1.0
C      1  0.5490320000000  0.4073800000000  0.5140140000000 1.0
C      1  0.4089520000000  0.4805730000000  0.5428570000000 1.0
C      1  0.4844050000000  0.5271370000000  0.6029150000000 1.0
C      1  0.5178620000000  0.5571500000000  0.4360480000000 1.0
C      1  0.4098140000000  0.4583040000000  0.5221780000000 1.0
C      1  0.5121300000000  0.4819270000000  0.6258840000000 1.0
C      1  0.4699310000000  0.4727990000000  0.5360780000000 1.0
C      1  0.5016340000000  0.4460750000000  0.4083900000000 1.0
C      1  0.5050070000000  0.4785970000000  0.4695260000000 1.0
C      1  0.4489180000000  0.5102110000000  0.5044020000000 1.0
C      1  0.4678360000000  0.4658190000000  0.4410080000000 1.0
C      1  0.5873480000000  0.5595190000000  0.4831130000000 1.0
C      1  0.5165400000000  0.5795520000000  0.4566290000000 1.0
C      1  0.4793120000000  0.4988660000000  0.5494700000000 1.0
C      1  0.5058050000000  0.3909350000000  0.5040100000000 1.0
C      1  0.5279110000000  0.4426930000000  0.4213510000000 1.0
C      1  0.4683850000000  0.5621440000000  0.5027740000000 1.0
C      1  0.5367820000000  0.4846290000000  0.5341990000000 1.0
C      1  0.4908770000000  0.6098210000000  0.5219190000000 1.0
C      1  0.5455080000000  0.4048720000000  0.5418520000000 1.0
C      1  0.4913340000000  0.5180890000000  0.5310160000000 1.0
C      1  0.5361110000000  0.4698870000000  0.5726690000000 1.0
C      1  0.4470630000000  0.5583210000000  0.4366950000000 1.0
C      1  0.5413720000000  0.5384330000000  0.5306880000000 1.0
C      1  0.5104310000000  0.6303850000000  0.4543570000000 1.0
C      1  0.5741550000000  0.5448050000000  0.5637690000000 1.0
C      1  0.5160390000000  0.4241240000000  0.4685740000000 1.0
C      1  0.5230010000000  0.5416410000000  0.5532850000000 1.0
C      1  0.5311450000000  0.5834700000000  0.5130530000000 1.0
C      1  0.5529000000000  0.5090710000000  0.5845100000000 1.0
C      1  0.4599130000000  0.4699550000000  0.4876690000000 1.0
C      1  0.3990130000000  0.4679460000000  0.4968920000000 1.0
C      1  0.5463560000000  0.4679580000000  0.4840840000000 1.0
C      1  0.4636810000000  0.6179320000000  0.5101340000000 1.0
C      1  0.5308550000000  0.5528500000000  0.5842870000000 1.0
C      1  0.5129370000000  0.4441860000000  0.5116390000000 1.0
C      1  0.4184790000000  0.5632420000000  0.4830410000000 1.0
C      1  0.4966680000000  0.5838400000000  0.4781850000000 1.0
C      1  0.4002500000000  0.4812830000000  0.4519600000000 1.0
C      1  0.5289730000000  0.5547640000000  0.5099050000000 1.0
C      1  0.4412580000000  0.5279660000000  0.5253720000000 1.0
C      1  0.5661980000000  0.5026220000000  0.4444240000000 1.0
C      1  0.4663380000000  0.4309440000000  0.4687510000000 1.0
C      1  0.5332150000000  0.5436850000000  0.4844010000000 1.0
C      1  0.5843510000000  0.4970120000000  0.4902250000000 1.0
C      1  0.4551120000000  0.4841010000000  0.5993960000000 1.0
C      1  0.5238270000000  0.4139020000000  0.4982040000000 1.0
C      1  0.5680340000000  0.5614490000000  0.4343380000000 1.0
C      1  0.5835030000000  0.5560300000000  0.5116840000000 1.0
C      1  0.5281820000000  0.4463860000000  0.5599140000000 1.0
C      1  0.4248310000000  0.4999120000000  0.4899400000000 1.0
C      1  0.4239800000000  0.4888200000000  0.4157400000000 1.0
C      1  0.4617550000000  0.5794510000000  0.5312600000000 1.0
C      1  0.3966530000000  0.4977740000000  0.4969820000000 1.0
C      1  0.3994760000000  0.4575590000000  0.4691990000000 1.0
C      1  0.4890860000000  0.5663100000000  0.5899640000000 1.0
C      1  0.5382670000000  0.4802000000000  0.6193230000000 1.0
C      1  0.4282460000000  0.4780160000000  0.5642970000000 1.0
C      1  0.5080570000000  0.5972020000000  0.5017830000000 1.0
C      1  0.5313450000000  0.4959100000000  0.5622810000000 1.0
C      1  0.4342840000000  0.4648420000000  0.5904840000000 1.0
C      1  0.5592460000000  0.4282340000000  0.4598100000000 1.0
C      1  0.4817730000000  0.5562360000000  0.3980860000000 1.0
C      1  0.6021830000000  0.4482250000000  0.4865060000000 1.0
C      1  0.5426530000000  0.5169160000000  0.4887330000000 1.0
C      1  0.5057370000000  0.5478370000000  0.6028860000000 1.0
C      1  0.5062040000000  0.4101770000000  0.5762910000000 1.0
C      1  0.4935130000000  0.4662120000000  0.3891600000000 1.0
C      1  0.4616120000000  0.4831470000000  0.5103520000000 1.0
C      1  0.4067840000000  0.5220830000000  0.4524200000000 1.0
C      1  0.4653190000000  0.4628810000000  0.3946930000000 1.0
C      1  0.5032440000000  0.5831510000000  0.5675960000000 1.0
C      1  0.5193240000000  0.4559970000000  0.4846000000000 1.0
C      1  0.5334080000000  0.5567140000000  0.4108570000000 1.0
C      1  0.4585540000000  0.6131400000000  0.4824490000000 1.0
C      1  0.5906920000000  0.4612540000000  0.5107530000000 1.0
C      1  0.4733100000000  0.4316270000000  0.5447450000000 1.0
C      1  0.4573970000000  0.5091580000000  0.3867220000000 1.0
C      1  0.4839910000000  0.5929260000000  0.4314160000000 1.0
C      1  0.5156420000000  0.4278660000000  0.5977100000000 1.0
C      1  0.4232230000000  0.4321440000000  0.5265890000000 1.0
C      1  0.4812370000000  0.3933340000000  0.4883140000000 1.0
C      1  0.5562690000000  0.4567030000000  0.5879680000000 1.0
C      1  0.4956720000000  0.5418870000000  0.5460090000000 1.0
C      1  0.5344420000000  0.4244190000000  0.4448250000000 1.0
C      1  0.5063280000000  0.4951050000000  0.3952760000000 1.0
C      1  0.5367400000000  0.4863650000000  0.3990370000000 1.0
C      1  0.5422980000000  0.5119020000000  0.4107770000000 1.0
C      1  0.4190380000000  0.5164220000000  0.4254950000000 1.0
C      1  0.5602070000000  0.5746830000000  0.5539270000000 1.0
C      1  0.5882800000000  0.4337210000000  0.4635400000000 1.0
C      1  0.5461320000000  0.4640870000000  0.4145620000000 1.0
C      1  0.4833730000000  0.4420220000000  0.5196680000000 1.0
C      1  0.4698000000000  0.5707960000000  0.4206850000000 1.0
C      1  0.4722380000000  0.4482940000000  0.4203500000000 1.0
C      1  0.5542980000000  0.4573860000000  0.4588430000000 1.0
C      1  0.5413030000000  0.4318630000000  0.5832640000000 1.0
C      1  0.4108060000000  0.5097830000000  0.5468100000000 1.0
C      1  0.4303290000000  0.5182470000000  0.5693970000000 1.0
C      1  0.5319810000000  0.5786490000000  0.5697490000000 1.0
C      1  0.5578580000000  0.5373670000000  0.5859900000000 1.0
C      1  0.5308850000000  0.5098990000000  0.4386300000000 1.0
C      1  0.4873870000000  0.5939360000000  0.5454870000000 1.0
C      1  0.4936430000000  0.4471010000000  0.5930660000000 1.0
C      1  0.4997940000000  0.5028570000000  0.4828460000000 1.0
C      1  0.5675440000000  0.4765930000000  0.5015820000000 1.0
C      1  0.5637580000000  0.5064510000000  0.4733550000000 1.0
C      1  0.6090620000000  0.4963560000000  0.4753860000000 1.0
C      1  0.4390250000000  0.4255970000000  0.4556710000000 1.0
C      1  0.5549660000000  0.5376110000000  0.4042040000000 1.0
C      1  0.5940850000000  0.4564230000000  0.4464410000000 1.0
C      1  0.3916030000000  0.5210200000000  0.4784300000000 1.0
C      1  0.4633900000000  0.4832680000000  0.4615700000000 1.0
C      1  0.5701080000000  0.5324340000000  0.5247530000000 1.0
C      1  0.4667040000000  0.4456840000000  0.4945530000000 1.0
C      1  0.6066760000000  0.5208740000000  0.4604480000000 1.0
C      1  0.4037290000000  0.5393380000000  0.4974850000000 1.0
C      1  0.4582290000000  0.3942300000000  0.5065770000000 1.0
C      1  0.6117380000000  0.4684040000000  0.4668340000000 1.0
C      1  0.4731790000000  0.5314110000000  0.3807660000000 1.0
C      1  0.4848280000000  0.4737080000000  0.6047560000000 1.0
C      1  0.4671300000000  0.5132630000000  0.4600930000000 1.0
C      1  0.4921860000000  0.5267500000000  0.4676470000000 1.0
C      1  0.5141930000000  0.5323550000000  0.4487650000000 1.0
C      1  0.5095460000000  0.5487080000000  0.3942930000000 1.0
C      1  0.5027640000000  0.5002540000000  0.5668340000000 1.0
C      1  0.4412750000000  0.5666440000000  0.4639370000000 1.0
C      1  0.4661960000000  0.5808390000000  0.4780870000000 1.0
C      1  0.5904560000000  0.4672420000000  0.5420190000000 1.0
C      1  0.4496100000000  0.5100120000000  0.5894500000000 1.0
C      1  0.4925780000000  0.4998400000000  0.4229060000000 1.0
C      1  0.5522300000000  0.5903840000000  0.5299630000000 1.0
C      1  0.5334750000000  0.5003260000000  0.5104510000000 1.0
C      1  0.4532580000000  0.5221620000000  0.5513060000000 1.0
C      1  0.4449000000000  0.4856120000000  0.3942220000000 1.0
C      1  0.5829480000000  0.5212840000000  0.5488390000000 1.0
C      1  0.4972450000000  0.6136020000000  0.4413490000000 1.0
C      1  0.4160540000000  0.4431410000000  0.4489550000000 1.0
C      1  0.4674910000000  0.5456500000000  0.5894780000000 1.0
C      1  0.5751940000000  0.5777230000000  0.5284930000000 1.0
C      1  0.5645660000000  0.4286570000000  0.5264300000000 1.0
C      1  0.5070550000000  0.5089980000000  0.5092650000000 1.0
C      1  0.4695870000000  0.5158790000000  0.4312880000000 1.0
C      1  0.5014590000000  0.5228950000000  0.3823680000000 1.0
C      1  0.4601070000000  0.4082360000000  0.5495380000000 1.0
C      1  0.5194090000000  0.3986880000000  0.5515880000000 1.0
C      1  0.4437950000000  0.4421780000000  0.5740690000000 1.0
END
