TITL C-884141-4321-430 184.265402189466 125000 -27303.850763925 0 0 186 (C1) n - 1
REM
REM in /home/nfs/bkarasulu/CARBON/AIRSS/Generating-Clusters/ReaxFF-fromJPCA2015/Units_Real/with-SteepDescent/Only-C1/SD-CG/Try1-3A/FIRE-CG
REM
REM
REM
REM
REM
REM ./C.cell (11c1c37f851c82e70ff6c80c92926a4b)
REM
REM compiler GCC version 9.2.1 20190827 (Red Hat 9.2.1-1)
REM options -cpp -mtune=generic -march=x86-64 -g -O0 -fpre-include=/usr/include/finclude/math-vector-fortran.h
REM seed -1140465324 354956133 1465198135 -1872457260 -499478330 942666737 2104901971 -1997265248 -425951740 -1317576028 1779447151 1846324446 1645787599 -1274965728 -991106718 -1685969782 905083604 -718907307 -2026732060 695111911 1719564646 -1897766453 -228247157 339864024 -1796569325 2005527860 -1702183056 1310184792 -418618046 1759925118 -70927824 -107134926 -141330263
REM
CELL 1.54180   50.00000   50.00000   50.00000   90.00000   90.00000   90.00000
LATT -1
SFAC C  
C      1  0.4399390000000  0.4192250000000  0.5202490000000 1.0
C      1  0.5000210000000  0.4521260000000  0.6102090000000 1.0
C      1  0.4792380000000  0.6157920000000  0.4947790000000 1.0
C      1  0.4671020000000  0.5410010000000  0.4145900000000 1.0
C      1  0.5842510000000  0.5374640000000  0.5525020000000 1.0
C      1  0.5727780000000  0.5667050000000  0.4674340000000 1.0
C      1  0.5217070000000  0.5081230000000  0.5536390000000 1.0
C      1  0.6097500000000  0.4728980000000  0.5543710000000 1.0
C      1  0.5568880000000  0.5934100000000  0.5160570000000 1.0
C      1  0.4756320000000  0.4559390000000  0.5629380000000 1.0
C      1  0.3951150000000  0.4922440000000  0.5137930000000 1.0
C      1  0.4927120000000  0.5060190000000  0.6151090000000 1.0
C      1  0.4981490000000  0.3852600000000  0.4610640000000 1.0
C      1  0.5612650000000  0.5736530000000  0.5652090000000 1.0
C      1  0.4808760000000  0.4694350000000  0.5381320000000 1.0
C      1  0.4831130000000  0.4334800000000  0.4140490000000 1.0
C      1  0.4301990000000  0.4816070000000  0.4088260000000 1.0
C      1  0.5615980000000  0.4870610000000  0.4864080000000 1.0
C      1  0.5386410000000  0.5451940000000  0.4218580000000 1.0
C      1  0.4710030000000  0.5199260000000  0.5549340000000 1.0
C      1  0.5811030000000  0.5256050000000  0.4360890000000 1.0
C      1  0.4885790000000  0.4056040000000  0.5320290000000 1.0
C      1  0.5004360000000  0.4574490000000  0.5209800000000 1.0
C      1  0.3942180000000  0.4795400000000  0.5406700000000 1.0
C      1  0.4465060000000  0.4810520000000  0.5943210000000 1.0
C      1  0.4438270000000  0.5109840000000  0.6040860000000 1.0
C      1  0.5223210000000  0.5635010000000  0.5074510000000 1.0
C      1  0.4239880000000  0.5382230000000  0.4503950000000 1.0
C      1  0.5383920000000  0.5312490000000  0.4630540000000 1.0
C      1  0.5346030000000  0.4123070000000  0.4334310000000 1.0
C      1  0.5348310000000  0.3964880000000  0.5222850000000 1.0
C      1  0.5503490000000  0.5541660000000  0.5036810000000 1.0
C      1  0.4523450000000  0.5405250000000  0.5146790000000 1.0
C      1  0.5097680000000  0.4734900000000  0.3896930000000 1.0
C      1  0.5080250000000  0.4765270000000  0.3639610000000 1.0
C      1  0.5749030000000  0.4332590000000  0.4988180000000 1.0
C      1  0.5156350000000  0.5381390000000  0.4467950000000 1.0
C      1  0.4388530000000  0.4066510000000  0.4942720000000 1.0
C      1  0.4809360000000  0.5174080000000  0.4045470000000 1.0
C      1  0.4443620000000  0.5958850000000  0.4642080000000 1.0
C      1  0.5103780000000  0.4906410000000  0.4345390000000 1.0
C      1  0.5254470000000  0.5847610000000  0.4568690000000 1.0
C      1  0.4908710000000  0.4798130000000  0.6023850000000 1.0
C      1  0.4930420000000  0.5844620000000  0.4304860000000 1.0
C      1  0.5318560000000  0.5248170000000  0.4023160000000 1.0
C      1  0.6068150000000  0.4775170000000  0.5013190000000 1.0
C      1  0.3841280000000  0.4535630000000  0.5474780000000 1.0
C      1  0.4775310000000  0.5501680000000  0.6126250000000 1.0
C      1  0.6155770000000  0.4866480000000  0.5274910000000 1.0
C      1  0.5507080000000  0.4884000000000  0.5905150000000 1.0
C      1  0.5873190000000  0.5414240000000  0.4619050000000 1.0
C      1  0.4890400000000  0.4877560000000  0.4120700000000 1.0
C      1  0.3978280000000  0.4731860000000  0.4918600000000 1.0
C      1  0.4847930000000  0.5574440000000  0.4751330000000 1.0
C      1  0.4373520000000  0.5340610000000  0.5895880000000 1.0
C      1  0.4378480000000  0.5903740000000  0.5140840000000 1.0
C      1  0.4412680000000  0.5511170000000  0.4304520000000 1.0
C      1  0.5137240000000  0.5220730000000  0.6028300000000 1.0
C      1  0.4386240000000  0.4905830000000  0.5326460000000 1.0
C      1  0.4887810000000  0.5453030000000  0.5524950000000 1.0
C      1  0.5466700000000  0.5502060000000  0.5746620000000 1.0
C      1  0.5732200000000  0.5803880000000  0.5377590000000 1.0
C      1  0.5443080000000  0.5636910000000  0.4628850000000 1.0
C      1  0.5599260000000  0.4130100000000  0.5220840000000 1.0
C      1  0.5707770000000  0.5336460000000  0.5780960000000 1.0
C      1  0.5150390000000  0.4820820000000  0.5126730000000 1.0
C      1  0.6026820000000  0.4573050000000  0.4644850000000 1.0
C      1  0.5842950000000  0.4681940000000  0.4410790000000 1.0
C      1  0.4408980000000  0.4930210000000  0.4333190000000 1.0
C      1  0.4550310000000  0.5779930000000  0.5723770000000 1.0
C      1  0.4894000000000  0.5259500000000  0.4491190000000 1.0
C      1  0.4774950000000  0.6098040000000  0.5322480000000 1.0
C      1  0.5525390000000  0.5105940000000  0.4441500000000 1.0
C      1  0.5477280000000  0.4567160000000  0.5834860000000 1.0
C      1  0.4177690000000  0.4406820000000  0.5258650000000 1.0
C      1  0.4787810000000  0.5510340000000  0.5204990000000 1.0
C      1  0.4345290000000  0.5564290000000  0.5720480000000 1.0
C      1  0.4093640000000  0.5177920000000  0.5111480000000 1.0
C      1  0.5625700000000  0.4204140000000  0.4405490000000 1.0
C      1  0.5224560000000  0.5407340000000  0.5564170000000 1.0
C      1  0.4037300000000  0.5402400000000  0.5290430000000 1.0
C      1  0.3951260000000  0.5617990000000  0.5095740000000 1.0
C      1  0.5271120000000  0.4524700000000  0.4034140000000 1.0
C      1  0.4353480000000  0.5247250000000  0.4994070000000 1.0
C      1  0.5073990000000  0.5160020000000  0.4911940000000 1.0
C      1  0.5894890000000  0.4976690000000  0.4882090000000 1.0
C      1  0.5917420000000  0.5569430000000  0.5331210000000 1.0
C      1  0.4899340000000  0.3859910000000  0.4892450000000 1.0
C      1  0.5696230000000  0.5755970000000  0.4961870000000 1.0
C      1  0.4725750000000  0.4058820000000  0.4562980000000 1.0
C      1  0.5278650000000  0.5045960000000  0.5835430000000 1.0
C      1  0.5404160000000  0.5124730000000  0.4909600000000 1.0
C      1  0.5380780000000  0.5032270000000  0.4198860000000 1.0
C      1  0.4948810000000  0.5009200000000  0.4640450000000 1.0
C      1  0.5053590000000  0.5505470000000  0.6041040000000 1.0
C      1  0.4989500000000  0.4449640000000  0.4502930000000 1.0
C      1  0.5061700000000  0.3936450000000  0.5123520000000 1.0
C      1  0.4423900000000  0.5253790000000  0.4714500000000 1.0
C      1  0.4677740000000  0.5382670000000  0.4633060000000 1.0
C      1  0.4298340000000  0.4952120000000  0.4599130000000 1.0
C      1  0.4683260000000  0.4240570000000  0.5194810000000 1.0
C      1  0.4724810000000  0.4606140000000  0.4094970000000 1.0
C      1  0.5638960000000  0.5468090000000  0.4277810000000 1.0
C      1  0.5358690000000  0.4428580000000  0.5102890000000 1.0
C      1  0.4621670000000  0.3935390000000  0.4819510000000 1.0
C      1  0.4272200000000  0.6000620000000  0.4884700000000 1.0
C      1  0.5342630000000  0.4923720000000  0.5315150000000 1.0
C      1  0.5267420000000  0.5971490000000  0.5158360000000 1.0
C      1  0.4752190000000  0.4367070000000  0.5994990000000 1.0
C      1  0.5282080000000  0.4741670000000  0.4504220000000 1.0
C      1  0.5554260000000  0.5269320000000  0.5105620000000 1.0
C      1  0.4198400000000  0.4265030000000  0.4792790000000 1.0
C      1  0.4213240000000  0.4687990000000  0.5402950000000 1.0
C      1  0.5923320000000  0.4928660000000  0.5675850000000 1.0
C      1  0.5049210000000  0.5296450000000  0.3925400000000 1.0
C      1  0.6008820000000  0.4488030000000  0.4914400000000 1.0
C      1  0.4716470000000  0.5746150000000  0.5958470000000 1.0
C      1  0.5552460000000  0.4579380000000  0.4066660000000 1.0
C      1  0.4785230000000  0.4421750000000  0.4967580000000 1.0
C      1  0.5769280000000  0.5169880000000  0.5327220000000 1.0
C      1  0.5654800000000  0.4201560000000  0.4713360000000 1.0
C      1  0.4723960000000  0.6034480000000  0.4710860000000 1.0
C      1  0.5554870000000  0.4737920000000  0.5361070000000 1.0
C      1  0.5623790000000  0.4869740000000  0.4087270000000 1.0
C      1  0.4845940000000  0.5642490000000  0.4109030000000 1.0
C      1  0.5263160000000  0.4447250000000  0.6022090000000 1.0
C      1  0.5133750000000  0.4343920000000  0.4223900000000 1.0
C      1  0.4005380000000  0.4871840000000  0.4660800000000 1.0
C      1  0.5305300000000  0.4040860000000  0.5504570000000 1.0
C      1  0.5262430000000  0.5614130000000  0.5364270000000 1.0
C      1  0.4946160000000  0.5020910000000  0.5131520000000 1.0
C      1  0.4679900000000  0.5223570000000  0.6164510000000 1.0
C      1  0.6092530000000  0.5149270000000  0.5265480000000 1.0
C      1  0.3842130000000  0.5092080000000  0.4560570000000 1.0
C      1  0.5216810000000  0.5883610000000  0.4285070000000 1.0
C      1  0.5838510000000  0.4937690000000  0.4254410000000 1.0
C      1  0.5223860000000  0.4445880000000  0.5354970000000 1.0
C      1  0.4226030000000  0.4303080000000  0.4506140000000 1.0
C      1  0.4718930000000  0.4792030000000  0.5801660000000 1.0
C      1  0.5962920000000  0.5266430000000  0.4858390000000 1.0
C      1  0.5206060000000  0.4380530000000  0.4873930000000 1.0
C      1  0.4600570000000  0.4766810000000  0.5191830000000 1.0
C      1  0.5555140000000  0.4834240000000  0.4566550000000 1.0
C      1  0.5738240000000  0.5049270000000  0.5873140000000 1.0
C      1  0.4094960000000  0.5883010000000  0.5082110000000 1.0
C      1  0.5712910000000  0.4370590000000  0.5691590000000 1.0
C      1  0.4837330000000  0.4315950000000  0.4685480000000 1.0
C      1  0.4985850000000  0.5476110000000  0.4977370000000 1.0
C      1  0.4515390000000  0.4777990000000  0.4549480000000 1.0
C      1  0.5387950000000  0.4578490000000  0.5546340000000 1.0
C      1  0.5341170000000  0.5685150000000  0.4098410000000 1.0
C      1  0.4385920000000  0.4311630000000  0.4256910000000 1.0
C      1  0.4633980000000  0.4678850000000  0.4921140000000 1.0
C      1  0.6048010000000  0.5392130000000  0.5118690000000 1.0
C      1  0.5006990000000  0.5768070000000  0.5896030000000 1.0
C      1  0.5715320000000  0.4939960000000  0.5464700000000 1.0
C      1  0.4417120000000  0.5746830000000  0.4454510000000 1.0
C      1  0.5091430000000  0.5584050000000  0.3957560000000 1.0
C      1  0.4638360000000  0.4175410000000  0.4284180000000 1.0
C      1  0.4744280000000  0.5924120000000  0.5541380000000 1.0
C      1  0.5130440000000  0.4596890000000  0.4691910000000 1.0
C      1  0.5026060000000  0.5900700000000  0.5637530000000 1.0
C      1  0.5587580000000  0.4167470000000  0.5504000000000 1.0
C      1  0.5710380000000  0.4445840000000  0.4269440000000 1.0
C      1  0.5411100000000  0.4268770000000  0.4745470000000 1.0
C      1  0.4851060000000  0.4307540000000  0.5722040000000 1.0
C      1  0.3937120000000  0.5500800000000  0.4843870000000 1.0
C      1  0.5926320000000  0.4520280000000  0.5608770000000 1.0
C      1  0.5190580000000  0.3965930000000  0.4481180000000 1.0
C      1  0.4911270000000  0.5021730000000  0.5428940000000 1.0
C      1  0.5022730000000  0.4114430000000  0.5569470000000 1.0
C      1  0.3955370000000  0.5378330000000  0.4597780000000 1.0
C      1  0.4535190000000  0.5666200000000  0.5196400000000 1.0
C      1  0.4501330000000  0.4532750000000  0.6045320000000 1.0
C      1  0.4722050000000  0.4845260000000  0.4706090000000 1.0
C      1  0.5600750000000  0.4590340000000  0.5052880000000 1.0
C      1  0.4986600000000  0.6150390000000  0.5148640000000 1.0
C      1  0.4243950000000  0.5386620000000  0.5495790000000 1.0
C      1  0.3914460000000  0.4279020000000  0.5449670000000 1.0
C      1  0.5255790000000  0.5894910000000  0.5444720000000 1.0
C      1  0.4432760000000  0.5158860000000  0.5479420000000 1.0
C      1  0.4932120000000  0.5820400000000  0.4611570000000 1.0
C      1  0.4091250000000  0.4467320000000  0.4974990000000 1.0
C      1  0.4048720000000  0.4912540000000  0.4141390000000 1.0
C      1  0.3875860000000  0.5005180000000  0.4298180000000 1.0
C      1  0.4444800000000  0.4558090000000  0.4087130000000 1.0
END
