TITL C-884130-5973-140 5.799768266985 125000 -18978.9272447359 0 0 126 (C1) n - 1
REM
REM in /home/nfs/bkarasulu/CARBON/AIRSS/Generating-Clusters/ReaxFF-fromJPCA2015/Units_Real/with-SteepDescent/Only-C1/SD-CG/Try1-3A/FIRE-CG
REM
REM
REM
REM
REM
REM ./C.cell (11c1c37f851c82e70ff6c80c92926a4b)
REM
REM compiler GCC version 9.2.1 20190827 (Red Hat 9.2.1-1)
REM options -cpp -mtune=generic -march=x86-64 -g -O0 -fpre-include=/usr/include/finclude/math-vector-fortran.h
REM seed -885908466 153267901 -1028800944 1253733624 846741615 -1166274848 369814796 821244918 622490395 -2071296387 -881778118 -887269882 -191432789 -184409092 -550637747 637517258 2086304775 -1010686270 285080325 361992031 353359673 467143349 1748241204 -628509386 1845035942 -2115536517 636779799 1571755663 -1157207668 588990314 1548863524 1463733200 -1196971458
REM
CELL 1.54180   50.00000   50.00000   50.00000   90.00000   90.00000   90.00000
LATT -1
SFAC C  
C      1  0.5321420000000  0.5847150000000  0.5336730000000 1.0
C      1  0.4962470000000  0.5028290000000  0.4465780000000 1.0
C      1  0.4815090000000  0.5634280000000  0.4588950000000 1.0
C      1  0.4921130000000  0.4292780000000  0.4319970000000 1.0
C      1  0.5332230000000  0.4104740000000  0.4962790000000 1.0
C      1  0.5204340000000  0.5105770000000  0.4993810000000 1.0
C      1  0.5485510000000  0.5435470000000  0.5549980000000 1.0
C      1  0.5708230000000  0.5789700000000  0.4831250000000 1.0
C      1  0.5692000000000  0.5135560000000  0.5784600000000 1.0
C      1  0.4459540000000  0.4409440000000  0.5183650000000 1.0
C      1  0.4327910000000  0.4635590000000  0.5362380000000 1.0
C      1  0.5275400000000  0.4640630000000  0.5197740000000 1.0
C      1  0.5573430000000  0.4671010000000  0.4252820000000 1.0
C      1  0.5126570000000  0.5326170000000  0.4823350000000 1.0
C      1  0.5010880000000  0.4180750000000  0.4576470000000 1.0
C      1  0.4842130000000  0.4847800000000  0.4675430000000 1.0
C      1  0.4340740000000  0.5111290000000  0.4347920000000 1.0
C      1  0.4428930000000  0.4213200000000  0.4502920000000 1.0
C      1  0.5480380000000  0.5958230000000  0.4821980000000 1.0
C      1  0.5458920000000  0.5632040000000  0.4488530000000 1.0
C      1  0.5580860000000  0.4270610000000  0.5385500000000 1.0
C      1  0.4217210000000  0.4237280000000  0.4711280000000 1.0
C      1  0.4886100000000  0.5203810000000  0.5939460000000 1.0
C      1  0.4666430000000  0.5439710000000  0.5020430000000 1.0
C      1  0.4407550000000  0.4640980000000  0.4695150000000 1.0
C      1  0.4682170000000  0.4417590000000  0.5674560000000 1.0
C      1  0.5890240000000  0.4925270000000  0.5209460000000 1.0
C      1  0.5055370000000  0.4633900000000  0.4128170000000 1.0
C      1  0.5747010000000  0.5283720000000  0.5534970000000 1.0
C      1  0.5838900000000  0.4872040000000  0.4670600000000 1.0
C      1  0.5770240000000  0.5693720000000  0.5088110000000 1.0
C      1  0.4369000000000  0.5383230000000  0.4217730000000 1.0
C      1  0.5867780000000  0.4522700000000  0.5072710000000 1.0
C      1  0.4096870000000  0.4374620000000  0.4939340000000 1.0
C      1  0.5309480000000  0.5564330000000  0.5369960000000 1.0
C      1  0.5551070000000  0.4256200000000  0.5092490000000 1.0
C      1  0.4613260000000  0.5588630000000  0.5625700000000 1.0
C      1  0.5624650000000  0.5095020000000  0.4652450000000 1.0
C      1  0.4297990000000  0.5111660000000  0.4638230000000 1.0
C      1  0.5028490000000  0.5558340000000  0.5376310000000 1.0
C      1  0.4119810000000  0.5212440000000  0.5642160000000 1.0
C      1  0.4342270000000  0.5762220000000  0.5019290000000 1.0
C      1  0.5284360000000  0.4144050000000  0.4675680000000 1.0
C      1  0.4630260000000  0.4354030000000  0.4337550000000 1.0
C      1  0.5479920000000  0.4296030000000  0.4518200000000 1.0
C      1  0.4413040000000  0.4945820000000  0.5297050000000 1.0
C      1  0.4693910000000  0.4974450000000  0.5929880000000 1.0
C      1  0.4665840000000  0.4199480000000  0.5248830000000 1.0
C      1  0.5328320000000  0.5861170000000  0.4593440000000 1.0
C      1  0.5583850000000  0.4793850000000  0.5545960000000 1.0
C      1  0.4403730000000  0.5105070000000  0.5553480000000 1.0
C      1  0.5139380000000  0.4417860000000  0.4175370000000 1.0
C      1  0.5404540000000  0.4959920000000  0.4847930000000 1.0
C      1  0.5054780000000  0.5939350000000  0.4513580000000 1.0
C      1  0.4774170000000  0.5459000000000  0.5852850000000 1.0
C      1  0.4476140000000  0.5194660000000  0.4865440000000 1.0
C      1  0.4487580000000  0.4865170000000  0.5754070000000 1.0
C      1  0.4851670000000  0.4149010000000  0.5030180000000 1.0
C      1  0.5411420000000  0.6007940000000  0.5099460000000 1.0
C      1  0.5090810000000  0.5507690000000  0.4159250000000 1.0
C      1  0.4242030000000  0.5096780000000  0.5089930000000 1.0
C      1  0.5470400000000  0.4682280000000  0.4829300000000 1.0
C      1  0.4883190000000  0.5494240000000  0.4836820000000 1.0
C      1  0.4692380000000  0.4915920000000  0.5163430000000 1.0
C      1  0.5362730000000  0.4837940000000  0.5380370000000 1.0
C      1  0.5004700000000  0.5767080000000  0.4251210000000 1.0
C      1  0.5735570000000  0.5344970000000  0.4781150000000 1.0
C      1  0.4514400000000  0.4619980000000  0.4405360000000 1.0
C      1  0.5121520000000  0.4975800000000  0.5470930000000 1.0
C      1  0.5798740000000  0.5403640000000  0.5052460000000 1.0
C      1  0.5069140000000  0.4595190000000  0.5872420000000 1.0
C      1  0.5633440000000  0.4512080000000  0.4648980000000 1.0
C      1  0.4944080000000  0.5022750000000  0.4166860000000 1.0
C      1  0.4526980000000  0.4524750000000  0.4929820000000 1.0
C      1  0.4553270000000  0.5645530000000  0.4500450000000 1.0
C      1  0.4080740000000  0.5346320000000  0.5134120000000 1.0
C      1  0.4814410000000  0.5338490000000  0.5277380000000 1.0
C      1  0.4994290000000  0.5079160000000  0.5227000000000 1.0
C      1  0.5606610000000  0.5869300000000  0.5253910000000 1.0
C      1  0.5286480000000  0.5338370000000  0.5704250000000 1.0
C      1  0.4559420000000  0.5750690000000  0.5107590000000 1.0
C      1  0.5334880000000  0.4490520000000  0.5780170000000 1.0
C      1  0.4286080000000  0.5615060000000  0.4423600000000 1.0
C      1  0.4675400000000  0.4978180000000  0.4871340000000 1.0
C      1  0.5026210000000  0.4628770000000  0.5068670000000 1.0
C      1  0.5827030000000  0.4735880000000  0.5427330000000 1.0
C      1  0.4818960000000  0.4202900000000  0.5491720000000 1.0
C      1  0.5429710000000  0.4917830000000  0.4204840000000 1.0
C      1  0.5200330000000  0.5179550000000  0.5892270000000 1.0
C      1  0.4654510000000  0.5800240000000  0.5420330000000 1.0
C      1  0.5913160000000  0.4779150000000  0.4947780000000 1.0
C      1  0.4433950000000  0.4609300000000  0.5637800000000 1.0
C      1  0.4118420000000  0.5598650000000  0.4961630000000 1.0
C      1  0.5420470000000  0.4424630000000  0.4268850000000 1.0
C      1  0.4890460000000  0.5304360000000  0.4067160000000 1.0
C      1  0.5820980000000  0.4446230000000  0.5347610000000 1.0
C      1  0.4980090000000  0.4786520000000  0.5640630000000 1.0
C      1  0.4626940000000  0.5355900000000  0.4131980000000 1.0
C      1  0.5109420000000  0.4085960000000  0.5148540000000 1.0
C      1  0.4848980000000  0.4433270000000  0.5953310000000 1.0
C      1  0.5500110000000  0.4725550000000  0.5798800000000 1.0
C      1  0.4094180000000  0.4601310000000  0.5131260000000 1.0
C      1  0.4823360000000  0.4621450000000  0.5489560000000 1.0
C      1  0.4602380000000  0.5331370000000  0.5492510000000 1.0
C      1  0.5837920000000  0.5205350000000  0.5263390000000 1.0
C      1  0.4928690000000  0.5800560000000  0.5425250000000 1.0
C      1  0.5499940000000  0.5145930000000  0.4360250000000 1.0
C      1  0.4443290000000  0.4850520000000  0.4236280000000 1.0
C      1  0.5346300000000  0.4296230000000  0.5556970000000 1.0
C      1  0.4851660000000  0.4317240000000  0.4782370000000 1.0
C      1  0.4682500000000  0.5940880000000  0.4911340000000 1.0
C      1  0.5470670000000  0.4534660000000  0.5059560000000 1.0
C      1  0.5101030000000  0.4172000000000  0.5434380000000 1.0
C      1  0.5686880000000  0.5587280000000  0.4647240000000 1.0
C      1  0.5335930000000  0.5399590000000  0.4342900000000 1.0
C      1  0.4957590000000  0.4599170000000  0.4788140000000 1.0
C      1  0.5159150000000  0.4870060000000  0.4088330000000 1.0
C      1  0.4858460000000  0.6007200000000  0.4724560000000 1.0
C      1  0.5783300000000  0.4679080000000  0.4462410000000 1.0
C      1  0.4196800000000  0.4850440000000  0.4722190000000 1.0
C      1  0.5455800000000  0.5000600000000  0.5904640000000 1.0
C      1  0.4086610000000  0.4850070000000  0.4987400000000 1.0
C      1  0.4782630000000  0.4652420000000  0.5206720000000 1.0
C      1  0.3995580000000  0.5360630000000  0.5420850000000 1.0
C      1  0.4166680000000  0.5606200000000  0.4680100000000 1.0
C      1  0.5138340000000  0.5237640000000  0.4543980000000 1.0
END
