TITL C-884133-6611-494 23.2688911281995 125000 -28838.9555367153 0 0 193 (C1) n - 1
REM
REM in /home/nfs/bkarasulu/CARBON/AIRSS/Generating-Clusters/ReaxFF-fromJPCA2015/Units_Real/with-SteepDescent/Only-C1/SD-CG/Try1-3A/FIRE-CG
REM
REM
REM
REM
REM
REM ./C.cell (11c1c37f851c82e70ff6c80c92926a4b)
REM
REM compiler GCC version 9.2.1 20190827 (Red Hat 9.2.1-1)
REM options -cpp -mtune=generic -march=x86-64 -g -O0 -fpre-include=/usr/include/finclude/math-vector-fortran.h
REM seed 1469782522 -2112399696 -712969604 -1638462224 4173848 1137287672 -1293219017 -353511634 123702866 -1241207847 -941259039 -629844879 574940652 -1192059190 1425784751 -1914916976 -89680812 -1474389994 -170380295 218430824 -479171679 840861482 1578718347 527089169 739281300 -1121402839 -235647454 -166429480 708698139 1699291390 656546550 1431536721 2112212804
REM
CELL 1.54180   50.00000   50.00000   50.00000   90.00000   90.00000   90.00000
LATT -1
SFAC C  
C      1  0.4899650000000  0.5257130000000  0.4632710000000 1.0
C      1  0.4818650000000  0.5757770000000  0.4936470000000 1.0
C      1  0.4270680000000  0.5229690000000  0.4138260000000 1.0
C      1  0.4086470000000  0.4879520000000  0.4766470000000 1.0
C      1  0.4901640000000  0.4614160000000  0.4625170000000 1.0
C      1  0.5023450000000  0.5586120000000  0.4620020000000 1.0
C      1  0.6100580000000  0.4802060000000  0.5406200000000 1.0
C      1  0.5657930000000  0.5844510000000  0.4463000000000 1.0
C      1  0.4202370000000  0.4243120000000  0.5374170000000 1.0
C      1  0.5524480000000  0.4413090000000  0.4168410000000 1.0
C      1  0.5738590000000  0.5357330000000  0.5757150000000 1.0
C      1  0.4992920000000  0.5133230000000  0.3976010000000 1.0
C      1  0.6180070000000  0.5069570000000  0.5329260000000 1.0
C      1  0.4667720000000  0.5496510000000  0.5008800000000 1.0
C      1  0.5373320000000  0.6085670000000  0.4841780000000 1.0
C      1  0.5679630000000  0.4270960000000  0.4959940000000 1.0
C      1  0.5045960000000  0.4713690000000  0.5534230000000 1.0
C      1  0.4095830000000  0.5177360000000  0.4382280000000 1.0
C      1  0.4139590000000  0.5679490000000  0.4949210000000 1.0
C      1  0.5072990000000  0.6043250000000  0.5271560000000 1.0
C      1  0.5575540000000  0.5518140000000  0.4884940000000 1.0
C      1  0.4458550000000  0.4779090000000  0.3960870000000 1.0
C      1  0.4010140000000  0.4740410000000  0.5332780000000 1.0
C      1  0.5585920000000  0.4664000000000  0.5550730000000 1.0
C      1  0.5738100000000  0.4183900000000  0.5392640000000 1.0
C      1  0.4629450000000  0.6028460000000  0.5506910000000 1.0
C      1  0.5830360000000  0.4664410000000  0.4446550000000 1.0
C      1  0.4331730000000  0.5008560000000  0.4882430000000 1.0
C      1  0.5504990000000  0.4613330000000  0.4793560000000 1.0
C      1  0.5920770000000  0.5414320000000  0.4428900000000 1.0
C      1  0.5146260000000  0.3952020000000  0.5100370000000 1.0
C      1  0.5300370000000  0.4742020000000  0.5410900000000 1.0
C      1  0.4978790000000  0.4989770000000  0.4213190000000 1.0
C      1  0.4823890000000  0.5369820000000  0.3992840000000 1.0
C      1  0.6002950000000  0.5572280000000  0.5193930000000 1.0
C      1  0.4524860000000  0.5750080000000  0.5597080000000 1.0
C      1  0.5964090000000  0.4906550000000  0.5644100000000 1.0
C      1  0.3997300000000  0.5368990000000  0.4582430000000 1.0
C      1  0.4606310000000  0.4270670000000  0.5540010000000 1.0
C      1  0.4845590000000  0.4566630000000  0.4909620000000 1.0
C      1  0.6115720000000  0.5320890000000  0.5265730000000 1.0
C      1  0.4424110000000  0.5493990000000  0.5190050000000 1.0
C      1  0.5221390000000  0.5279720000000  0.5459910000000 1.0
C      1  0.5338000000000  0.6029570000000  0.5134750000000 1.0
C      1  0.5331290000000  0.4824820000000  0.4752200000000 1.0
C      1  0.4759350000000  0.6069080000000  0.5252250000000 1.0
C      1  0.4402210000000  0.4388720000000  0.4093930000000 1.0
C      1  0.4555630000000  0.6055150000000  0.5028700000000 1.0
C      1  0.5594200000000  0.4050350000000  0.4834250000000 1.0
C      1  0.5046160000000  0.5762350000000  0.5721010000000 1.0
C      1  0.5140810000000  0.4768940000000  0.4554790000000 1.0
C      1  0.4209880000000  0.4573700000000  0.4824990000000 1.0
C      1  0.5504840000000  0.5092460000000  0.5175360000000 1.0
C      1  0.5497080000000  0.5786930000000  0.5753860000000 1.0
C      1  0.5174180000000  0.5829190000000  0.4453100000000 1.0
C      1  0.5310990000000  0.4811990000000  0.3839840000000 1.0
C      1  0.4784270000000  0.4063840000000  0.5427740000000 1.0
C      1  0.4363580000000  0.5314910000000  0.5392250000000 1.0
C      1  0.5700280000000  0.4812860000000  0.5761100000000 1.0
C      1  0.5925360000000  0.5149240000000  0.4300690000000 1.0
C      1  0.3877750000000  0.5287300000000  0.4835320000000 1.0
C      1  0.4069970000000  0.4915330000000  0.4476570000000 1.0
C      1  0.5084130000000  0.5141350000000  0.4828500000000 1.0
C      1  0.5364630000000  0.5566080000000  0.5082400000000 1.0
C      1  0.4533290000000  0.5348180000000  0.4049170000000 1.0
C      1  0.6082080000000  0.5408430000000  0.4677220000000 1.0
C      1  0.3948870000000  0.5259290000000  0.5277410000000 1.0
C      1  0.4466010000000  0.5145690000000  0.4693000000000 1.0
C      1  0.4368980000000  0.4653860000000  0.5616650000000 1.0
C      1  0.4553470000000  0.4990490000000  0.4469960000000 1.0
C      1  0.4933260000000  0.6037020000000  0.4593420000000 1.0
C      1  0.5027590000000  0.4655280000000  0.6063240000000 1.0
C      1  0.4507880000000  0.4931650000000  0.5093320000000 1.0
C      1  0.5444410000000  0.5232740000000  0.4081650000000 1.0
C      1  0.4015330000000  0.4375300000000  0.4717650000000 1.0
C      1  0.5754300000000  0.5012020000000  0.5083800000000 1.0
C      1  0.4589470000000  0.4545430000000  0.5461550000000 1.0
C      1  0.4121250000000  0.5628080000000  0.4648010000000 1.0
C      1  0.5297130000000  0.3967770000000  0.4860210000000 1.0
C      1  0.5141540000000  0.4092420000000  0.4354880000000 1.0
C      1  0.5448920000000  0.5494560000000  0.4191100000000 1.0
C      1  0.4820740000000  0.5080220000000  0.5722450000000 1.0
C      1  0.5833750000000  0.4201380000000  0.5130050000000 1.0
C      1  0.5647850000000  0.4195000000000  0.4577540000000 1.0
C      1  0.5144720000000  0.5975320000000  0.5539120000000 1.0
C      1  0.4333870000000  0.4471390000000  0.5841920000000 1.0
C      1  0.4821150000000  0.4688930000000  0.5369100000000 1.0
C      1  0.4253440000000  0.4627670000000  0.4076230000000 1.0
C      1  0.5009800000000  0.4841910000000  0.5779540000000 1.0
C      1  0.5111980000000  0.3947310000000  0.4619540000000 1.0
C      1  0.4570720000000  0.3884120000000  0.4729570000000 1.0
C      1  0.5061590000000  0.5594730000000  0.4961340000000 1.0
C      1  0.4807590000000  0.4805230000000  0.5098840000000 1.0
C      1  0.5253960000000  0.5003060000000  0.5257430000000 1.0
C      1  0.4827430000000  0.4050360000000  0.5128230000000 1.0
C      1  0.5424070000000  0.4368300000000  0.4621130000000 1.0
C      1  0.4842220000000  0.3894840000000  0.4675580000000 1.0
C      1  0.4654400000000  0.5323360000000  0.4768310000000 1.0
C      1  0.4491680000000  0.4573550000000  0.4700810000000 1.0
C      1  0.5475410000000  0.5006290000000  0.4244780000000 1.0
C      1  0.4430860000000  0.5072860000000  0.3964190000000 1.0
C      1  0.5103520000000  0.6121730000000  0.4794890000000 1.0
C      1  0.5997940000000  0.4577940000000  0.5237250000000 1.0
C      1  0.5807640000000  0.5050140000000  0.4801940000000 1.0
C      1  0.4507280000000  0.4098170000000  0.4530480000000 1.0
C      1  0.4635110000000  0.4535120000000  0.3977160000000 1.0
C      1  0.4738070000000  0.5760090000000  0.4216740000000 1.0
C      1  0.4788220000000  0.5670810000000  0.4484820000000 1.0
C      1  0.6046160000000  0.5608590000000  0.4897250000000 1.0
C      1  0.5525900000000  0.4973500000000  0.5933850000000 1.0
C      1  0.4328770000000  0.5723160000000  0.5328760000000 1.0
C      1  0.4314070000000  0.5880950000000  0.5086550000000 1.0
C      1  0.5640570000000  0.5583910000000  0.5571750000000 1.0
C      1  0.5040640000000  0.4992510000000  0.5060410000000 1.0
C      1  0.4521720000000  0.5071940000000  0.5328290000000 1.0
C      1  0.5744740000000  0.4396390000000  0.4365720000000 1.0
C      1  0.4055330000000  0.4464100000000  0.5250050000000 1.0
C      1  0.4824950000000  0.5580510000000  0.5642980000000 1.0
C      1  0.4100270000000  0.5277460000000  0.5523520000000 1.0
C      1  0.5211080000000  0.5659750000000  0.4203740000000 1.0
C      1  0.4780440000000  0.5059950000000  0.6155240000000 1.0
C      1  0.4991240000000  0.4276410000000  0.5889110000000 1.0
C      1  0.4092610000000  0.4380720000000  0.4986210000000 1.0
C      1  0.4886720000000  0.4416800000000  0.4424730000000 1.0
C      1  0.5237860000000  0.3931800000000  0.5372150000000 1.0
C      1  0.5275820000000  0.5104470000000  0.3895330000000 1.0
C      1  0.5583190000000  0.5936890000000  0.5292040000000 1.0
C      1  0.5445790000000  0.5986100000000  0.5548950000000 1.0
C      1  0.5437550000000  0.4561970000000  0.3930020000000 1.0
C      1  0.6110430000000  0.5126770000000  0.4743180000000 1.0
C      1  0.4172890000000  0.4672400000000  0.4344120000000 1.0
C      1  0.4911350000000  0.4452560000000  0.3991360000000 1.0
C      1  0.4155520000000  0.5059140000000  0.5709780000000 1.0
C      1  0.5865460000000  0.5176190000000  0.5573100000000 1.0
C      1  0.5148360000000  0.4568860000000  0.3855480000000 1.0
C      1  0.4606330000000  0.4308500000000  0.4705430000000 1.0
C      1  0.4447000000000  0.4722850000000  0.4465270000000 1.0
C      1  0.5219240000000  0.4427050000000  0.6047280000000 1.0
C      1  0.3972650000000  0.5456820000000  0.5053730000000 1.0
C      1  0.4459310000000  0.5694000000000  0.4245150000000 1.0
C      1  0.5027630000000  0.4006180000000  0.5581050000000 1.0
C      1  0.5841120000000  0.5827650000000  0.4634930000000 1.0
C      1  0.4322720000000  0.4227150000000  0.4332950000000 1.0
C      1  0.4351010000000  0.5097930000000  0.5924630000000 1.0
C      1  0.5773500000000  0.5713790000000  0.5326240000000 1.0
C      1  0.4781910000000  0.5120780000000  0.5446500000000 1.0
C      1  0.5061470000000  0.5061590000000  0.6108190000000 1.0
C      1  0.5292370000000  0.5381850000000  0.5979930000000 1.0
C      1  0.4680840000000  0.5332120000000  0.6099560000000 1.0
C      1  0.4333430000000  0.4249920000000  0.5647710000000 1.0
C      1  0.6178760000000  0.4891840000000  0.4879610000000 1.0
C      1  0.4753560000000  0.4300630000000  0.4958060000000 1.0
C      1  0.4711800000000  0.5977740000000  0.4784680000000 1.0
C      1  0.6038830000000  0.4658120000000  0.4952930000000 1.0
C      1  0.4387000000000  0.5630940000000  0.5839310000000 1.0
C      1  0.5415100000000  0.5939070000000  0.4581870000000 1.0
C      1  0.5358210000000  0.5104710000000  0.4754160000000 1.0
C      1  0.4908330000000  0.5419190000000  0.5133200000000 1.0
C      1  0.4919890000000  0.5369370000000  0.5396880000000 1.0
C      1  0.5064860000000  0.4273650000000  0.5622640000000 1.0
C      1  0.4147940000000  0.4813730000000  0.5564060000000 1.0
C      1  0.4297720000000  0.5662550000000  0.4437790000000 1.0
C      1  0.4340170000000  0.4061360000000  0.5184580000000 1.0
C      1  0.4807480000000  0.5347100000000  0.5832330000000 1.0
C      1  0.5316280000000  0.4328190000000  0.4359690000000 1.0
C      1  0.5677130000000  0.5586130000000  0.4347590000000 1.0
C      1  0.5569910000000  0.5254910000000  0.5965440000000 1.0
C      1  0.5216470000000  0.4884220000000  0.4309870000000 1.0
C      1  0.4800340000000  0.4471140000000  0.6018170000000 1.0
C      1  0.4546340000000  0.4907940000000  0.6035510000000 1.0
C      1  0.5404070000000  0.5492510000000  0.5355110000000 1.0
C      1  0.5268930000000  0.5668810000000  0.5886450000000 1.0
C      1  0.5224500000000  0.5223910000000  0.5751200000000 1.0
C      1  0.4813610000000  0.5086650000000  0.4411290000000 1.0
C      1  0.4548980000000  0.3934840000000  0.5032230000000 1.0
C      1  0.4402640000000  0.5389250000000  0.5998290000000 1.0
C      1  0.5472970000000  0.4082430000000  0.5467040000000 1.0
C      1  0.4544010000000  0.4612390000000  0.5994510000000 1.0
C      1  0.5230210000000  0.4987810000000  0.5902460000000 1.0
C      1  0.4109990000000  0.4371800000000  0.4450710000000 1.0
C      1  0.5592040000000  0.5254600000000  0.4771430000000 1.0
C      1  0.5754800000000  0.4906620000000  0.4291460000000 1.0
C      1  0.5307270000000  0.4319440000000  0.5485280000000 1.0
C      1  0.5798210000000  0.5711370000000  0.4853200000000 1.0
C      1  0.4921180000000  0.4240650000000  0.4215890000000 1.0
C      1  0.3898890000000  0.4978730000000  0.5199660000000 1.0
C      1  0.5777160000000  0.4484440000000  0.5418200000000 1.0
C      1  0.4958350000000  0.5615660000000  0.4072270000000 1.0
C      1  0.3866030000000  0.5008480000000  0.4917970000000 1.0
C      1  0.5818390000000  0.4719860000000  0.4738470000000 1.0
C      1  0.5733150000000  0.5172420000000  0.5309890000000 1.0
C      1  0.5312890000000  0.4488950000000  0.5252790000000 1.0
C      1  0.5492570000000  0.4469380000000  0.5037210000000 1.0
END
