TITL C-884131-4643-114 19.4254072085408 125000 -27196.1983657385 0 0 182 (C1) n - 1
REM
REM in /home/nfs/bkarasulu/CARBON/AIRSS/Generating-Clusters/ReaxFF-fromJPCA2015/Units_Real/with-SteepDescent/Only-C1/SD-CG/Try1-3A/FIRE-CG
REM
REM
REM
REM
REM
REM ./C.cell (11c1c37f851c82e70ff6c80c92926a4b)
REM
REM compiler GCC version 9.2.1 20190827 (Red Hat 9.2.1-1)
REM options -cpp -mtune=generic -march=x86-64 -g -O0 -fpre-include=/usr/include/finclude/math-vector-fortran.h
REM seed 722251069 -264845992 -561278776 162423611 1386292107 -531852393 1017958596 1569072650 -274229555 1856996067 -710473873 -699109448 874486986 910430068 603002314 -600284815 -1260213763 1523209704 -2086885696 -45261837 946115791 -1273784418 1111386663 998427623 -1661386925 -1291638598 1609846644 -1791960524 320502297 1385577188 459290714 604533099 1325165128
REM
CELL 1.54180   50.00000   50.00000   50.00000   90.00000   90.00000   90.00000
LATT -1
SFAC C  
C      1  0.4860110000000  0.4623870000000  0.3848960000000 1.0
C      1  0.5372870000000  0.6141560000000  0.4856590000000 1.0
C      1  0.4369900000000  0.4621160000000  0.5892030000000 1.0
C      1  0.6109120000000  0.4564690000000  0.4964260000000 1.0
C      1  0.5269000000000  0.4027640000000  0.5544490000000 1.0
C      1  0.3935780000000  0.4927400000000  0.5469240000000 1.0
C      1  0.5273640000000  0.4315990000000  0.5654580000000 1.0
C      1  0.4785390000000  0.4105180000000  0.5696240000000 1.0
C      1  0.5092950000000  0.5532500000000  0.5694370000000 1.0
C      1  0.5302220000000  0.5333700000000  0.4590400000000 1.0
C      1  0.3979600000000  0.5196280000000  0.5413340000000 1.0
C      1  0.4119480000000  0.5468070000000  0.5025140000000 1.0
C      1  0.3928690000000  0.4963730000000  0.4958000000000 1.0
C      1  0.5189380000000  0.5167320000000  0.5259100000000 1.0
C      1  0.4952180000000  0.4495560000000  0.4395850000000 1.0
C      1  0.4987960000000  0.4983120000000  0.4872930000000 1.0
C      1  0.5042520000000  0.4824260000000  0.6208000000000 1.0
C      1  0.4731030000000  0.4402740000000  0.5232930000000 1.0
C      1  0.4846240000000  0.5300760000000  0.3973740000000 1.0
C      1  0.4988050000000  0.5557800000000  0.5964400000000 1.0
C      1  0.5446510000000  0.5342090000000  0.4889510000000 1.0
C      1  0.4802860000000  0.4796280000000  0.5254060000000 1.0
C      1  0.4066300000000  0.4683710000000  0.4522780000000 1.0
C      1  0.4974760000000  0.6050840000000  0.4593510000000 1.0
C      1  0.5617190000000  0.4813400000000  0.5418930000000 1.0
C      1  0.4636810000000  0.5095830000000  0.3936920000000 1.0
C      1  0.4472520000000  0.5127810000000  0.4943130000000 1.0
C      1  0.5094910000000  0.5097430000000  0.6134160000000 1.0
C      1  0.5836330000000  0.4207930000000  0.5226850000000 1.0
C      1  0.4497020000000  0.4868120000000  0.5925330000000 1.0
C      1  0.5687590000000  0.4579970000000  0.4313050000000 1.0
C      1  0.4863940000000  0.4321050000000  0.4195190000000 1.0
C      1  0.5722260000000  0.5364390000000  0.6007470000000 1.0
C      1  0.4457860000000  0.4712290000000  0.3898770000000 1.0
C      1  0.6192350000000  0.5364260000000  0.5149340000000 1.0
C      1  0.5583250000000  0.4620750000000  0.5817520000000 1.0
C      1  0.5875920000000  0.5825140000000  0.5157290000000 1.0
C      1  0.4801320000000  0.5775020000000  0.5862940000000 1.0
C      1  0.4287540000000  0.5307040000000  0.4223620000000 1.0
C      1  0.4769120000000  0.5502850000000  0.4179640000000 1.0
C      1  0.5874790000000  0.4671240000000  0.5367120000000 1.0
C      1  0.4468300000000  0.5113040000000  0.5446650000000 1.0
C      1  0.5199550000000  0.5513890000000  0.4054470000000 1.0
C      1  0.5499600000000  0.5917890000000  0.4718150000000 1.0
C      1  0.5078680000000  0.4100130000000  0.5740910000000 1.0
C      1  0.4319780000000  0.4620060000000  0.4083320000000 1.0
C      1  0.4900030000000  0.5183160000000  0.5231670000000 1.0
C      1  0.5185620000000  0.4945420000000  0.5075900000000 1.0
C      1  0.5240710000000  0.5060260000000  0.4519790000000 1.0
C      1  0.5062940000000  0.5121740000000  0.4069330000000 1.0
C      1  0.4329690000000  0.4757480000000  0.5193610000000 1.0
C      1  0.4202860000000  0.5731980000000  0.4877940000000 1.0
C      1  0.5940160000000  0.5701600000000  0.4895070000000 1.0
C      1  0.4172580000000  0.4728340000000  0.5437530000000 1.0
C      1  0.5587220000000  0.4396430000000  0.5667730000000 1.0
C      1  0.5271820000000  0.4979060000000  0.5915970000000 1.0
C      1  0.4769660000000  0.5407250000000  0.5331000000000 1.0
C      1  0.4360660000000  0.5039370000000  0.5188830000000 1.0
C      1  0.4898560000000  0.5262160000000  0.4839450000000 1.0
C      1  0.4992640000000  0.4297720000000  0.4813490000000 1.0
C      1  0.5364180000000  0.5505290000000  0.5596100000000 1.0
C      1  0.4628080000000  0.5571240000000  0.5757850000000 1.0
C      1  0.5630860000000  0.4021850000000  0.5177570000000 1.0
C      1  0.4270030000000  0.5670290000000  0.4600270000000 1.0
C      1  0.4100750000000  0.4446240000000  0.4991680000000 1.0
C      1  0.4468270000000  0.6191570000000  0.4630670000000 1.0
C      1  0.5309350000000  0.4664040000000  0.4640250000000 1.0
C      1  0.5246880000000  0.3967020000000  0.4574390000000 1.0
C      1  0.6124510000000  0.4713030000000  0.4731200000000 1.0
C      1  0.4165780000000  0.4517190000000  0.4289130000000 1.0
C      1  0.4620730000000  0.4151010000000  0.5933560000000 1.0
C      1  0.5113750000000  0.5836840000000  0.4456590000000 1.0
C      1  0.5951940000000  0.4314820000000  0.4969120000000 1.0
C      1  0.4930160000000  0.3991850000000  0.5210440000000 1.0
C      1  0.4736010000000  0.5001800000000  0.5432940000000 1.0
C      1  0.4038110000000  0.5453010000000  0.5333820000000 1.0
C      1  0.5773700000000  0.5600310000000  0.4453170000000 1.0
C      1  0.4364450000000  0.5563760000000  0.4128770000000 1.0
C      1  0.5547270000000  0.5651870000000  0.4257060000000 1.0
C      1  0.5925230000000  0.5187400000000  0.5846280000000 1.0
C      1  0.4674150000000  0.4339080000000  0.5506260000000 1.0
C      1  0.5309510000000  0.5257520000000  0.3984980000000 1.0
C      1  0.4461740000000  0.5820680000000  0.4439700000000 1.0
C      1  0.5376190000000  0.5246880000000  0.5457490000000 1.0
C      1  0.4732880000000  0.3872700000000  0.4789790000000 1.0
C      1  0.5076590000000  0.4734210000000  0.5233290000000 1.0
C      1  0.5120410000000  0.5695300000000  0.4973380000000 1.0
C      1  0.4899240000000  0.5295580000000  0.6054770000000 1.0
C      1  0.5017540000000  0.6000990000000  0.5401850000000 1.0
C      1  0.4872470000000  0.5033400000000  0.5691270000000 1.0
C      1  0.5786630000000  0.5102150000000  0.4291060000000 1.0
C      1  0.4496310000000  0.5090910000000  0.4195930000000 1.0
C      1  0.4792330000000  0.5331910000000  0.4420430000000 1.0
C      1  0.4435110000000  0.4055440000000  0.5026140000000 1.0
C      1  0.4321040000000  0.5862300000000  0.5365310000000 1.0
C      1  0.4872580000000  0.5530030000000  0.4956690000000 1.0
C      1  0.4763240000000  0.4124410000000  0.4385530000000 1.0
C      1  0.5252240000000  0.5757720000000  0.4699690000000 1.0
C      1  0.5457000000000  0.5387450000000  0.4335950000000 1.0
C      1  0.4488090000000  0.4131440000000  0.4488670000000 1.0
C      1  0.4583750000000  0.5995440000000  0.5418060000000 1.0
C      1  0.4823270000000  0.4763560000000  0.4772010000000 1.0
C      1  0.4546830000000  0.5695420000000  0.4189080000000 1.0
C      1  0.4414030000000  0.5215140000000  0.5707320000000 1.0
C      1  0.4277030000000  0.4273530000000  0.5159650000000 1.0
C      1  0.4185810000000  0.4938580000000  0.4579390000000 1.0
C      1  0.4472790000000  0.4970030000000  0.4688180000000 1.0
C      1  0.5795470000000  0.4402270000000  0.5451650000000 1.0
C      1  0.4684540000000  0.3890440000000  0.5080530000000 1.0
C      1  0.5315600000000  0.4455940000000  0.3960120000000 1.0
C      1  0.5007280000000  0.5380630000000  0.4601370000000 1.0
C      1  0.4836990000000  0.5425790000000  0.5607070000000 1.0
C      1  0.5026260000000  0.4984750000000  0.4335400000000 1.0
C      1  0.3911110000000  0.4691140000000  0.5048230000000 1.0
C      1  0.5960300000000  0.4789460000000  0.5104330000000 1.0
C      1  0.4948040000000  0.5987070000000  0.5096990000000 1.0
C      1  0.4634940000000  0.5548960000000  0.5119170000000 1.0
C      1  0.4866560000000  0.4500610000000  0.4670620000000 1.0
C      1  0.4258980000000  0.4309850000000  0.4480870000000 1.0
C      1  0.5182540000000  0.4687040000000  0.4374430000000 1.0
C      1  0.6058370000000  0.4903690000000  0.4545900000000 1.0
C      1  0.4462340000000  0.3972830000000  0.4738490000000 1.0
C      1  0.5282530000000  0.4433050000000  0.4828980000000 1.0
C      1  0.6008680000000  0.5395690000000  0.5390880000000 1.0
C      1  0.4618190000000  0.4461610000000  0.5929320000000 1.0
C      1  0.5632950000000  0.5970980000000  0.5238880000000 1.0
C      1  0.5435110000000  0.4133840000000  0.4427170000000 1.0
C      1  0.4821700000000  0.5947020000000  0.5608240000000 1.0
C      1  0.5424780000000  0.4605360000000  0.4176940000000 1.0
C      1  0.5266110000000  0.5745230000000  0.4205340000000 1.0
C      1  0.5518850000000  0.5651700000000  0.5316830000000 1.0
C      1  0.4550020000000  0.4735060000000  0.4849560000000 1.0
C      1  0.4419100000000  0.5400520000000  0.4998620000000 1.0
C      1  0.4653370000000  0.6040030000000  0.4555740000000 1.0
C      1  0.4235010000000  0.4519960000000  0.5626470000000 1.0
C      1  0.5083710000000  0.4833690000000  0.5739790000000 1.0
C      1  0.3954650000000  0.5231440000000  0.4886960000000 1.0
C      1  0.5512650000000  0.6210210000000  0.5121450000000 1.0
C      1  0.5006450000000  0.4411670000000  0.3937090000000 1.0
C      1  0.5753650000000  0.5055850000000  0.6027040000000 1.0
C      1  0.5376290000000  0.5547370000000  0.5074380000000 1.0
C      1  0.4685410000000  0.5057460000000  0.4418650000000 1.0
C      1  0.5080480000000  0.6126460000000  0.4854310000000 1.0
C      1  0.5889240000000  0.5185380000000  0.5558820000000 1.0
C      1  0.5262060000000  0.4540550000000  0.5125220000000 1.0
C      1  0.5843860000000  0.5013880000000  0.4948340000000 1.0
C      1  0.4918440000000  0.4260680000000  0.5092460000000 1.0
C      1  0.4035040000000  0.5191310000000  0.4611100000000 1.0
C      1  0.5191170000000  0.3893790000000  0.5298410000000 1.0
C      1  0.5564040000000  0.5208280000000  0.4132920000000 1.0
C      1  0.5048890000000  0.4565490000000  0.6120630000000 1.0
C      1  0.4653880000000  0.5119750000000  0.5899020000000 1.0
C      1  0.3749370000000  0.4759550000000  0.5292340000000 1.0
C      1  0.5851310000000  0.4820910000000  0.4356650000000 1.0
C      1  0.5420480000000  0.3856990000000  0.5107900000000 1.0
C      1  0.4347600000000  0.5498050000000  0.5716450000000 1.0
C      1  0.5668690000000  0.4324390000000  0.4464650000000 1.0
C      1  0.5541940000000  0.4856860000000  0.5965080000000 1.0
C      1  0.6086390000000  0.5442820000000  0.4888200000000 1.0
C      1  0.5418340000000  0.3943180000000  0.4813460000000 1.0
C      1  0.5406920000000  0.4914890000000  0.4692110000000 1.0
C      1  0.4937310000000  0.4028080000000  0.4619690000000 1.0
C      1  0.5564090000000  0.5076660000000  0.4904850000000 1.0
C      1  0.4200410000000  0.5629750000000  0.5498730000000 1.0
C      1  0.5503180000000  0.4225210000000  0.4830150000000 1.0
C      1  0.4370570000000  0.5878730000000  0.5070930000000 1.0
C      1  0.4591170000000  0.4640400000000  0.5129450000000 1.0
C      1  0.4174570000000  0.5417490000000  0.4471160000000 1.0
C      1  0.4357180000000  0.4345730000000  0.5437170000000 1.0
C      1  0.5543020000000  0.5508610000000  0.5856500000000 1.0
C      1  0.5620870000000  0.5106350000000  0.5464430000000 1.0
C      1  0.5473480000000  0.4642600000000  0.5250670000000 1.0
C      1  0.5060610000000  0.4550760000000  0.5788070000000 1.0
C      1  0.5816190000000  0.5610900000000  0.5350020000000 1.0
C      1  0.5983880000000  0.5191110000000  0.4723330000000 1.0
C      1  0.5764270000000  0.5782280000000  0.4681500000000 1.0
C      1  0.4640840000000  0.6001290000000  0.5133580000000 1.0
C      1  0.4791740000000  0.4539930000000  0.5704650000000 1.0
C      1  0.5775300000000  0.4279180000000  0.4744750000000 1.0
C      1  0.4121040000000  0.4450900000000  0.4704930000000 1.0
C      1  0.5859790000000  0.5316220000000  0.4485010000000 1.0
C      1  0.4686640000000  0.4836390000000  0.3783540000000 1.0
END
