TITL C-883732-77-444 18.4928693770531 125000 -21264.3894826103 0 0 143 (C1) n - 1
REM
REM in /home/nfs/bkarasulu/CARBON/AIRSS/Generating-Clusters/ReaxFF-fromJPCA2015/Units_Real/with-SteepDescent/Only-C1/SD-CG/Try1-3A/FIRE-CG
REM
REM
REM
REM
REM
REM ./C.cell (11c1c37f851c82e70ff6c80c92926a4b)
REM
REM compiler GCC version 9.2.1 20190827 (Red Hat 9.2.1-1)
REM options -cpp -mtune=generic -march=x86-64 -g -O0 -fpre-include=/usr/include/finclude/math-vector-fortran.h
REM seed -1365849117 190806118 1507410570 -1052156186 1270023756 -1831332751 1266005224 1395661760 1368751810 988923283 -974966854 -271221312 -1860012670 1042585459 -1068414451 -396841045 -970592 -1841279420 1021884978 2084057567 1720078757 1616335461 -1661735357 -790652744 -1816267481 -971603835 -346273607 1030780778 1462503356 619687833 -27366106 227519465 2067677655
REM
CELL 1.54180   50.00000   50.00000   50.00000   90.00000   90.00000   90.00000
LATT -1
SFAC C  
C      1  0.4514340000000  0.5687880000000  0.4600230000000 1.0
C      1  0.5442550000000  0.4671700000000  0.4112500000000 1.0
C      1  0.4588830000000  0.4407800000000  0.4570350000000 1.0
C      1  0.5698370000000  0.5557660000000  0.5390060000000 1.0
C      1  0.5264770000000  0.5272620000000  0.4011770000000 1.0
C      1  0.5682900000000  0.5000940000000  0.5597180000000 1.0
C      1  0.4927470000000  0.4002270000000  0.5071510000000 1.0
C      1  0.5085830000000  0.5065090000000  0.3939010000000 1.0
C      1  0.5165430000000  0.3990400000000  0.4904620000000 1.0
C      1  0.4732380000000  0.5308830000000  0.4114960000000 1.0
C      1  0.4362460000000  0.4229380000000  0.5011730000000 1.0
C      1  0.4800060000000  0.4650900000000  0.5140520000000 1.0
C      1  0.4743770000000  0.4725620000000  0.4037970000000 1.0
C      1  0.5777650000000  0.5628360000000  0.4739260000000 1.0
C      1  0.4636280000000  0.5299260000000  0.5891420000000 1.0
C      1  0.5086560000000  0.5545500000000  0.5205100000000 1.0
C      1  0.4686820000000  0.5316700000000  0.5171770000000 1.0
C      1  0.4931250000000  0.4100870000000  0.4816530000000 1.0
C      1  0.5316250000000  0.5590460000000  0.5016100000000 1.0
C      1  0.4430210000000  0.5880130000000  0.5220200000000 1.0
C      1  0.4860760000000  0.5920910000000  0.4821380000000 1.0
C      1  0.4832330000000  0.5122480000000  0.5040690000000 1.0
C      1  0.5609470000000  0.5005680000000  0.4285860000000 1.0
C      1  0.5200400000000  0.5915810000000  0.4347700000000 1.0
C      1  0.5937500000000  0.4631050000000  0.5387950000000 1.0
C      1  0.4973450000000  0.4975500000000  0.4402020000000 1.0
C      1  0.5635490000000  0.4704390000000  0.4294760000000 1.0
C      1  0.4137800000000  0.5520770000000  0.5330360000000 1.0
C      1  0.5073170000000  0.5504560000000  0.4570770000000 1.0
C      1  0.4818460000000  0.4785270000000  0.4563320000000 1.0
C      1  0.4275080000000  0.5009160000000  0.4082500000000 1.0
C      1  0.4429140000000  0.4870350000000  0.5335160000000 1.0
C      1  0.5280950000000  0.4597390000000  0.4960410000000 1.0
C      1  0.5608880000000  0.4103910000000  0.4989960000000 1.0
C      1  0.4185290000000  0.4159270000000  0.4520450000000 1.0
C      1  0.4375490000000  0.5451670000000  0.4690490000000 1.0
C      1  0.4754050000000  0.5210030000000  0.4798740000000 1.0
C      1  0.5603160000000  0.4127930000000  0.5273640000000 1.0
C      1  0.4134640000000  0.4601390000000  0.4283140000000 1.0
C      1  0.4104920000000  0.4891120000000  0.4300230000000 1.0
C      1  0.4507990000000  0.4882500000000  0.3958720000000 1.0
C      1  0.4482140000000  0.4121560000000  0.5259780000000 1.0
C      1  0.5461800000000  0.4940140000000  0.5930250000000 1.0
C      1  0.4417610000000  0.4902770000000  0.4788110000000 1.0
C      1  0.5802770000000  0.5522170000000  0.4467530000000 1.0
C      1  0.4195360000000  0.5479280000000  0.4924850000000 1.0
C      1  0.5593040000000  0.5449570000000  0.5772430000000 1.0
C      1  0.5796310000000  0.5095940000000  0.4764180000000 1.0
C      1  0.4961440000000  0.6071100000000  0.5232930000000 1.0
C      1  0.4326550000000  0.4262050000000  0.5464900000000 1.0
C      1  0.5297950000000  0.5435090000000  0.4736900000000 1.0
C      1  0.4181050000000  0.4492720000000  0.5354300000000 1.0
C      1  0.4741410000000  0.4344790000000  0.5751240000000 1.0
C      1  0.5604440000000  0.5428170000000  0.5119590000000 1.0
C      1  0.4701290000000  0.5905530000000  0.4555710000000 1.0
C      1  0.5454660000000  0.4911050000000  0.5425790000000 1.0
C      1  0.4911160000000  0.5902130000000  0.4344620000000 1.0
C      1  0.4978980000000  0.4609910000000  0.4699000000000 1.0
C      1  0.5398340000000  0.4121480000000  0.4787350000000 1.0
C      1  0.4368600000000  0.5212000000000  0.5780740000000 1.0
C      1  0.5304650000000  0.4649280000000  0.5576780000000 1.0
C      1  0.4749630000000  0.4458450000000  0.4117990000000 1.0
C      1  0.4884050000000  0.4164290000000  0.5565460000000 1.0
C      1  0.4911150000000  0.4331880000000  0.4637950000000 1.0
C      1  0.4674890000000  0.5571850000000  0.6086610000000 1.0
C      1  0.4673950000000  0.5252240000000  0.5452020000000 1.0
C      1  0.5521890000000  0.4440410000000  0.5611430000000 1.0
C      1  0.5276940000000  0.4970090000000  0.4626970000000 1.0
C      1  0.5774610000000  0.4584520000000  0.5633970000000 1.0
C      1  0.5105810000000  0.5296790000000  0.6013280000000 1.0
C      1  0.5455140000000  0.5255630000000  0.4228900000000 1.0
C      1  0.5925070000000  0.5128250000000  0.5500240000000 1.0
C      1  0.5081390000000  0.4532670000000  0.5414590000000 1.0
C      1  0.5573060000000  0.4597850000000  0.5031930000000 1.0
C      1  0.4193810000000  0.5098870000000  0.5585340000000 1.0
C      1  0.5492730000000  0.5478370000000  0.4436200000000 1.0
C      1  0.5539960000000  0.5833180000000  0.4725570000000 1.0
C      1  0.5060210000000  0.4597890000000  0.5150450000000 1.0
C      1  0.5428340000000  0.4201630000000  0.5486830000000 1.0
C      1  0.5399470000000  0.4297080000000  0.4551800000000 1.0
C      1  0.4787860000000  0.4621130000000  0.5849400000000 1.0
C      1  0.5240570000000  0.4520640000000  0.4092280000000 1.0
C      1  0.4395370000000  0.4209000000000  0.4715410000000 1.0
C      1  0.5283080000000  0.5151050000000  0.4877400000000 1.0
C      1  0.4972170000000  0.4834040000000  0.5932140000000 1.0
C      1  0.4451820000000  0.4359530000000  0.5715430000000 1.0
C      1  0.5610580000000  0.4914730000000  0.5177810000000 1.0
C      1  0.5102710000000  0.5087060000000  0.5111760000000 1.0
C      1  0.4975510000000  0.4882370000000  0.4119540000000 1.0
C      1  0.4582060000000  0.4813750000000  0.5771950000000 1.0
C      1  0.4506940000000  0.5173840000000  0.4685140000000 1.0
C      1  0.4673510000000  0.5738250000000  0.5508050000000 1.0
C      1  0.5221240000000  0.5270560000000  0.5574640000000 1.0
C      1  0.4824700000000  0.5556450000000  0.5116170000000 1.0
C      1  0.5249820000000  0.5776510000000  0.5560420000000 1.0
C      1  0.5512060000000  0.5152360000000  0.5056660000000 1.0
C      1  0.4626570000000  0.4976660000000  0.5517560000000 1.0
C      1  0.5063950000000  0.5675020000000  0.4336400000000 1.0
C      1  0.5023440000000  0.4363080000000  0.4161260000000 1.0
C      1  0.5705330000000  0.4818530000000  0.5820120000000 1.0
C      1  0.5223360000000  0.4708280000000  0.4719930000000 1.0
C      1  0.5246650000000  0.4767410000000  0.5861870000000 1.0
C      1  0.4297650000000  0.4499740000000  0.5095640000000 1.0
C      1  0.5571370000000  0.5038820000000  0.4575710000000 1.0
C      1  0.5137550000000  0.4242890000000  0.5444830000000 1.0
C      1  0.5804540000000  0.5372840000000  0.4891300000000 1.0
C      1  0.5909170000000  0.4834880000000  0.4852560000000 1.0
C      1  0.4357110000000  0.4633460000000  0.5749560000000 1.0
C      1  0.5098280000000  0.6035920000000  0.4976910000000 1.0
C      1  0.5690130000000  0.4333760000000  0.5122070000000 1.0
C      1  0.4547350000000  0.4709950000000  0.4603490000000 1.0
C      1  0.5435030000000  0.5782000000000  0.4458560000000 1.0
C      1  0.5154100000000  0.5958740000000  0.5376270000000 1.0
C      1  0.4521160000000  0.4723900000000  0.5087350000000 1.0
C      1  0.4023060000000  0.5007470000000  0.4571200000000 1.0
C      1  0.4762120000000  0.5489060000000  0.5616490000000 1.0
C      1  0.5349940000000  0.5879640000000  0.4940940000000 1.0
C      1  0.4098960000000  0.5251940000000  0.5344160000000 1.0
C      1  0.5091700000000  0.5515470000000  0.5494920000000 1.0
C      1  0.4773390000000  0.5202510000000  0.4382850000000 1.0
C      1  0.4126510000000  0.4999940000000  0.4838180000000 1.0
C      1  0.4769690000000  0.4078900000000  0.5307680000000 1.0
C      1  0.4210350000000  0.4753320000000  0.5516860000000 1.0
C      1  0.5907670000000  0.5018490000000  0.5229220000000 1.0
C      1  0.4667420000000  0.5965550000000  0.5343850000000 1.0
C      1  0.4553790000000  0.4352360000000  0.4281990000000 1.0
C      1  0.4502370000000  0.5173140000000  0.3992660000000 1.0
C      1  0.5135230000000  0.4293270000000  0.4424220000000 1.0
C      1  0.4212340000000  0.5713210000000  0.5139920000000 1.0
C      1  0.5225720000000  0.5082900000000  0.5375730000000 1.0
C      1  0.4884820000000  0.5121200000000  0.5969060000000 1.0
C      1  0.4979360000000  0.5322190000000  0.3960420000000 1.0
C      1  0.5734540000000  0.4619110000000  0.4764070000000 1.0
C      1  0.6020790000000  0.4767810000000  0.5142580000000 1.0
C      1  0.5820960000000  0.5386990000000  0.5589300000000 1.0
C      1  0.5606700000000  0.4516400000000  0.4528490000000 1.0
C      1  0.4846150000000  0.5361700000000  0.4598840000000 1.0
C      1  0.5524560000000  0.5677920000000  0.5598010000000 1.0
C      1  0.4767670000000  0.5710590000000  0.4910320000000 1.0
C      1  0.4263850000000  0.4339270000000  0.4278260000000 1.0
C      1  0.4106980000000  0.5230190000000  0.5033440000000 1.0
C      1  0.5372140000000  0.5246090000000  0.5836360000000 1.0
C      1  0.4944200000000  0.5514040000000  0.6078850000000 1.0
END
