TITL C-883731-9874-63 71.1071033190862 125000 -16457.9392750277 0 0 113 (C1) n - 1
REM
REM in /home/nfs/bkarasulu/CARBON/AIRSS/Generating-Clusters/ReaxFF-fromJPCA2015/Units_Real/with-SteepDescent/Only-C1/SD-CG/Try1-3A/FIRE-CG
REM
REM
REM
REM
REM
REM ./C.cell (11c1c37f851c82e70ff6c80c92926a4b)
REM
REM compiler GCC version 9.2.1 20190827 (Red Hat 9.2.1-1)
REM options -cpp -mtune=generic -march=x86-64 -g -O0 -fpre-include=/usr/include/finclude/math-vector-fortran.h
REM seed 1118711481 1846844564 1087041351 -458777818 -1746273836 -517735805 -1772804943 1706356237 -288964571 -770593949 -430450671 825578485 1439861610 1984024230 1341090711 -1816912683 185052881 -628649293 -966502634 -1624304931 2129762661 -891182802 395214767 1964220957 -1999605351 -198275372 1994497196 974492560 -1798366269 -211277567 906635539 -1599930031 -1247403305
REM
CELL 1.54180   50.00000   50.00000   50.00000   90.00000   90.00000   90.00000
LATT -1
SFAC C  
C      1  0.5212950000000  0.4241600000000  0.4784440000000 1.0
C      1  0.4389640000000  0.4621330000000  0.4379930000000 1.0
C      1  0.5592770000000  0.4849410000000  0.4269770000000 1.0
C      1  0.4684600000000  0.5266390000000  0.4123460000000 1.0
C      1  0.5313610000000  0.4809950000000  0.4178610000000 1.0
C      1  0.5392600000000  0.5670020000000  0.5599330000000 1.0
C      1  0.4910360000000  0.4454680000000  0.4758970000000 1.0
C      1  0.4528600000000  0.5231610000000  0.5438740000000 1.0
C      1  0.4927380000000  0.4268880000000  0.5473010000000 1.0
C      1  0.5302770000000  0.4722360000000  0.5020530000000 1.0
C      1  0.5151490000000  0.4566880000000  0.4237980000000 1.0
C      1  0.5019680000000  0.4180370000000  0.5205280000000 1.0
C      1  0.4682430000000  0.4810460000000  0.5850960000000 1.0
C      1  0.5405440000000  0.4294740000000  0.5432050000000 1.0
C      1  0.5719310000000  0.4682170000000  0.4469350000000 1.0
C      1  0.5231000000000  0.5512340000000  0.5777750000000 1.0
C      1  0.5349870000000  0.5829680000000  0.5092180000000 1.0
C      1  0.5740430000000  0.5384000000000  0.4930560000000 1.0
C      1  0.4817970000000  0.4774420000000  0.5273220000000 1.0
C      1  0.4441780000000  0.5622410000000  0.4833400000000 1.0
C      1  0.5212050000000  0.4797270000000  0.5855110000000 1.0
C      1  0.4857300000000  0.4557370000000  0.4243430000000 1.0
C      1  0.5376130000000  0.5302800000000  0.4146840000000 1.0
C      1  0.5223710000000  0.5015350000000  0.4646010000000 1.0
C      1  0.4622880000000  0.5377200000000  0.4501600000000 1.0
C      1  0.5713980000000  0.5091750000000  0.4404960000000 1.0
C      1  0.5807810000000  0.4647270000000  0.5001450000000 1.0
C      1  0.4710590000000  0.4991500000000  0.5436760000000 1.0
C      1  0.4212310000000  0.4493370000000  0.4847230000000 1.0
C      1  0.5396570000000  0.5196950000000  0.5192320000000 1.0
C      1  0.4176360000000  0.5376540000000  0.5258140000000 1.0
C      1  0.5647760000000  0.5793550000000  0.5125110000000 1.0
C      1  0.4348130000000  0.5323330000000  0.4432290000000 1.0
C      1  0.5761490000000  0.5530660000000  0.5193020000000 1.0
C      1  0.4746100000000  0.4796970000000  0.4128900000000 1.0
C      1  0.4628300000000  0.4448540000000  0.4409410000000 1.0
C      1  0.5271690000000  0.4130970000000  0.5066580000000 1.0
C      1  0.4236100000000  0.4988300000000  0.5674910000000 1.0
C      1  0.5181170000000  0.4997500000000  0.4931930000000 1.0
C      1  0.4603980000000  0.4362760000000  0.5176070000000 1.0
C      1  0.4940930000000  0.4969600000000  0.4522270000000 1.0
C      1  0.4358630000000  0.4925120000000  0.4680780000000 1.0
C      1  0.5592870000000  0.5328610000000  0.4351500000000 1.0
C      1  0.4939780000000  0.5560570000000  0.5783970000000 1.0
C      1  0.4440240000000  0.5139730000000  0.4219750000000 1.0
C      1  0.5230610000000  0.4115160000000  0.4491560000000 1.0
C      1  0.5580640000000  0.4791590000000  0.5091410000000 1.0
C      1  0.5338870000000  0.5476450000000  0.4724530000000 1.0
C      1  0.4854790000000  0.5049310000000  0.5837910000000 1.0
C      1  0.5713830000000  0.4597040000000  0.5447120000000 1.0
C      1  0.4739670000000  0.5144680000000  0.4984140000000 1.0
C      1  0.4233590000000  0.5242510000000  0.5508830000000 1.0
C      1  0.5453050000000  0.5308430000000  0.4935250000000 1.0
C      1  0.5188290000000  0.4335820000000  0.5606840000000 1.0
C      1  0.4771400000000  0.5330090000000  0.5855220000000 1.0
C      1  0.4036130000000  0.4887740000000  0.5174850000000 1.0
C      1  0.5147640000000  0.5040290000000  0.5348580000000 1.0
C      1  0.5197370000000  0.5065120000000  0.4110420000000 1.0
C      1  0.5124190000000  0.5029590000000  0.5707920000000 1.0
C      1  0.5671090000000  0.4798850000000  0.5660080000000 1.0
C      1  0.5705410000000  0.5027930000000  0.5517060000000 1.0
C      1  0.4767400000000  0.5743730000000  0.4420890000000 1.0
C      1  0.5461830000000  0.4697190000000  0.5858100000000 1.0
C      1  0.4309560000000  0.5169250000000  0.4837680000000 1.0
C      1  0.4493230000000  0.5257610000000  0.5046150000000 1.0
C      1  0.4471880000000  0.4846200000000  0.4204260000000 1.0
C      1  0.5598180000000  0.5481720000000  0.5490900000000 1.0
C      1  0.5654460000000  0.5037190000000  0.5233850000000 1.0
C      1  0.4840410000000  0.4725460000000  0.4653280000000 1.0
C      1  0.4108220000000  0.4619960000000  0.5088140000000 1.0
C      1  0.4839270000000  0.5242040000000  0.4667690000000 1.0
C      1  0.5518260000000  0.4211680000000  0.5204020000000 1.0
C      1  0.5072970000000  0.5413790000000  0.4604760000000 1.0
C      1  0.4981980000000  0.5210970000000  0.5145310000000 1.0
C      1  0.5518050000000  0.4485370000000  0.4562690000000 1.0
C      1  0.5238050000000  0.5649040000000  0.5319390000000 1.0
C      1  0.4620880000000  0.4862410000000  0.5058690000000 1.0
C      1  0.4221350000000  0.4673520000000  0.4614490000000 1.0
C      1  0.4463880000000  0.4355280000000  0.4910450000000 1.0
C      1  0.5869730000000  0.5150330000000  0.5048420000000 1.0
C      1  0.5748220000000  0.4442010000000  0.5225150000000 1.0
C      1  0.4560140000000  0.5431940000000  0.5672970000000 1.0
C      1  0.5165930000000  0.5474930000000  0.4209890000000 1.0
C      1  0.4901250000000  0.5053290000000  0.4179180000000 1.0
C      1  0.4322310000000  0.4736830000000  0.5540370000000 1.0
C      1  0.4317600000000  0.4776110000000  0.5236680000000 1.0
C      1  0.4718250000000  0.5611710000000  0.5286710000000 1.0
C      1  0.5570430000000  0.5435560000000  0.4576240000000 1.0
C      1  0.5323810000000  0.4353410000000  0.4357150000000 1.0
C      1  0.5041000000000  0.5628510000000  0.4407740000000 1.0
C      1  0.4560640000000  0.4611170000000  0.5648870000000 1.0
C      1  0.5360320000000  0.4493750000000  0.4792970000000 1.0
C      1  0.5322530000000  0.5237080000000  0.5772390000000 1.0
C      1  0.5405520000000  0.5423820000000  0.5303050000000 1.0
C      1  0.4594370000000  0.4777670000000  0.4783430000000 1.0
C      1  0.5589120000000  0.5207910000000  0.5669830000000 1.0
C      1  0.4670880000000  0.5765760000000  0.4703790000000 1.0
C      1  0.4276650000000  0.5420350000000  0.4699560000000 1.0
C      1  0.4667190000000  0.5524820000000  0.4259610000000 1.0
C      1  0.5839540000000  0.4908870000000  0.4610960000000 1.0
C      1  0.5112000000000  0.4763700000000  0.5265100000000 1.0
C      1  0.4735690000000  0.5649340000000  0.5579000000000 1.0
C      1  0.4450430000000  0.4963680000000  0.5860350000000 1.0
C      1  0.4858030000000  0.4360070000000  0.5044120000000 1.0
C      1  0.4647740000000  0.4340990000000  0.4676750000000 1.0
C      1  0.5208610000000  0.5768640000000  0.4851400000000 1.0
C      1  0.4449120000000  0.5532440000000  0.5116600000000 1.0
C      1  0.5918410000000  0.4905070000000  0.4894420000000 1.0
C      1  0.4940650000000  0.5786560000000  0.4791370000000 1.0
C      1  0.4664110000000  0.4397010000000  0.5471950000000 1.0
C      1  0.3995110000000  0.5184390000000  0.5127860000000 1.0
C      1  0.4968680000000  0.5498690000000  0.5222840000000 1.0
C      1  0.5238030000000  0.4523270000000  0.5830950000000 1.0
END
