TITL C-883728-9229-452 56.218082142479 125000 -25012.439974388 0 0 167 (C1) n - 1
REM
REM in /home/nfs/bkarasulu/CARBON/AIRSS/Generating-Clusters/ReaxFF-fromJPCA2015/Units_Real/with-SteepDescent/Only-C1/SD-CG/Try1-3A/FIRE-CG
REM
REM
REM
REM
REM
REM ./C.cell (11c1c37f851c82e70ff6c80c92926a4b)
REM
REM compiler GCC version 9.2.1 20190827 (Red Hat 9.2.1-1)
REM options -cpp -mtune=generic -march=x86-64 -g -O0 -fpre-include=/usr/include/finclude/math-vector-fortran.h
REM seed -1181037106 -2090148225 -916457137 -1326642143 1659542267 -842667762 432939633 -1496176329 -924626604 2022192184 1007592333 -841053040 -1364070051 -759876028 1033909235 939352746 1023976626 -1224297621 277041072 -1144041010 2071460809 -1344176726 985119642 -301849077 -588873170 1549412015 -536957375 295303865 -15282039 1302958102 -1572733374 -1446896153 1321372341
REM
CELL 1.54180   50.00000   50.00000   50.00000   90.00000   90.00000   90.00000
LATT -1
SFAC C  
C      1  0.5013780000000  0.4460820000000  0.4733380000000 1.0
C      1  0.5454160000000  0.5938140000000  0.5356130000000 1.0
C      1  0.5510790000000  0.5472920000000  0.5152500000000 1.0
C      1  0.4948540000000  0.5514040000000  0.4097710000000 1.0
C      1  0.5332210000000  0.5322460000000  0.6060120000000 1.0
C      1  0.4169460000000  0.5116180000000  0.5571440000000 1.0
C      1  0.4097210000000  0.4894940000000  0.4617480000000 1.0
C      1  0.5533440000000  0.4862520000000  0.4087710000000 1.0
C      1  0.4257240000000  0.5213710000000  0.4222890000000 1.0
C      1  0.4666880000000  0.5243130000000  0.5366050000000 1.0
C      1  0.5058000000000  0.4260880000000  0.5686960000000 1.0
C      1  0.5665560000000  0.5638780000000  0.4591150000000 1.0
C      1  0.5594850000000  0.5881200000000  0.5105610000000 1.0
C      1  0.5995680000000  0.5373300000000  0.4877030000000 1.0
C      1  0.4005890000000  0.4654780000000  0.4758090000000 1.0
C      1  0.4204540000000  0.4346200000000  0.5089180000000 1.0
C      1  0.4748430000000  0.5184940000000  0.5103300000000 1.0
C      1  0.4984700000000  0.5493330000000  0.5253120000000 1.0
C      1  0.4617080000000  0.4221940000000  0.5704910000000 1.0
C      1  0.4517950000000  0.4773870000000  0.5886910000000 1.0
C      1  0.5046620000000  0.5336710000000  0.5944980000000 1.0
C      1  0.5122180000000  0.4621710000000  0.4523860000000 1.0
C      1  0.4539580000000  0.5166160000000  0.4650430000000 1.0
C      1  0.4832640000000  0.5125000000000  0.6074370000000 1.0
C      1  0.5598940000000  0.4221370000000  0.5289030000000 1.0
C      1  0.4844140000000  0.4476290000000  0.4106090000000 1.0
C      1  0.4996020000000  0.5003040000000  0.3923320000000 1.0
C      1  0.4994260000000  0.5418210000000  0.4722570000000 1.0
C      1  0.5193940000000  0.4966630000000  0.5284070000000 1.0
C      1  0.4386710000000  0.5956970000000  0.4863770000000 1.0
C      1  0.6001310000000  0.5499370000000  0.5148810000000 1.0
C      1  0.4840030000000  0.5710870000000  0.4288410000000 1.0
C      1  0.4725040000000  0.4462250000000  0.4793090000000 1.0
C      1  0.5115540000000  0.5761320000000  0.4389800000000 1.0
C      1  0.4189770000000  0.5352640000000  0.5741550000000 1.0
C      1  0.4862090000000  0.4033310000000  0.4779350000000 1.0
C      1  0.5335340000000  0.4658290000000  0.4011030000000 1.0
C      1  0.5495140000000  0.5811340000000  0.5639500000000 1.0
C      1  0.5494800000000  0.4993120000000  0.4505940000000 1.0
C      1  0.4519690000000  0.5174870000000  0.4935430000000 1.0
C      1  0.5003820000000  0.4039550000000  0.5501610000000 1.0
C      1  0.4976050000000  0.5010470000000  0.4597710000000 1.0
C      1  0.4098970000000  0.4629690000000  0.5051890000000 1.0
C      1  0.5980260000000  0.4823540000000  0.4586400000000 1.0
C      1  0.5471400000000  0.5779520000000  0.4788340000000 1.0
C      1  0.4764170000000  0.4884110000000  0.4212000000000 1.0
C      1  0.4584530000000  0.5781420000000  0.4416410000000 1.0
C      1  0.5882700000000  0.5377140000000  0.4355310000000 1.0
C      1  0.4895570000000  0.4123650000000  0.4495020000000 1.0
C      1  0.6021900000000  0.4706160000000  0.5313550000000 1.0
C      1  0.5032860000000  0.5637550000000  0.5772660000000 1.0
C      1  0.5142600000000  0.3952060000000  0.5256310000000 1.0
C      1  0.4538470000000  0.4466300000000  0.4525760000000 1.0
C      1  0.5578250000000  0.4713730000000  0.5089740000000 1.0
C      1  0.4771270000000  0.5732710000000  0.5627650000000 1.0
C      1  0.5389930000000  0.4230860000000  0.4317060000000 1.0
C      1  0.4492390000000  0.5047270000000  0.5496850000000 1.0
C      1  0.5423690000000  0.4000060000000  0.5192430000000 1.0
C      1  0.5801240000000  0.4824670000000  0.4200740000000 1.0
C      1  0.5260610000000  0.4686610000000  0.5692190000000 1.0
C      1  0.4575850000000  0.4117350000000  0.5232110000000 1.0
C      1  0.4680790000000  0.4827060000000  0.5640380000000 1.0
C      1  0.5935410000000  0.4517340000000  0.5520060000000 1.0
C      1  0.3996180000000  0.5383370000000  0.4634720000000 1.0
C      1  0.4169220000000  0.5431480000000  0.4384710000000 1.0
C      1  0.3996210000000  0.4817750000000  0.5316550000000 1.0
C      1  0.4269120000000  0.5552450000000  0.5285330000000 1.0
C      1  0.4473410000000  0.4717460000000  0.4402780000000 1.0
C      1  0.4450210000000  0.5350730000000  0.5884490000000 1.0
C      1  0.4711900000000  0.5411260000000  0.4656530000000 1.0
C      1  0.5260100000000  0.5825720000000  0.5825520000000 1.0
C      1  0.5242980000000  0.5893360000000  0.4616800000000 1.0
C      1  0.4619370000000  0.4629540000000  0.5432160000000 1.0
C      1  0.4210880000000  0.5739640000000  0.4747980000000 1.0
C      1  0.5719260000000  0.4538430000000  0.5715880000000 1.0
C      1  0.4664950000000  0.5634450000000  0.4843680000000 1.0
C      1  0.5014170000000  0.4864870000000  0.5749190000000 1.0
C      1  0.4374300000000  0.4358010000000  0.5612310000000 1.0
C      1  0.4371670000000  0.4953890000000  0.4523330000000 1.0
C      1  0.5525710000000  0.4294870000000  0.4556160000000 1.0
C      1  0.5041590000000  0.4715630000000  0.5289590000000 1.0
C      1  0.5171890000000  0.5205720000000  0.4630700000000 1.0
C      1  0.5791700000000  0.5030460000000  0.4543580000000 1.0
C      1  0.4925310000000  0.6168480000000  0.4999430000000 1.0
C      1  0.5632970000000  0.5516060000000  0.4328990000000 1.0
C      1  0.5221080000000  0.4440240000000  0.4955610000000 1.0
C      1  0.5415660000000  0.5088250000000  0.4238060000000 1.0
C      1  0.4518170000000  0.5660990000000  0.5150010000000 1.0
C      1  0.5228190000000  0.4442310000000  0.5532110000000 1.0
C      1  0.5837860000000  0.5134090000000  0.4928370000000 1.0
C      1  0.5714020000000  0.5036430000000  0.5476390000000 1.0
C      1  0.4714980000000  0.4057930000000  0.5478940000000 1.0
C      1  0.5068540000000  0.5155690000000  0.5705400000000 1.0
C      1  0.4635090000000  0.4160620000000  0.4935180000000 1.0
C      1  0.5338660000000  0.5599720000000  0.4964560000000 1.0
C      1  0.5879630000000  0.4621480000000  0.4405460000000 1.0
C      1  0.4094300000000  0.4426440000000  0.4631830000000 1.0
C      1  0.4319810000000  0.5666910000000  0.4476290000000 1.0
C      1  0.4442380000000  0.4819440000000  0.5313010000000 1.0
C      1  0.4617650000000  0.5881390000000  0.4691560000000 1.0
C      1  0.5046330000000  0.4723160000000  0.3998210000000 1.0
C      1  0.5359300000000  0.4239500000000  0.4779650000000 1.0
C      1  0.5725900000000  0.4303650000000  0.5537930000000 1.0
C      1  0.4343870000000  0.4260290000000  0.5322240000000 1.0
C      1  0.4274830000000  0.5588820000000  0.5576840000000 1.0
C      1  0.5207740000000  0.5552920000000  0.4202910000000 1.0
C      1  0.4887820000000  0.4902460000000  0.4838510000000 1.0
C      1  0.5857190000000  0.4444370000000  0.4884440000000 1.0
C      1  0.5342030000000  0.4371890000000  0.4062700000000 1.0
C      1  0.4097940000000  0.5358110000000  0.5150150000000 1.0
C      1  0.5047110000000  0.5063320000000  0.5035300000000 1.0
C      1  0.4788410000000  0.4638720000000  0.5202190000000 1.0
C      1  0.5387820000000  0.4673020000000  0.4885980000000 1.0
C      1  0.4354770000000  0.4808410000000  0.5039030000000 1.0
C      1  0.5623620000000  0.5035940000000  0.5750840000000 1.0
C      1  0.5086410000000  0.6092000000000  0.4768810000000 1.0
C      1  0.4542750000000  0.4744000000000  0.4137810000000 1.0
C      1  0.4106560000000  0.4713160000000  0.5551130000000 1.0
C      1  0.5055410000000  0.5558790000000  0.4974980000000 1.0
C      1  0.5158880000000  0.5906880000000  0.5366250000000 1.0
C      1  0.5058430000000  0.4277540000000  0.4064650000000 1.0
C      1  0.5750270000000  0.5659110000000  0.5198020000000 1.0
C      1  0.5072160000000  0.3933870000000  0.4958190000000 1.0
C      1  0.4571990000000  0.5098470000000  0.5976020000000 1.0
C      1  0.5359920000000  0.3977300000000  0.4900170000000 1.0
C      1  0.5766740000000  0.4434820000000  0.4602310000000 1.0
C      1  0.4235600000000  0.5117900000000  0.4989500000000 1.0
C      1  0.4909970000000  0.4844980000000  0.6042710000000 1.0
C      1  0.4983250000000  0.4845400000000  0.4380900000000 1.0
C      1  0.4728580000000  0.5527560000000  0.5358660000000 1.0
C      1  0.4327840000000  0.4198020000000  0.4869310000000 1.0
C      1  0.5517860000000  0.4945270000000  0.5256450000000 1.0
C      1  0.5370710000000  0.4743560000000  0.4614330000000 1.0
C      1  0.4868490000000  0.5268240000000  0.3957580000000 1.0
C      1  0.4677730000000  0.4710190000000  0.4943430000000 1.0
C      1  0.5554940000000  0.5170530000000  0.5025490000000 1.0
C      1  0.4496570000000  0.5959610000000  0.5133520000000 1.0
C      1  0.4748010000000  0.6084660000000  0.5223180000000 1.0
C      1  0.4281220000000  0.4293560000000  0.4610850000000 1.0
C      1  0.5119220000000  0.4111990000000  0.4306420000000 1.0
C      1  0.4395470000000  0.5021870000000  0.4073420000000 1.0
C      1  0.4020020000000  0.5125760000000  0.4771710000000 1.0
C      1  0.5143300000000  0.4456550000000  0.5255490000000 1.0
C      1  0.5524510000000  0.4756190000000  0.5779300000000 1.0
C      1  0.5143910000000  0.5614960000000  0.5444300000000 1.0
C      1  0.4885940000000  0.5963750000000  0.5448610000000 1.0
C      1  0.4746420000000  0.4608640000000  0.5992090000000 1.0
C      1  0.4284360000000  0.4608980000000  0.5736730000000 1.0
C      1  0.4517510000000  0.5610440000000  0.5741740000000 1.0
C      1  0.5556550000000  0.5527250000000  0.5658170000000 1.0
C      1  0.5910400000000  0.5091240000000  0.4283100000000 1.0
C      1  0.4047850000000  0.5534110000000  0.4871630000000 1.0
C      1  0.4003090000000  0.5104960000000  0.5338330000000 1.0
C      1  0.4665740000000  0.5129820000000  0.4124900000000 1.0
C      1  0.5293400000000  0.5142100000000  0.4886420000000 1.0
C      1  0.5423240000000  0.5377920000000  0.4204050000000 1.0
C      1  0.4743840000000  0.4333470000000  0.4341730000000 1.0
C      1  0.6028130000000  0.5250930000000  0.5283770000000 1.0
C      1  0.5978690000000  0.4887010000000  0.4864220000000 1.0
C      1  0.6000790000000  0.4996530000000  0.5405690000000 1.0
C      1  0.5159320000000  0.5217620000000  0.5443590000000 1.0
C      1  0.5920610000000  0.5508980000000  0.4621700000000 1.0
C      1  0.5548560000000  0.5310340000000  0.5864420000000 1.0
C      1  0.5656160000000  0.4437280000000  0.5096220000000 1.0
C      1  0.5380130000000  0.5438000000000  0.5428890000000 1.0
C      1  0.6008300000000  0.4650740000000  0.5030030000000 1.0
C      1  0.4827600000000  0.4360630000000  0.5849730000000 1.0
END
