TITL C-884135-4325-288 12.968762464867 125000 -15359.3710792248 0 0 104 (C1) n - 1
REM
REM in /home/nfs/bkarasulu/CARBON/AIRSS/Generating-Clusters/ReaxFF-fromJPCA2015/Units_Real/with-SteepDescent/Only-C1/SD-CG/Try1-3A/FIRE-CG
REM
REM
REM
REM
REM
REM ./C.cell (11c1c37f851c82e70ff6c80c92926a4b)
REM
REM compiler GCC version 9.2.1 20190827 (Red Hat 9.2.1-1)
REM options -cpp -mtune=generic -march=x86-64 -g -O0 -fpre-include=/usr/include/finclude/math-vector-fortran.h
REM seed -88467702 98434689 1182066606 -602104409 1168333268 -1982413115 -691318516 -162026818 -1477610652 1570918759 1442654951 1568403402 47914257 2007652522 -799211221 -1996227303 -1257558811 560872622 -1060844630 -1060405906 -756673806 1623438346 -990741345 670747767 -327640768 285059811 -759912910 -1788044598 -1092760517 -608858503 1547764451 744145631 1177052383
REM
CELL 1.54180   50.00000   50.00000   50.00000   90.00000   90.00000   90.00000
LATT -1
SFAC C  
C      1  0.4983520000000  0.5127100000000  0.4062960000000 1.0
C      1  0.5125130000000  0.4573130000000  0.5742550000000 1.0
C      1  0.5632570000000  0.5647650000000  0.5108470000000 1.0
C      1  0.4759160000000  0.5195130000000  0.5500410000000 1.0
C      1  0.4333340000000  0.5550400000000  0.5070680000000 1.0
C      1  0.5106220000000  0.4346680000000  0.5238630000000 1.0
C      1  0.4627180000000  0.4965600000000  0.5396220000000 1.0
C      1  0.5128620000000  0.4249080000000  0.4312570000000 1.0
C      1  0.5158890000000  0.5133090000000  0.4309290000000 1.0
C      1  0.4789400000000  0.5319540000000  0.4630440000000 1.0
C      1  0.4881200000000  0.4272150000000  0.4464960000000 1.0
C      1  0.4597320000000  0.5738520000000  0.4624680000000 1.0
C      1  0.4605540000000  0.4599100000000  0.5697710000000 1.0
C      1  0.4878690000000  0.4809850000000  0.5268070000000 1.0
C      1  0.5868350000000  0.5237680000000  0.5305200000000 1.0
C      1  0.5334410000000  0.4897580000000  0.5193120000000 1.0
C      1  0.5306970000000  0.5502930000000  0.5812740000000 1.0
C      1  0.5843550000000  0.4943760000000  0.5228040000000 1.0
C      1  0.5753100000000  0.5284320000000  0.4814190000000 1.0
C      1  0.4628850000000  0.4767770000000  0.4848100000000 1.0
C      1  0.5131080000000  0.4854190000000  0.5387020000000 1.0
C      1  0.5175490000000  0.4091220000000  0.5066890000000 1.0
C      1  0.5080640000000  0.5959460000000  0.5112730000000 1.0
C      1  0.5066310000000  0.5904600000000  0.4831750000000 1.0
C      1  0.4432850000000  0.4765520000000  0.5528250000000 1.0
C      1  0.5860720000000  0.4815750000000  0.4954170000000 1.0
C      1  0.4614230000000  0.4452310000000  0.4815960000000 1.0
C      1  0.4833700000000  0.4750490000000  0.4388910000000 1.0
C      1  0.5513440000000  0.4406640000000  0.5440300000000 1.0
C      1  0.4892550000000  0.4526340000000  0.5336060000000 1.0
C      1  0.5277840000000  0.4704510000000  0.4953970000000 1.0
C      1  0.5555480000000  0.5705870000000  0.4830080000000 1.0
C      1  0.4413180000000  0.5018850000000  0.5215630000000 1.0
C      1  0.4214090000000  0.4698610000000  0.4785490000000 1.0
C      1  0.5503330000000  0.5508650000000  0.5587240000000 1.0
C      1  0.5820800000000  0.5427060000000  0.5091530000000 1.0
C      1  0.4967930000000  0.5640960000000  0.5476840000000 1.0
C      1  0.4699750000000  0.5048880000000  0.4081010000000 1.0
C      1  0.4693630000000  0.4755020000000  0.4132610000000 1.0
C      1  0.5082500000000  0.5076660000000  0.5851150000000 1.0
C      1  0.4857700000000  0.5874510000000  0.4636090000000 1.0
C      1  0.4480830000000  0.4571180000000  0.4213550000000 1.0
C      1  0.5371890000000  0.4727850000000  0.5761450000000 1.0
C      1  0.5042910000000  0.4999520000000  0.4793000000000 1.0
C      1  0.5453010000000  0.5673490000000  0.5339270000000 1.0
C      1  0.5428190000000  0.4210240000000  0.4947510000000 1.0
C      1  0.4263400000000  0.4575150000000  0.5033590000000 1.0
C      1  0.4327150000000  0.5203570000000  0.4469500000000 1.0
C      1  0.4263530000000  0.5287210000000  0.4955980000000 1.0
C      1  0.4921100000000  0.5374900000000  0.5365510000000 1.0
C      1  0.5301260000000  0.4503230000000  0.4340030000000 1.0
C      1  0.4625370000000  0.4121010000000  0.5428530000000 1.0
C      1  0.5235190000000  0.4962580000000  0.5641090000000 1.0
C      1  0.5597870000000  0.4862540000000  0.5354580000000 1.0
C      1  0.4439930000000  0.5594470000000  0.5345260000000 1.0
C      1  0.4439050000000  0.5420550000000  0.5597080000000 1.0
C      1  0.5651710000000  0.5510480000000  0.4634360000000 1.0
C      1  0.4846810000000  0.4731020000000  0.5788750000000 1.0
C      1  0.5605120000000  0.4358160000000  0.5145360000000 1.0
C      1  0.4966870000000  0.5699670000000  0.4427740000000 1.0
C      1  0.4715200000000  0.5537030000000  0.4439540000000 1.0
C      1  0.5046710000000  0.5592490000000  0.5767260000000 1.0
C      1  0.5112830000000  0.4486200000000  0.4971770000000 1.0
C      1  0.5121110000000  0.4704940000000  0.4446260000000 1.0
C      1  0.4494120000000  0.5125800000000  0.4974390000000 1.0
C      1  0.5486490000000  0.4390620000000  0.4735240000000 1.0
C      1  0.5245040000000  0.4394050000000  0.5540340000000 1.0
C      1  0.5465860000000  0.5273760000000  0.4921250000000 1.0
C      1  0.4732900000000  0.4386910000000  0.5532020000000 1.0
C      1  0.5225880000000  0.4819130000000  0.4700010000000 1.0
C      1  0.4255620000000  0.5395840000000  0.4680530000000 1.0
C      1  0.5453120000000  0.5413140000000  0.4442620000000 1.0
C      1  0.4599630000000  0.4322300000000  0.4348450000000 1.0
C      1  0.4508590000000  0.5235170000000  0.4246600000000 1.0
C      1  0.5242660000000  0.5622870000000  0.4483670000000 1.0
C      1  0.4976250000000  0.5314300000000  0.5089240000000 1.0
C      1  0.5741720000000  0.4574180000000  0.5032630000000 1.0
C      1  0.4857610000000  0.4875480000000  0.4974240000000 1.0
C      1  0.5586550000000  0.4895630000000  0.4525010000000 1.0
C      1  0.4444840000000  0.4317930000000  0.5010670000000 1.0
C      1  0.4302530000000  0.4696340000000  0.4392420000000 1.0
C      1  0.4819740000000  0.5885060000000  0.5157330000000 1.0
C      1  0.5587800000000  0.4658340000000  0.5564870000000 1.0
C      1  0.5739260000000  0.5333870000000  0.5557790000000 1.0
C      1  0.5763600000000  0.4975360000000  0.4722080000000 1.0
C      1  0.5517790000000  0.4578470000000  0.4521750000000 1.0
C      1  0.4633430000000  0.4854020000000  0.4571170000000 1.0
C      1  0.5299360000000  0.5778620000000  0.4717270000000 1.0
C      1  0.5255300000000  0.5195570000000  0.5071880000000 1.0
C      1  0.5066260000000  0.5338490000000  0.5911810000000 1.0
C      1  0.4337460000000  0.4876910000000  0.4539880000000 1.0
C      1  0.4294670000000  0.4758780000000  0.5275890000000 1.0
C      1  0.4373370000000  0.5645930000000  0.4791680000000 1.0
C      1  0.4741620000000  0.5278610000000  0.4918200000000 1.0
C      1  0.5192960000000  0.5786710000000  0.5324920000000 1.0
C      1  0.4444400000000  0.4286090000000  0.4586430000000 1.0
C      1  0.4620740000000  0.5249710000000  0.5749980000000 1.0
C      1  0.4904560000000  0.4099210000000  0.4973750000000 1.0
C      1  0.4918530000000  0.4327340000000  0.4781830000000 1.0
C      1  0.4996150000000  0.5156920000000  0.4561460000000 1.0
C      1  0.4640430000000  0.4133110000000  0.5132240000000 1.0
C      1  0.5445670000000  0.5121410000000  0.4385170000000 1.0
C      1  0.4678900000000  0.5763840000000  0.5355830000000 1.0
C      1  0.4822300000000  0.5009510000000  0.5857780000000 1.0
END
