TITL C-883734-4173-113 9.38955091979964 125000 -20428.8427784604 0 0 137 (C1) n - 1
REM
REM in /home/nfs/bkarasulu/CARBON/AIRSS/Generating-Clusters/ReaxFF-fromJPCA2015/Units_Real/with-SteepDescent/Only-C1/SD-CG/Try1-3A/FIRE-CG
REM
REM
REM
REM
REM
REM ./C.cell (11c1c37f851c82e70ff6c80c92926a4b)
REM
REM compiler GCC version 9.2.1 20190827 (Red Hat 9.2.1-1)
REM options -cpp -mtune=generic -march=x86-64 -g -O0 -fpre-include=/usr/include/finclude/math-vector-fortran.h
REM seed -1607002264 1706751795 1186947290 -2093855953 -1436680454 -277373555 1254669165 1133721131 -717319612 1490951797 -1865068203 -2118462575 -909194522 515603821 1979390526 -683284025 -1114285458 1515103737 445056580 173916416 413845073 -193706611 1179436009 1188628141 -1201604593 445589180 195146112 1065593438 1479663078 1915220583 1092257593 -1640921507 -225065948
REM
CELL 1.54180   50.00000   50.00000   50.00000   90.00000   90.00000   90.00000
LATT -1
SFAC C  
C      1  0.5523890000000  0.5598150000000  0.4924260000000 1.0
C      1  0.4207900000000  0.4693810000000  0.4377750000000 1.0
C      1  0.5160630000000  0.4370110000000  0.4401270000000 1.0
C      1  0.5863390000000  0.4922580000000  0.4893580000000 1.0
C      1  0.4934230000000  0.3954470000000  0.5358310000000 1.0
C      1  0.4173230000000  0.4986420000000  0.4326800000000 1.0
C      1  0.4767780000000  0.4138160000000  0.4635530000000 1.0
C      1  0.5426210000000  0.5189280000000  0.4061230000000 1.0
C      1  0.5150810000000  0.5599500000000  0.5085970000000 1.0
C      1  0.4676380000000  0.4584180000000  0.5197470000000 1.0
C      1  0.4918510000000  0.4833350000000  0.6178660000000 1.0
C      1  0.5944950000000  0.5062970000000  0.5284230000000 1.0
C      1  0.4611240000000  0.5631080000000  0.5698460000000 1.0
C      1  0.5180470000000  0.5296990000000  0.5867360000000 1.0
C      1  0.4222980000000  0.4502300000000  0.5556030000000 1.0
C      1  0.5444320000000  0.4070240000000  0.4939650000000 1.0
C      1  0.5463930000000  0.4964180000000  0.4674530000000 1.0
C      1  0.4062440000000  0.5175100000000  0.4530050000000 1.0
C      1  0.4540120000000  0.5122530000000  0.5459650000000 1.0
C      1  0.4904480000000  0.4418190000000  0.4517920000000 1.0
C      1  0.5639000000000  0.5132880000000  0.5691500000000 1.0
C      1  0.5705130000000  0.4303770000000  0.5182450000000 1.0
C      1  0.5158620000000  0.5052890000000  0.4032020000000 1.0
C      1  0.5743840000000  0.4850920000000  0.4636740000000 1.0
C      1  0.5596760000000  0.4334640000000  0.4648840000000 1.0
C      1  0.5012340000000  0.4807070000000  0.4818980000000 1.0
C      1  0.4737070000000  0.5000970000000  0.6015970000000 1.0
C      1  0.4054680000000  0.5076490000000  0.5238500000000 1.0
C      1  0.4530270000000  0.5247040000000  0.5212970000000 1.0
C      1  0.4180830000000  0.4760900000000  0.5596140000000 1.0
C      1  0.4413520000000  0.4656310000000  0.4193490000000 1.0
C      1  0.4345960000000  0.5209520000000  0.4209770000000 1.0
C      1  0.4773550000000  0.4999030000000  0.5499450000000 1.0
C      1  0.4894030000000  0.5897050000000  0.4660200000000 1.0
C      1  0.5888590000000  0.5394930000000  0.4684900000000 1.0
C      1  0.5782130000000  0.5504880000000  0.5366840000000 1.0
C      1  0.4617280000000  0.5565780000000  0.4302180000000 1.0
C      1  0.5209570000000  0.4058900000000  0.4789430000000 1.0
C      1  0.4345840000000  0.4703060000000  0.4668010000000 1.0
C      1  0.4842540000000  0.5700220000000  0.4439410000000 1.0
C      1  0.5110560000000  0.4065390000000  0.5543430000000 1.0
C      1  0.4590090000000  0.5071710000000  0.5000770000000 1.0
C      1  0.5152030000000  0.4493820000000  0.5216250000000 1.0
C      1  0.5356140000000  0.4419000000000  0.5844590000000 1.0
C      1  0.5471330000000  0.5364470000000  0.4326760000000 1.0
C      1  0.4873770000000  0.4303030000000  0.5930840000000 1.0
C      1  0.5325840000000  0.5180730000000  0.5088280000000 1.0
C      1  0.5116610000000  0.4840790000000  0.5943120000000 1.0
C      1  0.4766620000000  0.5970580000000  0.4928060000000 1.0
C      1  0.5629180000000  0.5022750000000  0.4138840000000 1.0
C      1  0.4076340000000  0.4916980000000  0.4997650000000 1.0
C      1  0.4679980000000  0.5492420000000  0.5184650000000 1.0
C      1  0.5287840000000  0.5604990000000  0.4331660000000 1.0
C      1  0.5609160000000  0.5700470000000  0.4651580000000 1.0
C      1  0.4809160000000  0.4679870000000  0.4340870000000 1.0
C      1  0.4307090000000  0.5764630000000  0.5458050000000 1.0
C      1  0.5792830000000  0.4855570000000  0.4239560000000 1.0
C      1  0.5831540000000  0.5225030000000  0.5493990000000 1.0
C      1  0.4524360000000  0.4256020000000  0.4645130000000 1.0
C      1  0.4478850000000  0.5460150000000  0.4732420000000 1.0
C      1  0.5582920000000  0.4837390000000  0.5738610000000 1.0
C      1  0.4566840000000  0.4104010000000  0.5245360000000 1.0
C      1  0.4949270000000  0.5536600000000  0.5308580000000 1.0
C      1  0.4986220000000  0.5987260000000  0.5176510000000 1.0
C      1  0.5130420000000  0.5325370000000  0.4743500000000 1.0
C      1  0.4385550000000  0.5577690000000  0.4483850000000 1.0
C      1  0.4866660000000  0.5177660000000  0.4017490000000 1.0
C      1  0.4236250000000  0.4684110000000  0.4930240000000 1.0
C      1  0.4692070000000  0.5563770000000  0.4904630000000 1.0
C      1  0.4970230000000  0.5802390000000  0.5436400000000 1.0
C      1  0.4430240000000  0.4200100000000  0.5445180000000 1.0
C      1  0.4183440000000  0.5400630000000  0.4370250000000 1.0
C      1  0.4865980000000  0.4999960000000  0.4971850000000 1.0
C      1  0.5710560000000  0.4898010000000  0.5179670000000 1.0
C      1  0.4992910000000  0.5169020000000  0.5413420000000 1.0
C      1  0.4025220000000  0.5141380000000  0.4819510000000 1.0
C      1  0.5630370000000  0.4596370000000  0.5239670000000 1.0
C      1  0.5700240000000  0.4588870000000  0.4229890000000 1.0
C      1  0.5371030000000  0.5809290000000  0.4523990000000 1.0
C      1  0.5962630000000  0.5438290000000  0.4945670000000 1.0
C      1  0.5025620000000  0.5495270000000  0.4347890000000 1.0
C      1  0.5727980000000  0.4564020000000  0.4520240000000 1.0
C      1  0.5546910000000  0.4200010000000  0.5403830000000 1.0
C      1  0.5453010000000  0.5026950000000  0.5276060000000 1.0
C      1  0.4485110000000  0.5170300000000  0.4765760000000 1.0
C      1  0.5399600000000  0.5334460000000  0.4851160000000 1.0
C      1  0.5264290000000  0.4201020000000  0.5341910000000 1.0
C      1  0.5457660000000  0.4587110000000  0.4052580000000 1.0
C      1  0.4916280000000  0.4017460000000  0.4846030000000 1.0
C      1  0.4757450000000  0.4928180000000  0.3989580000000 1.0
C      1  0.5570990000000  0.4366550000000  0.5655070000000 1.0
C      1  0.4587030000000  0.4945440000000  0.4615910000000 1.0
C      1  0.4693220000000  0.5456550000000  0.5858270000000 1.0
C      1  0.4502010000000  0.5929090000000  0.5005690000000 1.0
C      1  0.4823150000000  0.4942240000000  0.4468300000000 1.0
C      1  0.5175580000000  0.5921440000000  0.4713940000000 1.0
C      1  0.4626810000000  0.5296130000000  0.4168170000000 1.0
C      1  0.5368830000000  0.4699980000000  0.5901290000000 1.0
C      1  0.5450000000000  0.5343230000000  0.5780790000000 1.0
C      1  0.5403270000000  0.5624550000000  0.5658620000000 1.0
C      1  0.4979760000000  0.5510700000000  0.4870820000000 1.0
C      1  0.4268920000000  0.5816350000000  0.5172060000000 1.0
C      1  0.5096740000000  0.4253840000000  0.5811780000000 1.0
C      1  0.5688150000000  0.4202050000000  0.4907240000000 1.0
C      1  0.4258670000000  0.4371000000000  0.5301480000000 1.0
C      1  0.4787240000000  0.3962050000000  0.5114140000000 1.0
C      1  0.4138230000000  0.5570960000000  0.5117250000000 1.0
C      1  0.5226720000000  0.5871460000000  0.5005410000000 1.0
C      1  0.6012190000000  0.5147520000000  0.5003590000000 1.0
C      1  0.5572990000000  0.5640640000000  0.5449900000000 1.0
C      1  0.4556290000000  0.5180630000000  0.5889900000000 1.0
C      1  0.5335240000000  0.4236310000000  0.4576580000000 1.0
C      1  0.4981580000000  0.5513310000000  0.5831010000000 1.0
C      1  0.4897690000000  0.4478570000000  0.5052650000000 1.0
C      1  0.5206260000000  0.4493510000000  0.4144210000000 1.0
C      1  0.5113380000000  0.5720000000000  0.5673230000000 1.0
C      1  0.5341940000000  0.5119670000000  0.4461280000000 1.0
C      1  0.5182620000000  0.5047030000000  0.5770840000000 1.0
C      1  0.4012240000000  0.5324120000000  0.5070710000000 1.0
C      1  0.5222460000000  0.4769670000000  0.4011640000000 1.0
C      1  0.5084400000000  0.4699160000000  0.5418400000000 1.0
C      1  0.4899460000000  0.4548110000000  0.4777190000000 1.0
C      1  0.5648920000000  0.4624100000000  0.5560120000000 1.0
C      1  0.5053610000000  0.5194220000000  0.4482360000000 1.0
C      1  0.4669980000000  0.4662930000000  0.4073130000000 1.0
C      1  0.4808190000000  0.4723320000000  0.5424400000000 1.0
C      1  0.4376000000000  0.5652600000000  0.5689590000000 1.0
C      1  0.5230810000000  0.4957580000000  0.5486800000000 1.0
C      1  0.4348530000000  0.4410200000000  0.4651010000000 1.0
C      1  0.4363850000000  0.5120750000000  0.5669950000000 1.0
C      1  0.4122210000000  0.5021770000000  0.5525690000000 1.0
C      1  0.5376000000000  0.4623200000000  0.5074940000000 1.0
C      1  0.5036980000000  0.5160190000000  0.5128810000000 1.0
C      1  0.4395740000000  0.4558310000000  0.5124140000000 1.0
C      1  0.5305780000000  0.4789220000000  0.4859240000000 1.0
C      1  0.5759630000000  0.5588750000000  0.5095890000000 1.0
C      1  0.5727990000000  0.5488880000000  0.4484270000000 1.0
END
