TITL C-883733-4178-269 132.015135227997 125000 -20217.6874699391 0 0 138 (C1) n - 1
REM
REM in /home/nfs/bkarasulu/CARBON/AIRSS/Generating-Clusters/ReaxFF-fromJPCA2015/Units_Real/with-SteepDescent/Only-C1/SD-CG/Try1-3A/FIRE-CG
REM
REM
REM
REM
REM
REM ./C.cell (11c1c37f851c82e70ff6c80c92926a4b)
REM
REM compiler GCC version 9.2.1 20190827 (Red Hat 9.2.1-1)
REM options -cpp -mtune=generic -march=x86-64 -g -O0 -fpre-include=/usr/include/finclude/math-vector-fortran.h
REM seed 1307279281 -281034560 1993635244 -818830551 484952688 747632041 1734256975 435988502 1851943912 -1543463533 -1704251643 -95288688 1970935200 -1080601699 -1548421775 1185798641 -521239616 1448935057 -881480440 -1622900320 2043959332 -906003704 -1268928180 -1107063091 -232120436 -1541834494 -1027207906 691804788 1432298548 -1678867594 1634931912 1418911900 1250936896
REM
CELL 1.54180   50.00000   50.00000   50.00000   90.00000   90.00000   90.00000
LATT -1
SFAC C  
C      1  0.5403110000000  0.5075940000000  0.4063690000000 1.0
C      1  0.4353640000000  0.4450100000000  0.4419930000000 1.0
C      1  0.4703500000000  0.5106510000000  0.5861790000000 1.0
C      1  0.4099300000000  0.4864620000000  0.5138970000000 1.0
C      1  0.5299880000000  0.4763210000000  0.4370870000000 1.0
C      1  0.4830770000000  0.4128870000000  0.4798530000000 1.0
C      1  0.4057450000000  0.4577200000000  0.5081490000000 1.0
C      1  0.5272800000000  0.4523250000000  0.4928370000000 1.0
C      1  0.5554950000000  0.5546090000000  0.4810900000000 1.0
C      1  0.4921770000000  0.4322280000000  0.4383530000000 1.0
C      1  0.4164830000000  0.5295270000000  0.5083270000000 1.0
C      1  0.4074390000000  0.4864830000000  0.4494420000000 1.0
C      1  0.4920880000000  0.5095490000000  0.4490110000000 1.0
C      1  0.5069120000000  0.5097440000000  0.5982770000000 1.0
C      1  0.4931410000000  0.5565420000000  0.4640730000000 1.0
C      1  0.5382270000000  0.4947080000000  0.4567660000000 1.0
C      1  0.5244740000000  0.5000990000000  0.4821470000000 1.0
C      1  0.4197030000000  0.5571070000000  0.5123160000000 1.0
C      1  0.4622790000000  0.5447960000000  0.5356200000000 1.0
C      1  0.5596310000000  0.4069960000000  0.4924510000000 1.0
C      1  0.4216760000000  0.4425990000000  0.5271510000000 1.0
C      1  0.5588490000000  0.5104010000000  0.4494330000000 1.0
C      1  0.4347910000000  0.5796780000000  0.5080300000000 1.0
C      1  0.4380770000000  0.4144510000000  0.4857200000000 1.0
C      1  0.5190350000000  0.4588330000000  0.5759140000000 1.0
C      1  0.4499700000000  0.5006840000000  0.4761850000000 1.0
C      1  0.5461540000000  0.5490610000000  0.5763310000000 1.0
C      1  0.5187800000000  0.5241570000000  0.3955220000000 1.0
C      1  0.4929590000000  0.4570330000000  0.4533390000000 1.0
C      1  0.5976620000000  0.5253090000000  0.4729750000000 1.0
C      1  0.4952100000000  0.5550860000000  0.5754300000000 1.0
C      1  0.4726030000000  0.4630420000000  0.5795680000000 1.0
C      1  0.4863430000000  0.5850820000000  0.4550760000000 1.0
C      1  0.4923970000000  0.4758190000000  0.4063050000000 1.0
C      1  0.5831990000000  0.5463600000000  0.4819330000000 1.0
C      1  0.4172110000000  0.4489410000000  0.4823520000000 1.0
C      1  0.4868570000000  0.5945530000000  0.5504160000000 1.0
C      1  0.4308970000000  0.4815510000000  0.5629480000000 1.0
C      1  0.5787250000000  0.4143010000000  0.5042550000000 1.0
C      1  0.4364180000000  0.5666240000000  0.4592180000000 1.0
C      1  0.3982490000000  0.4988210000000  0.4719640000000 1.0
C      1  0.5498010000000  0.4625520000000  0.5372700000000 1.0
C      1  0.5773860000000  0.4721350000000  0.5435360000000 1.0
C      1  0.4850190000000  0.5791420000000  0.5181730000000 1.0
C      1  0.4366300000000  0.4954100000000  0.4441380000000 1.0
C      1  0.4420840000000  0.4810710000000  0.4971190000000 1.0
C      1  0.4943450000000  0.5473160000000  0.4178670000000 1.0
C      1  0.5283890000000  0.5072200000000  0.5593940000000 1.0
C      1  0.4364470000000  0.4618340000000  0.5431700000000 1.0
C      1  0.4459480000000  0.5191830000000  0.4279950000000 1.0
C      1  0.5184290000000  0.5263380000000  0.5400840000000 1.0
C      1  0.5106680000000  0.4322660000000  0.4148870000000 1.0
C      1  0.4948500000000  0.4896940000000  0.4904060000000 1.0
C      1  0.5295130000000  0.5329360000000  0.4896650000000 1.0
C      1  0.4877600000000  0.5525330000000  0.5040080000000 1.0
C      1  0.4825310000000  0.4973150000000  0.5173550000000 1.0
C      1  0.4405500000000  0.5383350000000  0.5559650000000 1.0
C      1  0.5206410000000  0.5961820000000  0.4921160000000 1.0
C      1  0.4458610000000  0.4694860000000  0.4302790000000 1.0
C      1  0.4633250000000  0.5832240000000  0.5604150000000 1.0
C      1  0.5508370000000  0.4985640000000  0.5165770000000 1.0
C      1  0.5001240000000  0.4212350000000  0.5568270000000 1.0
C      1  0.4811570000000  0.4080360000000  0.5403360000000 1.0
C      1  0.4708290000000  0.5974840000000  0.4769190000000 1.0
C      1  0.4675780000000  0.4313430000000  0.5224480000000 1.0
C      1  0.5359820000000  0.4079890000000  0.4761790000000 1.0
C      1  0.4933010000000  0.4447910000000  0.5772790000000 1.0
C      1  0.5300300000000  0.5907520000000  0.4635590000000 1.0
C      1  0.4191020000000  0.5262150000000  0.5402080000000 1.0
C      1  0.4459570000000  0.5259070000000  0.4901600000000 1.0
C      1  0.4452620000000  0.5456640000000  0.4395810000000 1.0
C      1  0.4697100000000  0.5296460000000  0.5105100000000 1.0
C      1  0.4779570000000  0.5015690000000  0.4723700000000 1.0
C      1  0.5943230000000  0.5287180000000  0.5005380000000 1.0
C      1  0.5449200000000  0.5670530000000  0.4549860000000 1.0
C      1  0.5568520000000  0.5741750000000  0.5032120000000 1.0
C      1  0.5100110000000  0.4082460000000  0.4906350000000 1.0
C      1  0.5497620000000  0.4349870000000  0.5474770000000 1.0
C      1  0.5242450000000  0.4739410000000  0.5497860000000 1.0
C      1  0.4580170000000  0.5745050000000  0.5297530000000 1.0
C      1  0.5532120000000  0.5245280000000  0.4265660000000 1.0
C      1  0.5954700000000  0.4635980000000  0.4996340000000 1.0
C      1  0.5364570000000  0.4659250000000  0.5989930000000 1.0
C      1  0.4465700000000  0.5434140000000  0.4674950000000 1.0
C      1  0.5767360000000  0.4828460000000  0.5708690000000 1.0
C      1  0.5410110000000  0.4367470000000  0.4691780000000 1.0
C      1  0.6017300000000  0.4813920000000  0.4467570000000 1.0
C      1  0.4159700000000  0.4978690000000  0.5432350000000 1.0
C      1  0.4961260000000  0.4590540000000  0.4822410000000 1.0
C      1  0.5617300000000  0.5519330000000  0.5498520000000 1.0
C      1  0.5381610000000  0.4785730000000  0.4098370000000 1.0
C      1  0.5635260000000  0.4354920000000  0.5744680000000 1.0
C      1  0.4840930000000  0.5089410000000  0.5604510000000 1.0
C      1  0.4668630000000  0.5615880000000  0.5814310000000 1.0
C      1  0.4920530000000  0.5364020000000  0.5493950000000 1.0
C      1  0.4120960000000  0.4571530000000  0.4538390000000 1.0
C      1  0.5207380000000  0.5602170000000  0.5806660000000 1.0
C      1  0.4921990000000  0.5993120000000  0.4971680000000 1.0
C      1  0.4464190000000  0.4548500000000  0.4848020000000 1.0
C      1  0.5660920000000  0.4470460000000  0.4591820000000 1.0
C      1  0.5877960000000  0.4375120000000  0.5035340000000 1.0
C      1  0.5570920000000  0.5732280000000  0.5301700000000 1.0
C      1  0.5243340000000  0.4228360000000  0.5387400000000 1.0
C      1  0.4466520000000  0.4203450000000  0.4580630000000 1.0
C      1  0.5847200000000  0.5046130000000  0.4583250000000 1.0
C      1  0.5895670000000  0.4640860000000  0.4674680000000 1.0
C      1  0.5198870000000  0.4279140000000  0.5102450000000 1.0
C      1  0.5756580000000  0.5273320000000  0.5478340000000 1.0
C      1  0.4894800000000  0.5249640000000  0.4014290000000 1.0
C      1  0.4639360000000  0.4790190000000  0.4086090000000 1.0
C      1  0.4446180000000  0.5850440000000  0.4803910000000 1.0
C      1  0.4656870000000  0.5088330000000  0.4092230000000 1.0
C      1  0.5435820000000  0.5200530000000  0.5820140000000 1.0
C      1  0.4552320000000  0.4843390000000  0.5817250000000 1.0
C      1  0.4936630000000  0.5373000000000  0.4434510000000 1.0
C      1  0.5426220000000  0.5514620000000  0.4305490000000 1.0
C      1  0.5066550000000  0.5494270000000  0.4864910000000 1.0
C      1  0.4721350000000  0.4392210000000  0.4914750000000 1.0
C      1  0.5370450000000  0.5893480000000  0.5149210000000 1.0
C      1  0.5812280000000  0.5107800000000  0.5209920000000 1.0
C      1  0.5161030000000  0.4588340000000  0.4019100000000 1.0
C      1  0.4392750000000  0.4225150000000  0.5135180000000 1.0
C      1  0.5697900000000  0.5115860000000  0.5716150000000 1.0
C      1  0.5928800000000  0.4825120000000  0.5212660000000 1.0
C      1  0.4996350000000  0.4815750000000  0.4363700000000 1.0
C      1  0.4741280000000  0.4122810000000  0.4524730000000 1.0
C      1  0.5234290000000  0.4901080000000  0.6053400000000 1.0
C      1  0.5647320000000  0.4618990000000  0.5877930000000 1.0
C      1  0.3960800000000  0.5070390000000  0.4970920000000 1.0
C      1  0.4757800000000  0.4589730000000  0.5302320000000 1.0
C      1  0.5056710000000  0.5020870000000  0.5736390000000 1.0
C      1  0.4577820000000  0.4798690000000  0.5218110000000 1.0
C      1  0.5213980000000  0.5498770000000  0.4099990000000 1.0
C      1  0.5334550000000  0.5224430000000  0.5172910000000 1.0
C      1  0.5091720000000  0.6008230000000  0.4438410000000 1.0
C      1  0.4954780000000  0.4786060000000  0.5370480000000 1.0
C      1  0.5403630000000  0.4801360000000  0.4975730000000 1.0
C      1  0.4537250000000  0.5355670000000  0.5820000000000 1.0
END
