TITL C-884128-4793-473 1.53533742844332 125000 -9206.66540279625 0 0 63 (C1) n - 1
REM
REM in /home/nfs/bkarasulu/CARBON/AIRSS/Generating-Clusters/ReaxFF-fromJPCA2015/Units_Real/with-SteepDescent/Only-C1/SD-CG/Try1-3A/FIRE-CG
REM
REM
REM
REM
REM
REM ./C.cell (11c1c37f851c82e70ff6c80c92926a4b)
REM
REM compiler GCC version 9.2.1 20190827 (Red Hat 9.2.1-1)
REM options -cpp -mtune=generic -march=x86-64 -g -O0 -fpre-include=/usr/include/finclude/math-vector-fortran.h
REM seed 183990717 -1302221902 1986040367 1742692799 1816106723 991514692 -2102158184 569378323 -1652174336 1541277365 1320337673 -717837872 -1099272433 -565093423 -571438934 -464837905 2030844051 -645086049 -735904149 -1990727099 -1811723186 1738128691 1186067371 1028043596 -1177606094 1283877741 -846211553 -1068692874 -167374376 -114983755 -690937235 -643346770 -1746539420
REM
CELL 1.54180   50.00000   50.00000   50.00000   90.00000   90.00000   90.00000
LATT -1
SFAC C  
C      1  0.4891050000000  0.4944810000000  0.5228490000000 1.0
C      1  0.4963690000000  0.5512310000000  0.4177590000000 1.0
C      1  0.5329220000000  0.4813470000000  0.5514610000000 1.0
C      1  0.4288280000000  0.4732280000000  0.5125490000000 1.0
C      1  0.5165070000000  0.4658310000000  0.4594950000000 1.0
C      1  0.5265610000000  0.4296360000000  0.4863780000000 1.0
C      1  0.5336740000000  0.4385990000000  0.4597840000000 1.0
C      1  0.5507580000000  0.5032940000000  0.4580200000000 1.0
C      1  0.5188760000000  0.5337040000000  0.4186580000000 1.0
C      1  0.4857000000000  0.4597040000000  0.4566070000000 1.0
C      1  0.4494310000000  0.5478970000000  0.5281980000000 1.0
C      1  0.4419330000000  0.5190160000000  0.5221250000000 1.0
C      1  0.5472940000000  0.5333320000000  0.4568940000000 1.0
C      1  0.5423630000000  0.4768760000000  0.5017460000000 1.0
C      1  0.4507880000000  0.4340160000000  0.4880830000000 1.0
C      1  0.5531140000000  0.4815100000000  0.5337720000000 1.0
C      1  0.4901780000000  0.4566650000000  0.5549200000000 1.0
C      1  0.4983270000000  0.5330110000000  0.5517180000000 1.0
C      1  0.5155630000000  0.4768730000000  0.4883090000000 1.0
C      1  0.4965120000000  0.4262630000000  0.4910760000000 1.0
C      1  0.4703100000000  0.5352890000000  0.4456200000000 1.0
C      1  0.5403240000000  0.4449000000000  0.5078400000000 1.0
C      1  0.5307300000000  0.5509660000000  0.4405040000000 1.0
C      1  0.4956520000000  0.5627670000000  0.4995620000000 1.0
C      1  0.4936440000000  0.5075370000000  0.5652140000000 1.0
C      1  0.5117070000000  0.5329000000000  0.4971780000000 1.0
C      1  0.5101700000000  0.5675420000000  0.4540920000000 1.0
C      1  0.4764810000000  0.4381390000000  0.4739330000000 1.0
C      1  0.4694720000000  0.5375340000000  0.5478640000000 1.0
C      1  0.5206420000000  0.5748130000000  0.5089480000000 1.0
C      1  0.5003900000000  0.4346330000000  0.5396380000000 1.0
C      1  0.4569670000000  0.4979430000000  0.4745640000000 1.0
C      1  0.4449650000000  0.4853160000000  0.5594720000000 1.0
C      1  0.5576550000000  0.4978310000000  0.4858360000000 1.0
C      1  0.4892230000000  0.5106050000000  0.4506320000000 1.0
C      1  0.5800080000000  0.4980150000000  0.5460920000000 1.0
C      1  0.5744710000000  0.5232130000000  0.5373130000000 1.0
C      1  0.5633430000000  0.5247490000000  0.4977500000000 1.0
C      1  0.4325440000000  0.4850590000000  0.4855600000000 1.0
C      1  0.4688740000000  0.4948860000000  0.5737050000000 1.0
C      1  0.4691230000000  0.5127840000000  0.5308780000000 1.0
C      1  0.5105720000000  0.5779690000000  0.4812600000000 1.0
C      1  0.4905370000000  0.4896800000000  0.4954450000000 1.0
C      1  0.4561630000000  0.4261040000000  0.5143970000000 1.0
C      1  0.5405990000000  0.5373510000000  0.4845410000000 1.0
C      1  0.5047520000000  0.4844870000000  0.5467510000000 1.0
C      1  0.4661010000000  0.4655350000000  0.5670870000000 1.0
C      1  0.4970430000000  0.5126510000000  0.4815310000000 1.0
C      1  0.5159810000000  0.5374310000000  0.5281390000000 1.0
C      1  0.5627790000000  0.5427670000000  0.5219470000000 1.0
C      1  0.5302030000000  0.4892290000000  0.4430770000000 1.0
C      1  0.5124730000000  0.5073220000000  0.4304120000000 1.0
C      1  0.5462690000000  0.4563870000000  0.5473560000000 1.0
C      1  0.4333400000000  0.4935240000000  0.5339440000000 1.0
C      1  0.4836390000000  0.5613740000000  0.4409830000000 1.0
C      1  0.5297000000000  0.4367080000000  0.5331790000000 1.0
C      1  0.4725080000000  0.4845090000000  0.4534650000000 1.0
C      1  0.4516960000000  0.5286650000000  0.4663410000000 1.0
C      1  0.4531140000000  0.5462360000000  0.4874520000000 1.0
C      1  0.5366560000000  0.5573990000000  0.5263250000000 1.0
C      1  0.4847890000000  0.4242840000000  0.5170690000000 1.0
C      1  0.4359350000000  0.4447250000000  0.5102410000000 1.0
C      1  0.4636540000000  0.5617300000000  0.5064640000000 1.0
END
