TITL C-884142-5251-166 10.3712223636297 125000 -25894.7168498653 0 0 173 (C1) n - 1
REM
REM in /home/nfs/bkarasulu/CARBON/AIRSS/Generating-Clusters/ReaxFF-fromJPCA2015/Units_Real/with-SteepDescent/Only-C1/SD-CG/Try1-3A/FIRE-CG
REM
REM
REM
REM
REM
REM ./C.cell (11c1c37f851c82e70ff6c80c92926a4b)
REM
REM compiler GCC version 9.2.1 20190827 (Red Hat 9.2.1-1)
REM options -cpp -mtune=generic -march=x86-64 -g -O0 -fpre-include=/usr/include/finclude/math-vector-fortran.h
REM seed -1027089120 243719096 1506708286 238847032 -1348771996 877996310 1888465484 -769484965 288755679 -1390167321 -612539720 -1367173643 -1809127672 129296319 -742234221 541527203 128073631 1588166621 1550418878 1848327164 801718637 -1383138628 -676244196 454274716 1356058729 -1270526340 1344625854 -1417868163 -635457831 -2091019733 650008685 2091141741 -888141974
REM
CELL 1.54180   50.00000   50.00000   50.00000   90.00000   90.00000   90.00000
LATT -1
SFAC C  
C      1  0.4403810000000  0.4151110000000  0.5020870000000 1.0
C      1  0.5144260000000  0.4946090000000  0.5696120000000 1.0
C      1  0.4839870000000  0.5613990000000  0.4099060000000 1.0
C      1  0.4974960000000  0.4513930000000  0.5022400000000 1.0
C      1  0.4339600000000  0.5474060000000  0.5727470000000 1.0
C      1  0.5851080000000  0.5346070000000  0.5576210000000 1.0
C      1  0.5845650000000  0.4583310000000  0.4703340000000 1.0
C      1  0.4820220000000  0.4788010000000  0.6054530000000 1.0
C      1  0.4957600000000  0.4893880000000  0.4262540000000 1.0
C      1  0.3979020000000  0.5091440000000  0.5549910000000 1.0
C      1  0.5497990000000  0.5472750000000  0.4834210000000 1.0
C      1  0.4494970000000  0.4868210000000  0.5411290000000 1.0
C      1  0.4526080000000  0.5274630000000  0.4170140000000 1.0
C      1  0.5317680000000  0.5970870000000  0.4570030000000 1.0
C      1  0.4363160000000  0.4547060000000  0.5963530000000 1.0
C      1  0.4431680000000  0.4827000000000  0.4066810000000 1.0
C      1  0.4784210000000  0.4689010000000  0.4441350000000 1.0
C      1  0.4007460000000  0.5247060000000  0.4831100000000 1.0
C      1  0.5948430000000  0.5171390000000  0.5370430000000 1.0
C      1  0.5284670000000  0.4111090000000  0.4403730000000 1.0
C      1  0.5818900000000  0.4840590000000  0.4534550000000 1.0
C      1  0.5711770000000  0.4440500000000  0.4437390000000 1.0
C      1  0.5325430000000  0.4902470000000  0.3930990000000 1.0
C      1  0.4500560000000  0.5128510000000  0.4996530000000 1.0
C      1  0.5232930000000  0.4942270000000  0.4363470000000 1.0
C      1  0.5288080000000  0.4560500000000  0.5982970000000 1.0
C      1  0.5257250000000  0.4596080000000  0.4625660000000 1.0
C      1  0.5904920000000  0.5509410000000  0.4728880000000 1.0
C      1  0.4197520000000  0.4579140000000  0.4580660000000 1.0
C      1  0.4652690000000  0.4546440000000  0.6033200000000 1.0
C      1  0.4381010000000  0.4645760000000  0.4794440000000 1.0
C      1  0.4881420000000  0.5154970000000  0.4710030000000 1.0
C      1  0.5284730000000  0.5198580000000  0.5626620000000 1.0
C      1  0.6005190000000  0.4752330000000  0.4869040000000 1.0
C      1  0.4761380000000  0.4156460000000  0.4350690000000 1.0
C      1  0.6043440000000  0.5323060000000  0.4533560000000 1.0
C      1  0.4102450000000  0.5362550000000  0.5584280000000 1.0
C      1  0.4907440000000  0.3993760000000  0.5254660000000 1.0
C      1  0.4229920000000  0.4778400000000  0.4994220000000 1.0
C      1  0.4946600000000  0.5360710000000  0.4097230000000 1.0
C      1  0.5271630000000  0.4332220000000  0.5289800000000 1.0
C      1  0.4290560000000  0.4322900000000  0.5210100000000 1.0
C      1  0.4982610000000  0.5274350000000  0.4477300000000 1.0
C      1  0.4099190000000  0.4609930000000  0.5453960000000 1.0
C      1  0.4596000000000  0.5018370000000  0.5640150000000 1.0
C      1  0.6014540000000  0.4746340000000  0.5127950000000 1.0
C      1  0.4892560000000  0.4293400000000  0.5651070000000 1.0
C      1  0.5655290000000  0.5573040000000  0.5530830000000 1.0
C      1  0.5207870000000  0.5547150000000  0.5193960000000 1.0
C      1  0.5542180000000  0.4480160000000  0.5839670000000 1.0
C      1  0.5592060000000  0.5872880000000  0.5137420000000 1.0
C      1  0.4852900000000  0.5151980000000  0.5341900000000 1.0
C      1  0.5009490000000  0.5936010000000  0.5293830000000 1.0
C      1  0.4767010000000  0.5317170000000  0.5922160000000 1.0
C      1  0.4229250000000  0.5640430000000  0.4531900000000 1.0
C      1  0.3982580000000  0.5326760000000  0.5129120000000 1.0
C      1  0.4534530000000  0.4325920000000  0.4282830000000 1.0
C      1  0.5111610000000  0.6068770000000  0.4754680000000 1.0
C      1  0.5627440000000  0.3997510000000  0.4700490000000 1.0
C      1  0.5716830000000  0.4720090000000  0.5802590000000 1.0
C      1  0.4464300000000  0.4155630000000  0.4711540000000 1.0
C      1  0.4485730000000  0.5383790000000  0.5043270000000 1.0
C      1  0.4950170000000  0.5770450000000  0.5742100000000 1.0
C      1  0.4722430000000  0.5981230000000  0.5374810000000 1.0
C      1  0.3978390000000  0.4959150000000  0.4860460000000 1.0
C      1  0.5330380000000  0.4132740000000  0.5494800000000 1.0
C      1  0.4469430000000  0.5474960000000  0.4802960000000 1.0
C      1  0.5530290000000  0.5368140000000  0.4086420000000 1.0
C      1  0.4634910000000  0.4079580000000  0.5194130000000 1.0
C      1  0.4911770000000  0.5532910000000  0.4563010000000 1.0
C      1  0.4954410000000  0.5788340000000  0.4311290000000 1.0
C      1  0.3867520000000  0.5103600000000  0.5279860000000 1.0
C      1  0.4363260000000  0.5896460000000  0.5000030000000 1.0
C      1  0.5442280000000  0.6072090000000  0.4993690000000 1.0
C      1  0.5655300000000  0.4764790000000  0.5524170000000 1.0
C      1  0.5220780000000  0.5465110000000  0.6053270000000 1.0
C      1  0.5650070000000  0.5204210000000  0.5996930000000 1.0
C      1  0.4495430000000  0.5861050000000  0.5234940000000 1.0
C      1  0.4855060000000  0.5973480000000  0.4744780000000 1.0
C      1  0.5603410000000  0.4999320000000  0.4642960000000 1.0
C      1  0.5489010000000  0.4854460000000  0.5014470000000 1.0
C      1  0.4073030000000  0.4833690000000  0.5645800000000 1.0
C      1  0.5402730000000  0.5307590000000  0.5873590000000 1.0
C      1  0.6022800000000  0.4994320000000  0.5197560000000 1.0
C      1  0.5673240000000  0.4299180000000  0.5109630000000 1.0
C      1  0.5250410000000  0.5195210000000  0.4502270000000 1.0
C      1  0.5250260000000  0.5310030000000  0.5091680000000 1.0
C      1  0.5869300000000  0.5211550000000  0.5838350000000 1.0
C      1  0.5356840000000  0.3864050000000  0.4994900000000 1.0
C      1  0.4989460000000  0.4492400000000  0.4499730000000 1.0
C      1  0.4953540000000  0.5539290000000  0.5946850000000 1.0
C      1  0.4609680000000  0.4601690000000  0.4173400000000 1.0
C      1  0.4650190000000  0.4627400000000  0.5351020000000 1.0
C      1  0.4103620000000  0.5366590000000  0.4581300000000 1.0
C      1  0.5442730000000  0.5575070000000  0.4299820000000 1.0
C      1  0.4116920000000  0.5114390000000  0.4412490000000 1.0
C      1  0.4430710000000  0.5747150000000  0.5734510000000 1.0
C      1  0.5605740000000  0.4038690000000  0.4994090000000 1.0
C      1  0.5750090000000  0.5347010000000  0.4923380000000 1.0
C      1  0.5065480000000  0.3913700000000  0.5012130000000 1.0
C      1  0.5169880000000  0.4328060000000  0.5003540000000 1.0
C      1  0.4157670000000  0.5453030000000  0.5320380000000 1.0
C      1  0.4016900000000  0.4630680000000  0.5179120000000 1.0
C      1  0.5565300000000  0.4196600000000  0.4483560000000 1.0
C      1  0.4469810000000  0.5533220000000  0.5271270000000 1.0
C      1  0.5068230000000  0.4766940000000  0.4010970000000 1.0
C      1  0.5650970000000  0.5839890000000  0.5421330000000 1.0
C      1  0.5140830000000  0.5374570000000  0.3964150000000 1.0
C      1  0.5039870000000  0.4076670000000  0.5517170000000 1.0
C      1  0.5352060000000  0.4892400000000  0.4748480000000 1.0
C      1  0.4611470000000  0.5320820000000  0.5667690000000 1.0
C      1  0.5961680000000  0.5174840000000  0.4301120000000 1.0
C      1  0.5694720000000  0.5062810000000  0.4913860000000 1.0
C      1  0.4802610000000  0.4682290000000  0.3928820000000 1.0
C      1  0.4711920000000  0.4040850000000  0.4619470000000 1.0
C      1  0.5580760000000  0.4886620000000  0.4063680000000 1.0
C      1  0.4633900000000  0.4745790000000  0.4737830000000 1.0
C      1  0.4747270000000  0.5421240000000  0.5370400000000 1.0
C      1  0.5041780000000  0.4262880000000  0.4337300000000 1.0
C      1  0.4720810000000  0.5553920000000  0.4762200000000 1.0
C      1  0.4366070000000  0.4447560000000  0.5463440000000 1.0
C      1  0.4684490000000  0.4298930000000  0.5858640000000 1.0
C      1  0.4349000000000  0.4319910000000  0.4503590000000 1.0
C      1  0.5185270000000  0.3888110000000  0.4560160000000 1.0
C      1  0.4761370000000  0.5133030000000  0.4088610000000 1.0
C      1  0.4728680000000  0.5897260000000  0.4480240000000 1.0
C      1  0.5440680000000  0.5417630000000  0.4542420000000 1.0
C      1  0.4325280000000  0.5070580000000  0.4202200000000 1.0
C      1  0.3851690000000  0.4864680000000  0.5103910000000 1.0
C      1  0.5786540000000  0.4961950000000  0.5950960000000 1.0
C      1  0.4491470000000  0.5733980000000  0.4405940000000 1.0
C      1  0.5781300000000  0.5772240000000  0.4695690000000 1.0
C      1  0.4412100000000  0.4344050000000  0.5761120000000 1.0
C      1  0.4568750000000  0.5560100000000  0.4190100000000 1.0
C      1  0.4838860000000  0.5729400000000  0.4921650000000 1.0
C      1  0.4978300000000  0.4965660000000  0.5145020000000 1.0
C      1  0.5351840000000  0.5204620000000  0.3905110000000 1.0
C      1  0.4425990000000  0.4985490000000  0.6000270000000 1.0
C      1  0.5044470000000  0.5163940000000  0.4950230000000 1.0
C      1  0.4955730000000  0.3921590000000  0.4742450000000 1.0
C      1  0.5378050000000  0.4696810000000  0.4381660000000 1.0
C      1  0.5850720000000  0.4637700000000  0.5346600000000 1.0
C      1  0.5340690000000  0.4778260000000  0.5480880000000 1.0
C      1  0.4649710000000  0.4924020000000  0.3906200000000 1.0
C      1  0.4115570000000  0.4839990000000  0.4489170000000 1.0
C      1  0.4869170000000  0.4967250000000  0.5562920000000 1.0
C      1  0.5434380000000  0.5763890000000  0.5609880000000 1.0
C      1  0.4692530000000  0.5876510000000  0.5643390000000 1.0
C      1  0.6046080000000  0.5025310000000  0.4546160000000 1.0
C      1  0.5167070000000  0.4561120000000  0.5427300000000 1.0
C      1  0.5100240000000  0.4779890000000  0.5964640000000 1.0
C      1  0.5157170000000  0.5842020000000  0.5562240000000 1.0
C      1  0.4691330000000  0.5063220000000  0.6063260000000 1.0
C      1  0.4259900000000  0.5716260000000  0.4812710000000 1.0
C      1  0.5368790000000  0.4419100000000  0.4812180000000 1.0
C      1  0.4942740000000  0.5652890000000  0.5203640000000 1.0
C      1  0.4789720000000  0.4692200000000  0.5042840000000 1.0
C      1  0.5599810000000  0.4621040000000  0.4237080000000 1.0
C      1  0.5606350000000  0.4533690000000  0.4933460000000 1.0
C      1  0.5346360000000  0.5200410000000  0.5339320000000 1.0
C      1  0.5304660000000  0.4930120000000  0.5239810000000 1.0
C      1  0.5737540000000  0.4364970000000  0.5386190000000 1.0
C      1  0.5155740000000  0.6059100000000  0.5020210000000 1.0
C      1  0.4224690000000  0.4808970000000  0.5903640000000 1.0
C      1  0.5565580000000  0.5969910000000  0.4729770000000 1.0
C      1  0.5259610000000  0.5803330000000  0.4346390000000 1.0
C      1  0.4618820000000  0.5026870000000  0.4753500000000 1.0
C      1  0.4890300000000  0.4560180000000  0.5520680000000 1.0
C      1  0.5411680000000  0.5668940000000  0.5034070000000 1.0
C      1  0.5548930000000  0.4295350000000  0.5607120000000 1.0
C      1  0.4372160000000  0.4953480000000  0.5169420000000 1.0
C      1  0.5707290000000  0.5143210000000  0.4145550000000 1.0
C      1  0.5417090000000  0.3789830000000  0.4715790000000 1.0
END
