TITL C-883731-9874-300 -3.6987499395479 125000 -15814.5271631301 0 0 109 (C1) n - 1
REM
REM in /home/nfs/bkarasulu/CARBON/AIRSS/Generating-Clusters/ReaxFF-fromJPCA2015/Units_Real/with-SteepDescent/Only-C1/SD-CG/Try1-3A/FIRE-CG
REM
REM
REM
REM
REM
REM ./C.cell (11c1c37f851c82e70ff6c80c92926a4b)
REM
REM compiler GCC version 9.2.1 20190827 (Red Hat 9.2.1-1)
REM options -cpp -mtune=generic -march=x86-64 -g -O0 -fpre-include=/usr/include/finclude/math-vector-fortran.h
REM seed -947197280 -999594503 1752078888 -115519674 -1112453555 -79268328 1069699676 1883732822 199201116 -614279501 -1905514511 -1106946442 1553986070 774263790 -163702566 -1367844571 -1903408110 141027061 -136092848 -1652166566 -1579737705 1682784004 1564752506 853576503 -733597329 -940592953 513128024 958335867 1680400845 840789718 650074025 -473606474 166649224
REM
CELL 1.54180   50.00000   50.00000   50.00000   90.00000   90.00000   90.00000
LATT -1
SFAC C  
C      1  0.5172160000000  0.4917210000000  0.4449390000000 1.0
C      1  0.4519430000000  0.5069830000000  0.5701130000000 1.0
C      1  0.4745350000000  0.4771750000000  0.4207870000000 1.0
C      1  0.5187100000000  0.4088930000000  0.4750880000000 1.0
C      1  0.4932840000000  0.4223070000000  0.4742970000000 1.0
C      1  0.5816910000000  0.5330480000000  0.4999520000000 1.0
C      1  0.5000190000000  0.4695020000000  0.4106100000000 1.0
C      1  0.5317720000000  0.4382710000000  0.4345980000000 1.0
C      1  0.5139310000000  0.5939650000000  0.5184070000000 1.0
C      1  0.4718360000000  0.4284020000000  0.5141550000000 1.0
C      1  0.5691610000000  0.5090530000000  0.4558830000000 1.0
C      1  0.4223240000000  0.5497340000000  0.4948110000000 1.0
C      1  0.4275550000000  0.4457060000000  0.4859200000000 1.0
C      1  0.4980560000000  0.5461740000000  0.4832760000000 1.0
C      1  0.4962560000000  0.5782630000000  0.4742710000000 1.0
C      1  0.4762310000000  0.5051910000000  0.4952090000000 1.0
C      1  0.4851860000000  0.5596120000000  0.5677370000000 1.0
C      1  0.4163110000000  0.5263120000000  0.4807370000000 1.0
C      1  0.4263140000000  0.4400340000000  0.5151620000000 1.0
C      1  0.5182310000000  0.4076230000000  0.5046750000000 1.0
C      1  0.5030090000000  0.4496320000000  0.4838620000000 1.0
C      1  0.4822730000000  0.5443160000000  0.5925330000000 1.0
C      1  0.4321530000000  0.4779210000000  0.4852140000000 1.0
C      1  0.4422660000000  0.4782480000000  0.5695840000000 1.0
C      1  0.5720780000000  0.5327740000000  0.4726120000000 1.0
C      1  0.5759850000000  0.4813230000000  0.5584980000000 1.0
C      1  0.5600590000000  0.5251320000000  0.5427580000000 1.0
C      1  0.4830150000000  0.5580000000000  0.4379370000000 1.0
C      1  0.4734950000000  0.4366400000000  0.4330620000000 1.0
C      1  0.5146080000000  0.5137660000000  0.5717680000000 1.0
C      1  0.4451230000000  0.5469810000000  0.5443960000000 1.0
C      1  0.5371020000000  0.5928360000000  0.5015310000000 1.0
C      1  0.5422510000000  0.4395740000000  0.5553760000000 1.0
C      1  0.5072900000000  0.5712890000000  0.4460080000000 1.0
C      1  0.5021380000000  0.4473640000000  0.4319270000000 1.0
C      1  0.4533320000000  0.4571760000000  0.4237950000000 1.0
C      1  0.5465580000000  0.4607800000000  0.4234750000000 1.0
C      1  0.4933430000000  0.4096070000000  0.5216070000000 1.0
C      1  0.4443790000000  0.5762870000000  0.4977710000000 1.0
C      1  0.4248280000000  0.4878550000000  0.5129400000000 1.0
C      1  0.5794730000000  0.4815310000000  0.4616700000000 1.0
C      1  0.5529610000000  0.4416530000000  0.4789320000000 1.0
C      1  0.5600390000000  0.4764230000000  0.5189990000000 1.0
C      1  0.5930260000000  0.5104660000000  0.5151540000000 1.0
C      1  0.5328040000000  0.5386370000000  0.4239600000000 1.0
C      1  0.4608620000000  0.5355880000000  0.4728020000000 1.0
C      1  0.5515770000000  0.4486840000000  0.5307660000000 1.0
C      1  0.4354150000000  0.5138710000000  0.5200980000000 1.0
C      1  0.5317400000000  0.5354310000000  0.5768930000000 1.0
C      1  0.5077460000000  0.4249640000000  0.5696350000000 1.0
C      1  0.4762730000000  0.4833780000000  0.4568720000000 1.0
C      1  0.5033550000000  0.5125720000000  0.4305930000000 1.0
C      1  0.5431470000000  0.5052740000000  0.5274340000000 1.0
C      1  0.5333610000000  0.5596870000000  0.4426460000000 1.0
C      1  0.5127030000000  0.5977760000000  0.4899190000000 1.0
C      1  0.5663400000000  0.4704990000000  0.4403010000000 1.0
C      1  0.5315920000000  0.5585870000000  0.5578910000000 1.0
C      1  0.5231480000000  0.4747910000000  0.5711770000000 1.0
C      1  0.4644330000000  0.4790210000000  0.4861190000000 1.0
C      1  0.5117940000000  0.5070390000000  0.5433390000000 1.0
C      1  0.4345360000000  0.5201780000000  0.5491810000000 1.0
C      1  0.4733590000000  0.5399710000000  0.5489460000000 1.0
C      1  0.4573420000000  0.5223700000000  0.4481220000000 1.0
C      1  0.4798130000000  0.4567340000000  0.5064740000000 1.0
C      1  0.4370150000000  0.4768020000000  0.4368630000000 1.0
C      1  0.5494250000000  0.5531780000000  0.4705650000000 1.0
C      1  0.4897590000000  0.5073470000000  0.4681800000000 1.0
C      1  0.5540670000000  0.5722160000000  0.4936240000000 1.0
C      1  0.4807600000000  0.5290940000000  0.4342640000000 1.0
C      1  0.5410870000000  0.5003640000000  0.4583030000000 1.0
C      1  0.4975090000000  0.5190360000000  0.5932330000000 1.0
C      1  0.5259420000000  0.4833340000000  0.4142900000000 1.0
C      1  0.5152610000000  0.4886810000000  0.4963190000000 1.0
C      1  0.5390130000000  0.4820450000000  0.4789380000000 1.0
C      1  0.5035190000000  0.4789010000000  0.5493690000000 1.0
C      1  0.5068840000000  0.5728530000000  0.5531930000000 1.0
C      1  0.4265120000000  0.4648110000000  0.5300440000000 1.0
C      1  0.4887160000000  0.5238190000000  0.5295260000000 1.0
C      1  0.4405550000000  0.5686120000000  0.5257700000000 1.0
C      1  0.4921980000000  0.5753700000000  0.5254630000000 1.0
C      1  0.5018230000000  0.4692240000000  0.4569190000000 1.0
C      1  0.4944740000000  0.5460940000000  0.5120000000000 1.0
C      1  0.5546610000000  0.5182990000000  0.5708320000000 1.0
C      1  0.5512710000000  0.4890580000000  0.5723450000000 1.0
C      1  0.4460570000000  0.4326970000000  0.4715490000000 1.0
C      1  0.4679060000000  0.4217200000000  0.4573010000000 1.0
C      1  0.5661440000000  0.5559680000000  0.5137650000000 1.0
C      1  0.4660600000000  0.5819540000000  0.4779610000000 1.0
C      1  0.5304850000000  0.4454650000000  0.4961150000000 1.0
C      1  0.4555280000000  0.5253650000000  0.5005930000000 1.0
C      1  0.4627980000000  0.5832520000000  0.5193690000000 1.0
C      1  0.4191290000000  0.4992940000000  0.4671200000000 1.0
C      1  0.4678810000000  0.5190690000000  0.5917660000000 1.0
C      1  0.5552220000000  0.5540140000000  0.5407100000000 1.0
C      1  0.5249650000000  0.5154250000000  0.4113440000000 1.0
C      1  0.5258010000000  0.4455880000000  0.5779900000000 1.0
C      1  0.4810290000000  0.4662190000000  0.5352840000000 1.0
C      1  0.4621190000000  0.5612780000000  0.4587210000000 1.0
C      1  0.4163780000000  0.4875220000000  0.5684540000000 1.0
C      1  0.5392830000000  0.4255340000000  0.5157660000000 1.0
C      1  0.5291030000000  0.5149550000000  0.5032560000000 1.0
C      1  0.5254750000000  0.5371520000000  0.4840100000000 1.0
C      1  0.4339190000000  0.5040600000000  0.4423660000000 1.0
C      1  0.4540700000000  0.4584670000000  0.5463220000000 1.0
C      1  0.4987160000000  0.4152190000000  0.5486740000000 1.0
C      1  0.5647790000000  0.4682450000000  0.4856990000000 1.0
C      1  0.4490810000000  0.4307470000000  0.5314300000000 1.0
C      1  0.5858400000000  0.4858620000000  0.5299200000000 1.0
C      1  0.5390970000000  0.4251990000000  0.4592680000000 1.0
END
