TITL C-883736-9678-200 0.37018000941617 125000 -5763.64717245962 0 0 40 (C1) n - 1
REM
REM in /home/nfs/bkarasulu/CARBON/AIRSS/Generating-Clusters/ReaxFF-fromJPCA2015/Units_Real/with-SteepDescent/Only-C1/SD-CG/Try1-3A/FIRE-CG
REM
REM
REM
REM
REM
REM ./C.cell (11c1c37f851c82e70ff6c80c92926a4b)
REM
REM compiler GCC version 9.2.1 20190827 (Red Hat 9.2.1-1)
REM options -cpp -mtune=generic -march=x86-64 -g -O0 -fpre-include=/usr/include/finclude/math-vector-fortran.h
REM seed 1318142126 192097112 -1909042963 -300678156 591526500 -1960430652 603956401 -1605804617 1600413658 -437611431 -435990529 -1528847181 -1260799543 -126376186 -84889166 763894320 -373014856 -1226413977 76921450 -2012762905 960405941 -1916538265 1329458722 1162109012 246106759 386636276 1553560178 586252130 -188065487 -1370445873 -1782579642 -1342779696 1276335258
REM
CELL 1.54180   50.00000   50.00000   50.00000   90.00000   90.00000   90.00000
LATT -1
SFAC C  
C      1  0.5378810000000  0.4881560000000  0.4534720000000 1.0
C      1  0.5050370000000  0.5638970000000  0.4953760000000 1.0
C      1  0.5331250000000  0.5522860000000  0.4907210000000 1.0
C      1  0.5215210000000  0.4652630000000  0.4517360000000 1.0
C      1  0.5483950000000  0.5134740000000  0.4915290000000 1.0
C      1  0.5125150000000  0.4498440000000  0.5140700000000 1.0
C      1  0.4751870000000  0.4880090000000  0.4502210000000 1.0
C      1  0.4880390000000  0.5251270000000  0.4788570000000 1.0
C      1  0.4812220000000  0.4796330000000  0.5382700000000 1.0
C      1  0.5231050000000  0.4452130000000  0.4880540000000 1.0
C      1  0.4399680000000  0.5154370000000  0.4985260000000 1.0
C      1  0.5370350000000  0.4625860000000  0.5233110000000 1.0
C      1  0.4875860000000  0.5479540000000  0.4449750000000 1.0
C      1  0.5469380000000  0.5251860000000  0.5192550000000 1.0
C      1  0.4818290000000  0.4631530000000  0.4656750000000 1.0
C      1  0.4868660000000  0.4604550000000  0.5173270000000 1.0
C      1  0.5286440000000  0.5265330000000  0.4760970000000 1.0
C      1  0.5466020000000  0.4624690000000  0.4951330000000 1.0
C      1  0.4599110000000  0.5242840000000  0.5184140000000 1.0
C      1  0.5406240000000  0.4805000000000  0.5459540000000 1.0
C      1  0.5386300000000  0.5095060000000  0.5426740000000 1.0
C      1  0.5064690000000  0.5531880000000  0.5227380000000 1.0
C      1  0.4476080000000  0.4921120000000  0.4485070000000 1.0
C      1  0.4934070000000  0.5152640000000  0.4517690000000 1.0
C      1  0.4632500000000  0.5282760000000  0.4914300000000 1.0
C      1  0.5223590000000  0.5133330000000  0.4522820000000 1.0
C      1  0.5514660000000  0.4868140000000  0.4803530000000 1.0
C      1  0.4875990000000  0.5551700000000  0.4731820000000 1.0
C      1  0.4087840000000  0.4897360000000  0.4898280000000 1.0
C      1  0.5228010000000  0.4746260000000  0.5684900000000 1.0
C      1  0.4778460000000  0.5083860000000  0.5329430000000 1.0
C      1  0.4937360000000  0.4755700000000  0.5643370000000 1.0
C      1  0.4356240000000  0.4912440000000  0.4802850000000 1.0
C      1  0.4407620000000  0.4628720000000  0.4960700000000 1.0
C      1  0.5058160000000  0.4457670000000  0.4635100000000 1.0
C      1  0.5078610000000  0.4987940000000  0.5756020000000 1.0
C      1  0.5154400000000  0.5199890000000  0.5569710000000 1.0
C      1  0.5346720000000  0.5501050000000  0.5198090000000 1.0
C      1  0.4692950000000  0.4588950000000  0.4933110000000 1.0
C      1  0.4945480000000  0.5308910000000  0.5389350000000 1.0
END
