TITL C-884133-6611-427 -30.7805635030207 125000 -5319.48225330917 0 0 37 (C1) n - 1
REM
REM in /home/nfs/bkarasulu/CARBON/AIRSS/Generating-Clusters/ReaxFF-fromJPCA2015/Units_Real/with-SteepDescent/Only-C1/SD-CG/Try1-3A/FIRE-CG
REM
REM
REM
REM
REM
REM ./C.cell (11c1c37f851c82e70ff6c80c92926a4b)
REM
REM compiler GCC version 9.2.1 20190827 (Red Hat 9.2.1-1)
REM options -cpp -mtune=generic -march=x86-64 -g -O0 -fpre-include=/usr/include/finclude/math-vector-fortran.h
REM seed 1708135856 -364322356 -1944820358 2128925378 1854997345 -1509026111 894213188 -12482926 -1068816052 2012702117 -1741434655 2133364791 -57113895 -788466550 -1848514174 -1617223660 -440883036 154383853 459124791 320520721 1925329445 -1229867076 -824395786 -1696524530 -579312124 1491130913 -1738759938 1578713291 1930737027 723305109 -2014265091 1094008817 1699524244
REM
CELL 1.54180   50.00000   50.00000   50.00000   90.00000   90.00000   90.00000
LATT -1
SFAC C  
C      1  0.5037650000000  0.5534760000000  0.5275480000000 1.0
C      1  0.5022370000000  0.4995880000000  0.4461600000000 1.0
C      1  0.5035550000000  0.5227240000000  0.4904570000000 1.0
C      1  0.4731370000000  0.4591610000000  0.4647760000000 1.0
C      1  0.4621050000000  0.5218710000000  0.5421420000000 1.0
C      1  0.5307910000000  0.4931530000000  0.4483910000000 1.0
C      1  0.4722470000000  0.4412130000000  0.4863100000000 1.0
C      1  0.5202910000000  0.4360820000000  0.4717340000000 1.0
C      1  0.5372680000000  0.4793500000000  0.5525780000000 1.0
C      1  0.4551740000000  0.4768800000000  0.5228720000000 1.0
C      1  0.5375960000000  0.4722540000000  0.4682880000000 1.0
C      1  0.5071360000000  0.5247880000000  0.4610750000000 1.0
C      1  0.5328520000000  0.5471380000000  0.5288860000000 1.0
C      1  0.4918900000000  0.5472110000000  0.5004730000000 1.0
C      1  0.5173520000000  0.4607830000000  0.4841540000000 1.0
C      1  0.5187180000000  0.5029590000000  0.5072870000000 1.0
C      1  0.4977590000000  0.4577820000000  0.5261230000000 1.0
C      1  0.4384960000000  0.5219490000000  0.5231560000000 1.0
C      1  0.5414860000000  0.5182840000000  0.5251610000000 1.0
C      1  0.5791490000000  0.5417300000000  0.4775980000000 1.0
C      1  0.4719240000000  0.4542550000000  0.5143450000000 1.0
C      1  0.5360550000000  0.5208660000000  0.4567450000000 1.0
C      1  0.4755470000000  0.4842250000000  0.4506700000000 1.0
C      1  0.4354590000000  0.4958170000000  0.5108850000000 1.0
C      1  0.4399840000000  0.5357410000000  0.4970120000000 1.0
C      1  0.4960170000000  0.4273620000000  0.4759300000000 1.0
C      1  0.5535160000000  0.5407400000000  0.5096560000000 1.0
C      1  0.4716780000000  0.4945440000000  0.5387120000000 1.0
C      1  0.5142570000000  0.4651990000000  0.5495910000000 1.0
C      1  0.5548760000000  0.5344810000000  0.4783210000000 1.0
C      1  0.4365670000000  0.5075170000000  0.4832320000000 1.0
C      1  0.4826330000000  0.5433960000000  0.5454900000000 1.0
C      1  0.5337330000000  0.4819950000000  0.4936050000000 1.0
C      1  0.5005080000000  0.4872910000000  0.5324010000000 1.0
C      1  0.5558200000000  0.4985530000000  0.5494810000000 1.0
C      1  0.4632220000000  0.5530230000000  0.4928580000000 1.0
C      1  0.4551990000000  0.4966190000000  0.4658960000000 1.0
END
