TITL C-884140-4336-279 8.74690898899833e-09 125000 -3530.35068537336 0 0 25 (C1) n - 1
REM
REM in /home/nfs/bkarasulu/CARBON/AIRSS/Generating-Clusters/ReaxFF-fromJPCA2015/Units_Real/with-SteepDescent/Only-C1/SD-CG/Try1-3A/FIRE-CG
REM
REM
REM
REM
REM
REM ./C.cell (11c1c37f851c82e70ff6c80c92926a4b)
REM
REM compiler GCC version 9.2.1 20190827 (Red Hat 9.2.1-1)
REM options -cpp -mtune=generic -march=x86-64 -g -O0 -fpre-include=/usr/include/finclude/math-vector-fortran.h
REM seed -587047146 191339215 412696769 346185053 -1931621872 19943533 -2104540917 207210610 186382194 -906286304 1895174480 -185649207 2079902816 163837454 -730838374 -867717398 -505687201 1426024436 1800670103 -1401348365 1309953099 -1025882921 -1510109413 -1787994523 1993017708 -997855940 -129487084 -786673731 380198823 -791011933 -1947834949 -525760988 -1725650539
REM
CELL 1.54180   50.00000   50.00000   50.00000   90.00000   90.00000   90.00000
LATT -1
SFAC C  
C      1  0.4933360000000  0.4736360000000  0.5350340000000 1.0
C      1  0.5160070000000  0.5119690000000  0.5590840000000 1.0
C      1  0.5338920000000  0.4799540000000  0.4646150000000 1.0
C      1  0.4634930000000  0.4637890000000  0.4613860000000 1.0
C      1  0.5324150000000  0.4964030000000  0.5141210000000 1.0
C      1  0.4907420000000  0.5513160000000  0.5298010000000 1.0
C      1  0.4913610000000  0.4579580000000  0.4616560000000 1.0
C      1  0.4762910000000  0.5399130000000  0.5094700000000 1.0
C      1  0.4959140000000  0.5117550000000  0.4434260000000 1.0
C      1  0.5111980000000  0.5412090000000  0.5486880000000 1.0
C      1  0.4662340000000  0.5281250000000  0.4873370000000 1.0
C      1  0.4461490000000  0.4833540000000  0.5071930000000 1.0
C      1  0.5401550000000  0.4758400000000  0.4934230000000 1.0
C      1  0.5243020000000  0.5061900000000  0.4554890000000 1.0
C      1  0.4689130000000  0.4777800000000  0.5215860000000 1.0
C      1  0.5185770000000  0.4544760000000  0.4636700000000 1.0
C      1  0.5204690000000  0.5451830000000  0.5225220000000 1.0
C      1  0.5191590000000  0.5260000000000  0.4763850000000 1.0
C      1  0.5203090000000  0.4880810000000  0.5392860000000 1.0
C      1  0.5320790000000  0.5002700000000  0.5759820000000 1.0
C      1  0.5308280000000  0.4474410000000  0.4918880000000 1.0
C      1  0.4435930000000  0.4804000000000  0.4776530000000 1.0
C      1  0.4456370000000  0.5066340000000  0.4887130000000 1.0
C      1  0.4905780000000  0.5287810000000  0.4672610000000 1.0
C      1  0.5283700000000  0.5235450000000  0.5043320000000 1.0
END
