TITL C-884136-4169-187 170.903958177106 125000 -28077.4283844847 0 0 190 (C1) n - 1
REM
REM in /home/nfs/bkarasulu/CARBON/AIRSS/Generating-Clusters/ReaxFF-fromJPCA2015/Units_Real/with-SteepDescent/Only-C1/SD-CG/Try1-3A/FIRE-CG
REM
REM
REM
REM
REM
REM ./C.cell (11c1c37f851c82e70ff6c80c92926a4b)
REM
REM compiler GCC version 9.2.1 20190827 (Red Hat 9.2.1-1)
REM options -cpp -mtune=generic -march=x86-64 -g -O0 -fpre-include=/usr/include/finclude/math-vector-fortran.h
REM seed 341135641 575545872 -1091907978 1563670572 1928668116 213087338 1657400837 -59197663 484529429 1999903273 213140306 -320749481 797890008 -526301538 1476890578 -445246059 -1050632609 -1209583699 1019373246 -1608269470 239605372 -2126628859 1355238585 -1527094620 1215226269 1413416038 -1901552716 934241604 -1552462048 828311733 -2130645732 -2133167104 -2098977288
REM
CELL 1.54180   50.00000   50.00000   50.00000   90.00000   90.00000   90.00000
LATT -1
SFAC C  
C      1  0.4743610000000  0.5128740000000  0.4024640000000 1.0
C      1  0.4659970000000  0.5247270000000  0.5011650000000 1.0
C      1  0.4948770000000  0.5098820000000  0.5743830000000 1.0
C      1  0.4989630000000  0.5052430000000  0.6147530000000 1.0
C      1  0.5786780000000  0.5652170000000  0.4548750000000 1.0
C      1  0.5690510000000  0.4529890000000  0.5884720000000 1.0
C      1  0.5417040000000  0.4050030000000  0.4710580000000 1.0
C      1  0.4003960000000  0.4678370000000  0.4493250000000 1.0
C      1  0.4341390000000  0.5575870000000  0.4078010000000 1.0
C      1  0.4628960000000  0.5249370000000  0.4470650000000 1.0
C      1  0.4013100000000  0.4412220000000  0.4896030000000 1.0
C      1  0.4340830000000  0.5733380000000  0.4681930000000 1.0
C      1  0.5432980000000  0.4840020000000  0.4467310000000 1.0
C      1  0.5687630000000  0.4861420000000  0.4312450000000 1.0
C      1  0.4370640000000  0.4210670000000  0.5518120000000 1.0
C      1  0.4469660000000  0.4605430000000  0.4362500000000 1.0
C      1  0.4492520000000  0.5184320000000  0.6118320000000 1.0
C      1  0.5234610000000  0.6222710000000  0.4739360000000 1.0
C      1  0.5558920000000  0.4693170000000  0.5233800000000 1.0
C      1  0.4377320000000  0.4884050000000  0.4736020000000 1.0
C      1  0.4733910000000  0.5525150000000  0.5297240000000 1.0
C      1  0.5490840000000  0.4427490000000  0.4886090000000 1.0
C      1  0.5229940000000  0.4849000000000  0.3992970000000 1.0
C      1  0.5317550000000  0.4554350000000  0.5120590000000 1.0
C      1  0.5132990000000  0.4021300000000  0.5142490000000 1.0
C      1  0.5575730000000  0.5759540000000  0.5428740000000 1.0
C      1  0.6023710000000  0.4638180000000  0.5500530000000 1.0
C      1  0.5565260000000  0.5471930000000  0.5841750000000 1.0
C      1  0.5237080000000  0.5660880000000  0.4682310000000 1.0
C      1  0.4405800000000  0.4029590000000  0.5290840000000 1.0
C      1  0.5207040000000  0.4669100000000  0.4420400000000 1.0
C      1  0.4492970000000  0.4866700000000  0.5343580000000 1.0
C      1  0.5229560000000  0.4816640000000  0.5487090000000 1.0
C      1  0.4490000000000  0.4987200000000  0.4074210000000 1.0
C      1  0.4852420000000  0.4467590000000  0.5220230000000 1.0
C      1  0.5533610000000  0.5141550000000  0.4815030000000 1.0
C      1  0.4777690000000  0.5269180000000  0.6127200000000 1.0
C      1  0.4227490000000  0.5747230000000  0.4961940000000 1.0
C      1  0.5080290000000  0.6008340000000  0.4421470000000 1.0
C      1  0.5156810000000  0.4114570000000  0.5653530000000 1.0
C      1  0.5403160000000  0.5985110000000  0.5369770000000 1.0
C      1  0.3977830000000  0.4911950000000  0.5280760000000 1.0
C      1  0.4994650000000  0.4530250000000  0.4794710000000 1.0
C      1  0.4788380000000  0.5639940000000  0.4141040000000 1.0
C      1  0.5292020000000  0.5662790000000  0.4963550000000 1.0
C      1  0.5098880000000  0.5604320000000  0.4024020000000 1.0
C      1  0.4531150000000  0.4921680000000  0.5987960000000 1.0
C      1  0.5402900000000  0.5952310000000  0.5064020000000 1.0
C      1  0.4819070000000  0.4278520000000  0.4150270000000 1.0
C      1  0.4556870000000  0.6011400000000  0.5269820000000 1.0
C      1  0.5016570000000  0.6184160000000  0.5208370000000 1.0
C      1  0.5463290000000  0.4876200000000  0.4746030000000 1.0
C      1  0.5472390000000  0.4033990000000  0.4406410000000 1.0
C      1  0.5622640000000  0.4276140000000  0.4279320000000 1.0
C      1  0.5318380000000  0.5236470000000  0.4654980000000 1.0
C      1  0.4160260000000  0.4402680000000  0.5437560000000 1.0
C      1  0.5194130000000  0.5576200000000  0.3796980000000 1.0
C      1  0.4438050000000  0.4723020000000  0.5576230000000 1.0
C      1  0.4607250000000  0.4204310000000  0.4375770000000 1.0
C      1  0.3937550000000  0.5101990000000  0.4639690000000 1.0
C      1  0.4318410000000  0.5849960000000  0.5225110000000 1.0
C      1  0.5109270000000  0.5519010000000  0.6036320000000 1.0
C      1  0.4899180000000  0.4634040000000  0.5640920000000 1.0
C      1  0.5501890000000  0.4757010000000  0.4074880000000 1.0
C      1  0.5949370000000  0.5214540000000  0.5541750000000 1.0
C      1  0.5070930000000  0.4837430000000  0.5720980000000 1.0
C      1  0.4803270000000  0.4536570000000  0.4026510000000 1.0
C      1  0.5306370000000  0.4043430000000  0.5386860000000 1.0
C      1  0.5238580000000  0.3963210000000  0.4245330000000 1.0
C      1  0.5205520000000  0.5408220000000  0.5080140000000 1.0
C      1  0.4869860000000  0.3949800000000  0.4798510000000 1.0
C      1  0.4577190000000  0.4713130000000  0.4105450000000 1.0
C      1  0.5972150000000  0.4595470000000  0.5793580000000 1.0
C      1  0.5470800000000  0.4639760000000  0.6056560000000 1.0
C      1  0.4268750000000  0.5241100000000  0.5918260000000 1.0
C      1  0.5075930000000  0.4164970000000  0.4087380000000 1.0
C      1  0.4625760000000  0.4042420000000  0.4658210000000 1.0
C      1  0.5015810000000  0.4964670000000  0.5022870000000 1.0
C      1  0.4236420000000  0.4091340000000  0.5060830000000 1.0
C      1  0.5422000000000  0.5589260000000  0.5615260000000 1.0
C      1  0.5354770000000  0.6041270000000  0.4533780000000 1.0
C      1  0.4703630000000  0.4488220000000  0.4810450000000 1.0
C      1  0.5612700000000  0.4681940000000  0.4845300000000 1.0
C      1  0.4821400000000  0.5774580000000  0.4988680000000 1.0
C      1  0.4765040000000  0.4879620000000  0.4570990000000 1.0
C      1  0.4055630000000  0.4959330000000  0.4405060000000 1.0
C      1  0.5497220000000  0.4463960000000  0.4079470000000 1.0
C      1  0.5188080000000  0.4547640000000  0.6025660000000 1.0
C      1  0.4818140000000  0.5803710000000  0.4428740000000 1.0
C      1  0.5135920000000  0.5583000000000  0.5560590000000 1.0
C      1  0.4020000000000  0.5375750000000  0.4696160000000 1.0
C      1  0.4505800000000  0.5731030000000  0.5689300000000 1.0
C      1  0.4608850000000  0.4256950000000  0.5684280000000 1.0
C      1  0.4969860000000  0.4413830000000  0.5474730000000 1.0
C      1  0.5586140000000  0.5120230000000  0.5337420000000 1.0
C      1  0.4746500000000  0.6019910000000  0.4819880000000 1.0
C      1  0.4031580000000  0.5529860000000  0.4966840000000 1.0
C      1  0.4967300000000  0.4751880000000  0.6108360000000 1.0
C      1  0.5840440000000  0.5743980000000  0.5008230000000 1.0
C      1  0.4189830000000  0.5517720000000  0.4524670000000 1.0
C      1  0.5525220000000  0.4814610000000  0.5494140000000 1.0
C      1  0.4864520000000  0.4139730000000  0.5629750000000 1.0
C      1  0.3915590000000  0.4661190000000  0.4768630000000 1.0
C      1  0.4659160000000  0.5078780000000  0.5759770000000 1.0
C      1  0.4964200000000  0.5603150000000  0.4588640000000 1.0
C      1  0.5801730000000  0.5146000000000  0.4379050000000 1.0
C      1  0.5777940000000  0.5442080000000  0.4333200000000 1.0
C      1  0.5826440000000  0.5129250000000  0.4665060000000 1.0
C      1  0.4782650000000  0.5800900000000  0.5287370000000 1.0
C      1  0.4843300000000  0.5550500000000  0.6032990000000 1.0
C      1  0.5355670000000  0.5471810000000  0.4487240000000 1.0
C      1  0.5171870000000  0.4328730000000  0.5843530000000 1.0
C      1  0.4976130000000  0.5829690000000  0.5583000000000 1.0
C      1  0.4847620000000  0.3915980000000  0.5088380000000 1.0
C      1  0.4762440000000  0.5744630000000  0.5805670000000 1.0
C      1  0.5120580000000  0.4712850000000  0.4973460000000 1.0
C      1  0.5739600000000  0.5606100000000  0.5242610000000 1.0
C      1  0.4648600000000  0.4351680000000  0.5072800000000 1.0
C      1  0.4533540000000  0.5680600000000  0.4005520000000 1.0
C      1  0.5242330000000  0.4380190000000  0.3963350000000 1.0
C      1  0.4288540000000  0.5702790000000  0.5482270000000 1.0
C      1  0.4648340000000  0.4086870000000  0.5167350000000 1.0
C      1  0.5439770000000  0.5202530000000  0.5108400000000 1.0
C      1  0.5612000000000  0.5886520000000  0.4607400000000 1.0
C      1  0.4918500000000  0.5306670000000  0.4558300000000 1.0
C      1  0.4114610000000  0.5203410000000  0.5679500000000 1.0
C      1  0.4138800000000  0.4251760000000  0.4683130000000 1.0
C      1  0.5664950000000  0.5934380000000  0.4884020000000 1.0
C      1  0.4650850000000  0.5522510000000  0.5009230000000 1.0
C      1  0.5134900000000  0.6053150000000  0.5446050000000 1.0
C      1  0.4201530000000  0.4985410000000  0.4928470000000 1.0
C      1  0.5785030000000  0.4418670000000  0.4442200000000 1.0
C      1  0.4082450000000  0.4319850000000  0.5165390000000 1.0
C      1  0.5940880000000  0.4436650000000  0.5295860000000 1.0
C      1  0.4637220000000  0.4562720000000  0.5755210000000 1.0
C      1  0.5597390000000  0.4523280000000  0.5616110000000 1.0
C      1  0.5118160000000  0.4362530000000  0.5227570000000 1.0
C      1  0.4240080000000  0.5095260000000  0.4218240000000 1.0
C      1  0.4971080000000  0.6166170000000  0.4632020000000 1.0
C      1  0.4996480000000  0.5420560000000  0.5352840000000 1.0
C      1  0.5375170000000  0.4316950000000  0.4666490000000 1.0
C      1  0.5074340000000  0.4612490000000  0.3922310000000 1.0
C      1  0.4699450000000  0.4692470000000  0.6039270000000 1.0
C      1  0.4682710000000  0.5353880000000  0.4201920000000 1.0
C      1  0.4702640000000  0.4972340000000  0.5049700000000 1.0
C      1  0.4110640000000  0.4406770000000  0.4432540000000 1.0
C      1  0.5796390000000  0.5314630000000  0.5305510000000 1.0
C      1  0.5025800000000  0.4882750000000  0.4455450000000 1.0
C      1  0.4152350000000  0.4668370000000  0.5571170000000 1.0
C      1  0.5167980000000  0.3968660000000  0.4836320000000 1.0
C      1  0.6079790000000  0.4929590000000  0.5558150000000 1.0
C      1  0.5361400000000  0.5416770000000  0.6059620000000 1.0
C      1  0.5897900000000  0.4376090000000  0.5007510000000 1.0
C      1  0.4610500000000  0.5082840000000  0.5478400000000 1.0
C      1  0.4914230000000  0.5139920000000  0.5447520000000 1.0
C      1  0.5663020000000  0.4200120000000  0.5000460000000 1.0
C      1  0.5091270000000  0.5228900000000  0.4838370000000 1.0
C      1  0.4127400000000  0.5447400000000  0.5486970000000 1.0
C      1  0.4236240000000  0.4906740000000  0.5197890000000 1.0
C      1  0.3912150000000  0.4931770000000  0.4888530000000 1.0
C      1  0.5560330000000  0.4130410000000  0.5281400000000 1.0
C      1  0.4010120000000  0.4935890000000  0.5557370000000 1.0
C      1  0.4737380000000  0.6164730000000  0.5107390000000 1.0
C      1  0.5148860000000  0.4437080000000  0.4572250000000 1.0
C      1  0.5970080000000  0.5597440000000  0.4779190000000 1.0
C      1  0.4059070000000  0.5453740000000  0.5229490000000 1.0
C      1  0.6098510000000  0.4872660000000  0.5852190000000 1.0
C      1  0.5228340000000  0.6171540000000  0.5014940000000 1.0
C      1  0.6083010000000  0.5075820000000  0.4812890000000 1.0
C      1  0.4638460000000  0.4446110000000  0.4535200000000 1.0
C      1  0.5037850000000  0.5069220000000  0.4072190000000 1.0
C      1  0.5277580000000  0.5140680000000  0.6150520000000 1.0
C      1  0.6032890000000  0.4801310000000  0.4938870000000 1.0
C      1  0.4508600000000  0.4978280000000  0.4494720000000 1.0
C      1  0.5074270000000  0.5143170000000  0.4344640000000 1.0
C      1  0.5720920000000  0.4315570000000  0.5446710000000 1.0
C      1  0.5626170000000  0.5518450000000  0.4082960000000 1.0
C      1  0.4343350000000  0.4353180000000  0.4272240000000 1.0
C      1  0.4631530000000  0.4789810000000  0.4821920000000 1.0
C      1  0.5345770000000  0.5517310000000  0.4189260000000 1.0
C      1  0.5070280000000  0.4953980000000  0.5292630000000 1.0
C      1  0.4363610000000  0.4083170000000  0.4777320000000 1.0
C      1  0.5481230000000  0.4925890000000  0.6126490000000 1.0
C      1  0.4577490000000  0.5873500000000  0.4612540000000 1.0
C      1  0.6097030000000  0.5353180000000  0.4849400000000 1.0
C      1  0.4212610000000  0.5389240000000  0.4254880000000 1.0
C      1  0.5821910000000  0.5337980000000  0.5776760000000 1.0
C      1  0.5869950000000  0.4635450000000  0.4504510000000 1.0
C      1  0.5984020000000  0.4566430000000  0.4771290000000 1.0
C      1  0.5765470000000  0.4800140000000  0.5060810000000 1.0
END
