TITL C-883735-9890-117 0.15619381853859 125000 -16851.3442690825 0 0 112 (C1) n - 1
REM
REM in /home/nfs/bkarasulu/CARBON/AIRSS/Generating-Clusters/ReaxFF-fromJPCA2015/Units_Real/with-SteepDescent/Only-C1/SD-CG/Try1-3A/FIRE-CG
REM
REM
REM
REM
REM
REM ./C.cell (11c1c37f851c82e70ff6c80c92926a4b)
REM
REM compiler GCC version 9.2.1 20190827 (Red Hat 9.2.1-1)
REM options -cpp -mtune=generic -march=x86-64 -g -O0 -fpre-include=/usr/include/finclude/math-vector-fortran.h
REM seed -1733239472 1659157143 -1962986003 938550314 1194380806 760999689 -1507851578 700503532 1330268306 373445450 -1526815219 -2120846810 2004450146 -1648734723 -428710315 744268763 -459562255 614952791 1763207480 -1279689128 -581150192 1734788836 -1502784546 1375513142 -873259126 -1319400450 962941810 435763091 -2027526435 -1499323724 -1205039928 -17553504 -549726044
REM
CELL 1.54180   50.00000   50.00000   50.00000   90.00000   90.00000   90.00000
LATT -1
SFAC C  
C      1  0.5334980000000  0.5682980000000  0.5242020000000 1.0
C      1  0.4416340000000  0.5583830000000  0.5471400000000 1.0
C      1  0.4720050000000  0.4477450000000  0.5561340000000 1.0
C      1  0.4490920000000  0.5277610000000  0.4330720000000 1.0
C      1  0.5286050000000  0.5095120000000  0.5725650000000 1.0
C      1  0.3926040000000  0.4898090000000  0.4651280000000 1.0
C      1  0.4860580000000  0.5644290000000  0.4431650000000 1.0
C      1  0.5638900000000  0.5220150000000  0.5327900000000 1.0
C      1  0.5549070000000  0.4818880000000  0.5020580000000 1.0
C      1  0.4135020000000  0.4508980000000  0.4874380000000 1.0
C      1  0.5289310000000  0.4455430000000  0.4946680000000 1.0
C      1  0.4339860000000  0.4736220000000  0.4351650000000 1.0
C      1  0.4836620000000  0.4761910000000  0.5241590000000 1.0
C      1  0.5369860000000  0.4941490000000  0.4845560000000 1.0
C      1  0.5837660000000  0.4403880000000  0.5144430000000 1.0
C      1  0.4796890000000  0.5186860000000  0.5879500000000 1.0
C      1  0.5298650000000  0.4111640000000  0.4609970000000 1.0
C      1  0.5054530000000  0.4355780000000  0.5781170000000 1.0
C      1  0.5710090000000  0.4674850000000  0.5499920000000 1.0
C      1  0.5477380000000  0.5153600000000  0.4671570000000 1.0
C      1  0.4626170000000  0.5759760000000  0.4570790000000 1.0
C      1  0.4384940000000  0.5649560000000  0.4474950000000 1.0
C      1  0.3957200000000  0.4606830000000  0.4663120000000 1.0
C      1  0.4815940000000  0.4489570000000  0.5838170000000 1.0
C      1  0.4945030000000  0.5224590000000  0.4167810000000 1.0
C      1  0.4627150000000  0.5853340000000  0.5058610000000 1.0
C      1  0.5247740000000  0.5241920000000  0.4514560000000 1.0
C      1  0.5698700000000  0.5115390000000  0.4418870000000 1.0
C      1  0.4896820000000  0.4856760000000  0.4974740000000 1.0
C      1  0.4207660000000  0.5404170000000  0.5034050000000 1.0
C      1  0.5639560000000  0.5428530000000  0.5536010000000 1.0
C      1  0.5691010000000  0.4391010000000  0.5398500000000 1.0
C      1  0.4751310000000  0.5413910000000  0.4279910000000 1.0
C      1  0.5768520000000  0.5221210000000  0.5075370000000 1.0
C      1  0.4673350000000  0.4839370000000  0.4091350000000 1.0
C      1  0.6008510000000  0.4765320000000  0.5405970000000 1.0
C      1  0.4828280000000  0.4891040000000  0.4526340000000 1.0
C      1  0.4470130000000  0.4319360000000  0.5113630000000 1.0
C      1  0.5987370000000  0.5019110000000  0.4514540000000 1.0
C      1  0.5322260000000  0.4358710000000  0.5710330000000 1.0
C      1  0.5618140000000  0.5386960000000  0.4878900000000 1.0
C      1  0.4521650000000  0.4520940000000  0.4417800000000 1.0
C      1  0.5037280000000  0.4209110000000  0.4496400000000 1.0
C      1  0.5278170000000  0.4616720000000  0.4443650000000 1.0
C      1  0.4634080000000  0.5442750000000  0.5609180000000 1.0
C      1  0.5406490000000  0.4754920000000  0.4216770000000 1.0
C      1  0.4898560000000  0.5428620000000  0.5769910000000 1.0
C      1  0.6019110000000  0.4865920000000  0.4748480000000 1.0
C      1  0.5101080000000  0.5699010000000  0.4594690000000 1.0
C      1  0.5360660000000  0.4639420000000  0.5837670000000 1.0
C      1  0.5013240000000  0.5089540000000  0.4425500000000 1.0
C      1  0.4039200000000  0.5073190000000  0.4852530000000 1.0
C      1  0.5599560000000  0.4946650000000  0.4200840000000 1.0
C      1  0.5042940000000  0.4465730000000  0.4366990000000 1.0
C      1  0.5978790000000  0.4686850000000  0.5134300000000 1.0
C      1  0.4129070000000  0.5335530000000  0.4769830000000 1.0
C      1  0.5738740000000  0.5288880000000  0.5787990000000 1.0
C      1  0.5353220000000  0.5393630000000  0.4286550000000 1.0
C      1  0.4207320000000  0.4686430000000  0.5089450000000 1.0
C      1  0.5257780000000  0.4504570000000  0.5242260000000 1.0
C      1  0.5120820000000  0.5881290000000  0.5239110000000 1.0
C      1  0.5438770000000  0.4215620000000  0.4847170000000 1.0
C      1  0.4354250000000  0.4531720000000  0.5265180000000 1.0
C      1  0.4918060000000  0.5901890000000  0.5027070000000 1.0
C      1  0.4505140000000  0.5108770000000  0.4893470000000 1.0
C      1  0.4626530000000  0.5369980000000  0.4899270000000 1.0
C      1  0.4277950000000  0.5366600000000  0.5310210000000 1.0
C      1  0.5573190000000  0.5048820000000  0.5838430000000 1.0
C      1  0.4269980000000  0.5395160000000  0.4485950000000 1.0
C      1  0.5391830000000  0.5701910000000  0.4695200000000 1.0
C      1  0.5139910000000  0.5090910000000  0.5272600000000 1.0
C      1  0.4551100000000  0.5659470000000  0.4848200000000 1.0
C      1  0.4680290000000  0.4902220000000  0.4778070000000 1.0
C      1  0.4058150000000  0.4747850000000  0.4429490000000 1.0
C      1  0.4453450000000  0.4920210000000  0.5558230000000 1.0
C      1  0.5450420000000  0.5622410000000  0.4978790000000 1.0
C      1  0.5313910000000  0.4654350000000  0.4735200000000 1.0
C      1  0.5091500000000  0.5082680000000  0.4984920000000 1.0
C      1  0.4751860000000  0.4265190000000  0.5155230000000 1.0
C      1  0.5634800000000  0.5410320000000  0.4361960000000 1.0
C      1  0.5409840000000  0.4329370000000  0.5425900000000 1.0
C      1  0.5009490000000  0.5672610000000  0.4867300000000 1.0
C      1  0.5369070000000  0.4989690000000  0.4049870000000 1.0
C      1  0.5733520000000  0.4246820000000  0.4923810000000 1.0
C      1  0.5816130000000  0.4924320000000  0.4998610000000 1.0
C      1  0.4474540000000  0.5839240000000  0.5322830000000 1.0
C      1  0.4927950000000  0.5393040000000  0.4981560000000 1.0
C      1  0.4468180000000  0.4986240000000  0.4219320000000 1.0
C      1  0.4478760000000  0.4636700000000  0.5501060000000 1.0
C      1  0.4912520000000  0.5458030000000  0.5270880000000 1.0
C      1  0.4648680000000  0.4967130000000  0.5797520000000 1.0
C      1  0.4256640000000  0.4976940000000  0.5069390000000 1.0
C      1  0.5181110000000  0.5380360000000  0.5681050000000 1.0
C      1  0.5612970000000  0.4764680000000  0.5775130000000 1.0
C      1  0.4530110000000  0.4307740000000  0.4614880000000 1.0
C      1  0.4353560000000  0.4317580000000  0.4848640000000 1.0
C      1  0.4851710000000  0.4090850000000  0.4936780000000 1.0
C      1  0.4872000000000  0.4785440000000  0.5886610000000 1.0
C      1  0.5220760000000  0.5240880000000  0.4074010000000 1.0
C      1  0.4954990000000  0.5722640000000  0.5426170000000 1.0
C      1  0.5631740000000  0.5562760000000  0.4603720000000 1.0
C      1  0.4908250000000  0.4478350000000  0.5319010000000 1.0
C      1  0.4711230000000  0.5866140000000  0.5464820000000 1.0
C      1  0.4748410000000  0.5260840000000  0.5400160000000 1.0
C      1  0.4315410000000  0.5078620000000  0.5357890000000 1.0
C      1  0.5152450000000  0.4847300000000  0.5840130000000 1.0
C      1  0.4787870000000  0.4644730000000  0.4341120000000 1.0
C      1  0.5398270000000  0.5026440000000  0.5398570000000 1.0
C      1  0.5464020000000  0.4761300000000  0.5283950000000 1.0
C      1  0.5364940000000  0.5532990000000  0.5512970000000 1.0
C      1  0.4783870000000  0.4160660000000  0.4653390000000 1.0
C      1  0.4897520000000  0.4998360000000  0.5402960000000 1.0
END
