TITL C-883731-9874-437 11.4282392415106 125000 -27842.7188317769 0 0 184 (C1) n - 1
REM
REM in /home/nfs/bkarasulu/CARBON/AIRSS/Generating-Clusters/ReaxFF-fromJPCA2015/Units_Real/with-SteepDescent/Only-C1/SD-CG/Try1-3A/FIRE-CG
REM
REM
REM
REM
REM
REM ./C.cell (11c1c37f851c82e70ff6c80c92926a4b)
REM
REM compiler GCC version 9.2.1 20190827 (Red Hat 9.2.1-1)
REM options -cpp -mtune=generic -march=x86-64 -g -O0 -fpre-include=/usr/include/finclude/math-vector-fortran.h
REM seed 1694229959 157473570 114488352 -1072644047 710067768 -364002816 -1712898480 251797241 -1324238652 -1157221550 -1744170687 1130126569 154082781 809884027 -657050433 -1258186059 -576147760 -1248707707 1906196696 -1237186370 -256273361 -1324038691 678864279 727513876 1562994257 1224241803 -483558483 -1761859534 -1798597263 677259066 1828811401 -262176621 877520155
REM
CELL 1.54180   50.00000   50.00000   50.00000   90.00000   90.00000   90.00000
LATT -1
SFAC C  
C      1  0.5204230000000  0.4307140000000  0.4154740000000 1.0
C      1  0.4682120000000  0.5068290000000  0.5216440000000 1.0
C      1  0.4362040000000  0.4374930000000  0.5574650000000 1.0
C      1  0.3886710000000  0.4657760000000  0.5123620000000 1.0
C      1  0.4769150000000  0.5854850000000  0.4456840000000 1.0
C      1  0.5203990000000  0.5212500000000  0.4261750000000 1.0
C      1  0.5016480000000  0.5388460000000  0.3888250000000 1.0
C      1  0.4539490000000  0.4096630000000  0.4812130000000 1.0
C      1  0.4533690000000  0.4431590000000  0.5197420000000 1.0
C      1  0.4410750000000  0.4957560000000  0.5576370000000 1.0
C      1  0.5290070000000  0.5594000000000  0.4594900000000 1.0
C      1  0.5183880000000  0.5025630000000  0.6123800000000 1.0
C      1  0.5458780000000  0.5999010000000  0.4751360000000 1.0
C      1  0.5945790000000  0.4993550000000  0.5182960000000 1.0
C      1  0.5957200000000  0.4614300000000  0.4784240000000 1.0
C      1  0.4526820000000  0.4683890000000  0.4564860000000 1.0
C      1  0.4747890000000  0.4487190000000  0.5448510000000 1.0
C      1  0.5320560000000  0.4896350000000  0.5646360000000 1.0
C      1  0.4444290000000  0.4699710000000  0.5096260000000 1.0
C      1  0.4818990000000  0.5551620000000  0.4023540000000 1.0
C      1  0.5369130000000  0.4030590000000  0.5253970000000 1.0
C      1  0.5492620000000  0.5536260000000  0.4147260000000 1.0
C      1  0.5419380000000  0.4139400000000  0.4519100000000 1.0
C      1  0.4953270000000  0.5001740000000  0.5270690000000 1.0
C      1  0.5700850000000  0.4459870000000  0.4301030000000 1.0
C      1  0.3933960000000  0.4849540000000  0.5318600000000 1.0
C      1  0.4839210000000  0.5276290000000  0.5620990000000 1.0
C      1  0.4577630000000  0.5297400000000  0.6093600000000 1.0
C      1  0.5292380000000  0.5274000000000  0.6000240000000 1.0
C      1  0.5032410000000  0.4922190000000  0.5696660000000 1.0
C      1  0.4305200000000  0.4182420000000  0.4656120000000 1.0
C      1  0.5900620000000  0.4342480000000  0.4914530000000 1.0
C      1  0.5404470000000  0.5935200000000  0.5354230000000 1.0
C      1  0.4552950000000  0.4842650000000  0.5783740000000 1.0
C      1  0.5905150000000  0.4616060000000  0.4449380000000 1.0
C      1  0.4831650000000  0.4765290000000  0.4828480000000 1.0
C      1  0.5714810000000  0.5074910000000  0.5840580000000 1.0
C      1  0.5160390000000  0.4046660000000  0.5468630000000 1.0
C      1  0.4365230000000  0.5513820000000  0.4215760000000 1.0
C      1  0.4011370000000  0.4802990000000  0.4503300000000 1.0
C      1  0.5844430000000  0.4312140000000  0.5198340000000 1.0
C      1  0.5463280000000  0.5214130000000  0.5244400000000 1.0
C      1  0.5392080000000  0.4402520000000  0.5744110000000 1.0
C      1  0.5921650000000  0.5127070000000  0.4339690000000 1.0
C      1  0.5593480000000  0.4205450000000  0.5318510000000 1.0
C      1  0.5915170000000  0.4859930000000  0.4370350000000 1.0
C      1  0.5327250000000  0.5021490000000  0.3873240000000 1.0
C      1  0.4877490000000  0.4529160000000  0.5916900000000 1.0
C      1  0.4784730000000  0.5481940000000  0.5007660000000 1.0
C      1  0.4698420000000  0.5029230000000  0.4882090000000 1.0
C      1  0.3892190000000  0.5177850000000  0.4922920000000 1.0
C      1  0.5076660000000  0.5470250000000  0.4426050000000 1.0
C      1  0.5342530000000  0.5434060000000  0.4858550000000 1.0
C      1  0.4881160000000  0.5304100000000  0.4555570000000 1.0
C      1  0.4868980000000  0.5272150000000  0.4830070000000 1.0
C      1  0.5973550000000  0.4509190000000  0.5392120000000 1.0
C      1  0.6091190000000  0.4872560000000  0.4952840000000 1.0
C      1  0.4538470000000  0.4961800000000  0.4383140000000 1.0
C      1  0.5088320000000  0.3936370000000  0.4811040000000 1.0
C      1  0.5426840000000  0.5168190000000  0.4779110000000 1.0
C      1  0.4944610000000  0.4313450000000  0.4088550000000 1.0
C      1  0.5517870000000  0.4615630000000  0.5017780000000 1.0
C      1  0.4983080000000  0.4049350000000  0.4561290000000 1.0
C      1  0.4460180000000  0.4903230000000  0.5305800000000 1.0
C      1  0.4682150000000  0.5846740000000  0.5392050000000 1.0
C      1  0.5268000000000  0.5420860000000  0.5133170000000 1.0
C      1  0.5454520000000  0.4782480000000  0.3987150000000 1.0
C      1  0.4121550000000  0.4388180000000  0.4768580000000 1.0
C      1  0.5262010000000  0.4936460000000  0.4793000000000 1.0
C      1  0.4991470000000  0.5998800000000  0.4588040000000 1.0
C      1  0.4798250000000  0.5087220000000  0.4396700000000 1.0
C      1  0.4950380000000  0.5542420000000  0.5697020000000 1.0
C      1  0.4735840000000  0.4227900000000  0.4598790000000 1.0
C      1  0.4381200000000  0.4490670000000  0.4330530000000 1.0
C      1  0.5094990000000  0.4731440000000  0.4197200000000 1.0
C      1  0.3852580000000  0.4883390000000  0.4924210000000 1.0
C      1  0.5949510000000  0.5001380000000  0.5668050000000 1.0
C      1  0.5073070000000  0.4801330000000  0.4951640000000 1.0
C      1  0.5650620000000  0.5914080000000  0.5197560000000 1.0
C      1  0.4645200000000  0.5021980000000  0.6036870000000 1.0
C      1  0.5450230000000  0.4596600000000  0.5958650000000 1.0
C      1  0.5552850000000  0.4831630000000  0.5820070000000 1.0
C      1  0.4540910000000  0.4130980000000  0.5097470000000 1.0
C      1  0.4304160000000  0.5658270000000  0.4467420000000 1.0
C      1  0.4813690000000  0.4707560000000  0.5709660000000 1.0
C      1  0.5287470000000  0.4407670000000  0.4621840000000 1.0
C      1  0.4800900000000  0.4571430000000  0.4619000000000 1.0
C      1  0.5947590000000  0.5575890000000  0.4868540000000 1.0
C      1  0.5441510000000  0.4953860000000  0.5382230000000 1.0
C      1  0.4360800000000  0.5471840000000  0.5948370000000 1.0
C      1  0.5853060000000  0.5614900000000  0.5547200000000 1.0
C      1  0.4107730000000  0.5568760000000  0.4665020000000 1.0
C      1  0.4253520000000  0.4357010000000  0.5299500000000 1.0
C      1  0.4997470000000  0.5537720000000  0.5199930000000 1.0
C      1  0.4486650000000  0.4230470000000  0.4425810000000 1.0
C      1  0.5708770000000  0.5145220000000  0.5109230000000 1.0
C      1  0.5440720000000  0.5752420000000  0.5563630000000 1.0
C      1  0.5704340000000  0.4753690000000  0.4841260000000 1.0
C      1  0.4504070000000  0.5900860000000  0.5624070000000 1.0
C      1  0.4314140000000  0.4594810000000  0.5761900000000 1.0
C      1  0.6046390000000  0.5140200000000  0.5427820000000 1.0
C      1  0.4497890000000  0.4902720000000  0.4077380000000 1.0
C      1  0.4895690000000  0.4942330000000  0.6160790000000 1.0
C      1  0.4516890000000  0.5818590000000  0.4605930000000 1.0
C      1  0.4138820000000  0.5508520000000  0.5563760000000 1.0
C      1  0.4639860000000  0.5944010000000  0.5114420000000 1.0
C      1  0.5579650000000  0.5546530000000  0.4419410000000 1.0
C      1  0.4367960000000  0.4737270000000  0.4821240000000 1.0
C      1  0.5068820000000  0.4768340000000  0.5211610000000 1.0
C      1  0.5347820000000  0.3938100000000  0.4967980000000 1.0
C      1  0.5266740000000  0.4741530000000  0.6138060000000 1.0
C      1  0.4999760000000  0.4505800000000  0.5293090000000 1.0
C      1  0.4686030000000  0.4236750000000  0.5615040000000 1.0
C      1  0.4077100000000  0.4437360000000  0.5065450000000 1.0
C      1  0.5063690000000  0.4937680000000  0.3782700000000 1.0
C      1  0.4093280000000  0.4760190000000  0.5809310000000 1.0
C      1  0.5543470000000  0.5309470000000  0.5862380000000 1.0
C      1  0.4036760000000  0.5799900000000  0.5527480000000 1.0
C      1  0.4902140000000  0.6206920000000  0.4793510000000 1.0
C      1  0.4104960000000  0.4831650000000  0.4782270000000 1.0
C      1  0.4016580000000  0.5283590000000  0.5157670000000 1.0
C      1  0.5860270000000  0.5794540000000  0.5320650000000 1.0
C      1  0.5708200000000  0.4210670000000  0.4445780000000 1.0
C      1  0.4462210000000  0.5859420000000  0.4888030000000 1.0
C      1  0.4637340000000  0.5316330000000  0.5407080000000 1.0
C      1  0.4062830000000  0.5097420000000  0.4473860000000 1.0
C      1  0.4983950000000  0.4659340000000  0.6144490000000 1.0
C      1  0.5959060000000  0.5193680000000  0.4639340000000 1.0
C      1  0.4163160000000  0.5054290000000  0.5664290000000 1.0
C      1  0.4224960000000  0.6019000000000  0.5545830000000 1.0
C      1  0.5171350000000  0.6091070000000  0.5201730000000 1.0
C      1  0.4924020000000  0.5689360000000  0.5443280000000 1.0
C      1  0.4201220000000  0.5711720000000  0.4908010000000 1.0
C      1  0.4899330000000  0.5670550000000  0.4273270000000 1.0
C      1  0.5019970000000  0.5109700000000  0.5504330000000 1.0
C      1  0.4864330000000  0.4024380000000  0.5479520000000 1.0
C      1  0.5313550000000  0.4854810000000  0.4544170000000 1.0
C      1  0.5173640000000  0.4206050000000  0.5712590000000 1.0
C      1  0.5732600000000  0.5697200000000  0.4722840000000 1.0
C      1  0.4392580000000  0.5422460000000  0.5473510000000 1.0
C      1  0.6199360000000  0.5094020000000  0.4806860000000 1.0
C      1  0.3995450000000  0.5093630000000  0.5392770000000 1.0
C      1  0.4866380000000  0.5154450000000  0.3805080000000 1.0
C      1  0.4840820000000  0.5397390000000  0.6074820000000 1.0
C      1  0.4595750000000  0.5129880000000  0.3921910000000 1.0
C      1  0.5247960000000  0.5872830000000  0.4605960000000 1.0
C      1  0.4549160000000  0.5410250000000  0.4016950000000 1.0
C      1  0.4116320000000  0.4529970000000  0.4506280000000 1.0
C      1  0.4877590000000  0.6118710000000  0.5076500000000 1.0
C      1  0.4517220000000  0.4618240000000  0.4076850000000 1.0
C      1  0.5977270000000  0.4745610000000  0.5545770000000 1.0
C      1  0.5600490000000  0.5565870000000  0.5696230000000 1.0
C      1  0.4147820000000  0.5336960000000  0.5800400000000 1.0
C      1  0.4902450000000  0.4266180000000  0.5818340000000 1.0
C      1  0.3971770000000  0.5304800000000  0.4664220000000 1.0
C      1  0.5545800000000  0.3986240000000  0.4765090000000 1.0
C      1  0.4753620000000  0.3970340000000  0.5215390000000 1.0
C      1  0.5522860000000  0.4441590000000  0.5481570000000 1.0
C      1  0.4451320000000  0.5180480000000  0.4792660000000 1.0
C      1  0.5784110000000  0.4152470000000  0.4728240000000 1.0
C      1  0.5649270000000  0.5236760000000  0.4368980000000 1.0
C      1  0.4222150000000  0.5482890000000  0.5085820000000 1.0
C      1  0.5662560000000  0.5887910000000  0.4909660000000 1.0
C      1  0.6129930000000  0.5372980000000  0.4760840000000 1.0
C      1  0.6020110000000  0.5428230000000  0.5395410000000 1.0
C      1  0.4452420000000  0.5705250000000  0.5817940000000 1.0
C      1  0.5088200000000  0.4332430000000  0.5084300000000 1.0
C      1  0.4486090000000  0.5405090000000  0.4976430000000 1.0
C      1  0.5278910000000  0.6084030000000  0.4966000000000 1.0
C      1  0.5119650000000  0.4608580000000  0.4477500000000 1.0
C      1  0.5451520000000  0.4532890000000  0.4142260000000 1.0
C      1  0.5081490000000  0.5489100000000  0.5961630000000 1.0
C      1  0.4765670000000  0.4501800000000  0.3966770000000 1.0
C      1  0.5010970000000  0.5003220000000  0.4247950000000 1.0
C      1  0.5701780000000  0.5065650000000  0.4822280000000 1.0
C      1  0.5307800000000  0.4432900000000  0.4909040000000 1.0
C      1  0.5296050000000  0.5317820000000  0.3985640000000 1.0
C      1  0.5422470000000  0.5063220000000  0.4379080000000 1.0
C      1  0.5519010000000  0.4681240000000  0.5304910000000 1.0
C      1  0.6004450000000  0.5609620000000  0.5159920000000 1.0
C      1  0.4343270000000  0.5152190000000  0.4522730000000 1.0
C      1  0.4958370000000  0.4079130000000  0.5030140000000 1.0
C      1  0.5000600000000  0.4684020000000  0.3919080000000 1.0
C      1  0.5167730000000  0.4080830000000  0.4336480000000 1.0
END
