TITL C-883737-113-327 28.5836191043189 125000 -13378.2189531442 0 0 91 (C1) n - 1
REM
REM in /home/nfs/bkarasulu/CARBON/AIRSS/Generating-Clusters/ReaxFF-fromJPCA2015/Units_Real/with-SteepDescent/Only-C1/SD-CG/Try1-3A/FIRE-CG
REM
REM
REM
REM
REM
REM ./C.cell (11c1c37f851c82e70ff6c80c92926a4b)
REM
REM compiler GCC version 9.2.1 20190827 (Red Hat 9.2.1-1)
REM options -cpp -mtune=generic -march=x86-64 -g -O0 -fpre-include=/usr/include/finclude/math-vector-fortran.h
REM seed -382395573 -1376614930 195886514 -1028507919 -2075376937 724414547 -951312023 1652407296 -1519826033 -1118519958 -2062831091 1635628821 1490875778 -1288950638 -1499208500 -1168108667 -1608991556 -1892095371 103164219 781223564 2058710025 1591643057 228938738 -2008908445 -71704689 -2043525891 1355267431 1916772939 2077960911 -30019903 1396028917 758283719 1544567595
REM
CELL 1.54180   50.00000   50.00000   50.00000   90.00000   90.00000   90.00000
LATT -1
SFAC C  
C      1  0.4424170000000  0.4740450000000  0.4375850000000 1.0
C      1  0.4639230000000  0.4478760000000  0.5480950000000 1.0
C      1  0.4649860000000  0.5732360000000  0.4876650000000 1.0
C      1  0.5488250000000  0.5338380000000  0.4310480000000 1.0
C      1  0.4869650000000  0.5128020000000  0.5209270000000 1.0
C      1  0.5332390000000  0.5511970000000  0.5563060000000 1.0
C      1  0.4632700000000  0.5160110000000  0.5657460000000 1.0
C      1  0.5266460000000  0.4789360000000  0.4251270000000 1.0
C      1  0.4956680000000  0.4703700000000  0.5101670000000 1.0
C      1  0.5342330000000  0.5636400000000  0.5287080000000 1.0
C      1  0.4830720000000  0.5409130000000  0.5287570000000 1.0
C      1  0.5659710000000  0.4763960000000  0.5532330000000 1.0
C      1  0.4796280000000  0.4803530000000  0.4673150000000 1.0
C      1  0.5116860000000  0.5715540000000  0.4667080000000 1.0
C      1  0.4367640000000  0.5241400000000  0.4379540000000 1.0
C      1  0.5527140000000  0.4985420000000  0.5693890000000 1.0
C      1  0.4755320000000  0.5488710000000  0.4448990000000 1.0
C      1  0.5067080000000  0.4982190000000  0.5701090000000 1.0
C      1  0.4462500000000  0.4448320000000  0.5251340000000 1.0
C      1  0.5133320000000  0.4278950000000  0.5308460000000 1.0
C      1  0.4707590000000  0.4827630000000  0.4408980000000 1.0
C      1  0.4940820000000  0.4774440000000  0.5387560000000 1.0
C      1  0.4158610000000  0.4853160000000  0.4673600000000 1.0
C      1  0.4979590000000  0.5519770000000  0.5056380000000 1.0
C      1  0.5757830000000  0.5106570000000  0.4625340000000 1.0
C      1  0.4474350000000  0.5608310000000  0.5067010000000 1.0
C      1  0.5465890000000  0.5372450000000  0.4857580000000 1.0
C      1  0.4607960000000  0.4730000000000  0.5636100000000 1.0
C      1  0.5190070000000  0.5850430000000  0.5192290000000 1.0
C      1  0.4424510000000  0.4954560000000  0.5576570000000 1.0
C      1  0.4092020000000  0.5061870000000  0.4886360000000 1.0
C      1  0.5676550000000  0.4656630000000  0.4849490000000 1.0
C      1  0.5753510000000  0.5131400000000  0.5179170000000 1.0
C      1  0.5278450000000  0.4978070000000  0.5513770000000 1.0
C      1  0.5042260000000  0.5447120000000  0.4550490000000 1.0
C      1  0.5657610000000  0.4876100000000  0.5268300000000 1.0
C      1  0.4248170000000  0.4974010000000  0.4418410000000 1.0
C      1  0.5017700000000  0.5221560000000  0.4786960000000 1.0
C      1  0.4741700000000  0.4712760000000  0.4924510000000 1.0
C      1  0.5256520000000  0.5400320000000  0.5060540000000 1.0
C      1  0.5235780000000  0.4740500000000  0.5031820000000 1.0
C      1  0.5165910000000  0.4532310000000  0.4356980000000 1.0
C      1  0.5389960000000  0.5769220000000  0.4601770000000 1.0
C      1  0.4804790000000  0.5391000000000  0.5577580000000 1.0
C      1  0.5573480000000  0.5592440000000  0.4717700000000 1.0
C      1  0.5236690000000  0.4542420000000  0.4642560000000 1.0
C      1  0.4565620000000  0.5612370000000  0.4623220000000 1.0
C      1  0.5559110000000  0.5593160000000  0.4441960000000 1.0
C      1  0.5276780000000  0.4610820000000  0.5760810000000 1.0
C      1  0.4792780000000  0.4932580000000  0.5725960000000 1.0
C      1  0.5366610000000  0.4840880000000  0.5914190000000 1.0
C      1  0.5546070000000  0.4819410000000  0.4334730000000 1.0
C      1  0.4167030000000  0.5142370000000  0.5167620000000 1.0
C      1  0.5636390000000  0.4689430000000  0.4581040000000 1.0
C      1  0.4237760000000  0.4924900000000  0.5352220000000 1.0
C      1  0.4814430000000  0.5038530000000  0.4234700000000 1.0
C      1  0.4312190000000  0.4603720000000  0.4612920000000 1.0
C      1  0.5282970000000  0.4337410000000  0.4842700000000 1.0
C      1  0.4608280000000  0.5111250000000  0.5083730000000 1.0
C      1  0.4522940000000  0.4844210000000  0.5019720000000 1.0
C      1  0.4713570000000  0.4376960000000  0.4535830000000 1.0
C      1  0.5747920000000  0.4964200000000  0.4884560000000 1.0
C      1  0.4995680000000  0.4595940000000  0.5645570000000 1.0
C      1  0.4543680000000  0.4298630000000  0.5001280000000 1.0
C      1  0.4333920000000  0.4701090000000  0.5187450000000 1.0
C      1  0.4645290000000  0.5273930000000  0.4289120000000 1.0
C      1  0.4179250000000  0.5308470000000  0.4792670000000 1.0
C      1  0.5261220000000  0.4833980000000  0.4743880000000 1.0
C      1  0.5207650000000  0.5295760000000  0.4318310000000 1.0
C      1  0.5163530000000  0.5039440000000  0.5991320000000 1.0
C      1  0.5478380000000  0.4536980000000  0.5554420000000 1.0
C      1  0.5525470000000  0.5306020000000  0.5578170000000 1.0
C      1  0.5108170000000  0.5041370000000  0.4220390000000 1.0
C      1  0.5347160000000  0.4927060000000  0.5237780000000 1.0
C      1  0.4488300000000  0.4385650000000  0.4710300000000 1.0
C      1  0.5060420000000  0.5478610000000  0.5708990000000 1.0
C      1  0.5125060000000  0.5143590000000  0.5052550000000 1.0
C      1  0.5107600000000  0.5303370000000  0.5923390000000 1.0
C      1  0.5394710000000  0.4397990000000  0.5310850000000 1.0
C      1  0.4809210000000  0.4241990000000  0.5003570000000 1.0
C      1  0.5020660000000  0.4976400000000  0.4635510000000 1.0
C      1  0.4972660000000  0.5781490000000  0.4920580000000 1.0
C      1  0.4913820000000  0.4409300000000  0.4422020000000 1.0
C      1  0.4311630000000  0.5444470000000  0.4584290000000 1.0
C      1  0.5080740000000  0.4200130000000  0.5020730000000 1.0
C      1  0.5653350000000  0.5092930000000  0.4360240000000 1.0
C      1  0.4409370000000  0.5318150000000  0.5142910000000 1.0
C      1  0.5619690000000  0.5326930000000  0.5330330000000 1.0
C      1  0.4913600000000  0.4357330000000  0.5499210000000 1.0
C      1  0.5514380000000  0.5098150000000  0.4773690000000 1.0
C      1  0.5468360000000  0.4480950000000  0.5019550000000 1.0
END
