TITL C-884142-5251-27 -121952.092446186 125000 -15569.7640769543 0 0 104 (C1) n - 1
REM
REM in /home/nfs/bkarasulu/CARBON/AIRSS/Generating-Clusters/ReaxFF-fromJPCA2015/Units_Real/with-SteepDescent/Only-C1/SD-CG/Try1-3A/FIRE-CG
REM
REM
REM
REM
REM
REM ./C.cell (11c1c37f851c82e70ff6c80c92926a4b)
REM
REM compiler GCC version 9.2.1 20190827 (Red Hat 9.2.1-1)
REM options -cpp -mtune=generic -march=x86-64 -g -O0 -fpre-include=/usr/include/finclude/math-vector-fortran.h
REM seed -1314376627 -1824452444 1793605810 -1803531440 1820744317 -1152119750 1757602068 1427847787 -1332961956 -503354807 436095250 1744744322 -1015312607 1924398559 821988426 -1731851041 -850529876 -862072726 -1470159964 291124409 74636417 -467408924 1937701897 473252231 -903285637 -791955062 234852127 1494468794 142804899 978008268 -1679124919 1528973419 -167002301
REM
CELL 1.54180   50.00000   50.00000   50.00000   90.00000   90.00000   90.00000
LATT -1
SFAC C  
C      1  0.5555260000000  0.5722330000000  0.4777570000000 1.0
C      1  0.5867270000000  0.5039870000000  0.4915590000000 1.0
C      1  0.5522500000000  0.5132190000000  0.5755750000000 1.0
C      1  0.4905070000000  0.4279250000000  0.4848050000000 1.0
C      1  0.4251730000000  0.4768670000000  0.4391890000000 1.0
C      1  0.5293380000000  0.5124650000000  0.4866510000000 1.0
C      1  0.4336610000000  0.4196980000000  0.5217780000000 1.0
C      1  0.4595770000000  0.4032410000000  0.5187200000000 1.0
C      1  0.5171090000000  0.5145760000000  0.5460970000000 1.0
C      1  0.5796240000000  0.5558860000000  0.4712900000000 1.0
C      1  0.5757270000000  0.4556770000000  0.4959280000000 1.0
C      1  0.4900700000000  0.5815300000000  0.5422160000000 1.0
C      1  0.5278100000000  0.4785750000000  0.4437480000000 1.0
C      1  0.5772910000000  0.4840220000000  0.5279500000000 1.0
C      1  0.5658020000000  0.4677460000000  0.4565570000000 1.0
C      1  0.5425500000000  0.4152800000000  0.5001370000000 1.0
C      1  0.5078410000000  0.5509050000000  0.5024480000000 1.0
C      1  0.4905050000000  0.5088020000000  0.4175260000000 1.0
C      1  0.5571270000000  0.4444150000000  0.5426220000000 1.0
C      1  0.4697260000000  0.5246810000000  0.5316920000000 1.0
C      1  0.5376930000000  0.5505570000000  0.4668920000000 1.0
C      1  0.5493960000000  0.4851910000000  0.5817820000000 1.0
C      1  0.4578050000000  0.5108820000000  0.5722040000000 1.0
C      1  0.5119490000000  0.4744340000000  0.5171070000000 1.0
C      1  0.4709300000000  0.4621360000000  0.5744300000000 1.0
C      1  0.4263320000000  0.4411010000000  0.5038590000000 1.0
C      1  0.5368180000000  0.5742760000000  0.5266300000000 1.0
C      1  0.4767640000000  0.4828440000000  0.4189060000000 1.0
C      1  0.4679810000000  0.4346540000000  0.4402320000000 1.0
C      1  0.5465780000000  0.5394640000000  0.5663960000000 1.0
C      1  0.5095270000000  0.5186640000000  0.5756940000000 1.0
C      1  0.5209920000000  0.4679550000000  0.4163460000000 1.0
C      1  0.4075390000000  0.5007900000000  0.4462750000000 1.0
C      1  0.4243740000000  0.5239950000000  0.4534460000000 1.0
C      1  0.4762800000000  0.5403520000000  0.5069120000000 1.0
C      1  0.5643430000000  0.4834960000000  0.4985660000000 1.0
C      1  0.4834340000000  0.4103190000000  0.5331200000000 1.0
C      1  0.5293020000000  0.4839120000000  0.4938240000000 1.0
C      1  0.5217870000000  0.5581680000000  0.5691440000000 1.0
C      1  0.4940730000000  0.4461470000000  0.5685050000000 1.0
C      1  0.5745840000000  0.5374360000000  0.4499820000000 1.0
C      1  0.4514190000000  0.5619730000000  0.5551220000000 1.0
C      1  0.5007270000000  0.4965940000000  0.5930080000000 1.0
C      1  0.5518040000000  0.5291290000000  0.4823240000000 1.0
C      1  0.5125150000000  0.5795460000000  0.4925710000000 1.0
C      1  0.5370720000000  0.4307090000000  0.5255090000000 1.0
C      1  0.4474030000000  0.5170510000000  0.4349580000000 1.0
C      1  0.4394590000000  0.5019330000000  0.5516910000000 1.0
C      1  0.4547710000000  0.5780320000000  0.4780980000000 1.0
C      1  0.5133920000000  0.4707760000000  0.4691210000000 1.0
C      1  0.4250610000000  0.5343970000000  0.4822490000000 1.0
C      1  0.4713620000000  0.5235930000000  0.4825020000000 1.0
C      1  0.4519850000000  0.4833240000000  0.5318240000000 1.0
C      1  0.4640240000000  0.5807290000000  0.5353780000000 1.0
C      1  0.5402680000000  0.5850960000000  0.4992190000000 1.0
C      1  0.4335090000000  0.5616830000000  0.4890020000000 1.0
C      1  0.5623890000000  0.5189430000000  0.4329030000000 1.0
C      1  0.5937360000000  0.5048090000000  0.5184200000000 1.0
C      1  0.4788540000000  0.4967130000000  0.5278200000000 1.0
C      1  0.4264930000000  0.5520740000000  0.5455630000000 1.0
C      1  0.5121590000000  0.4369730000000  0.4659730000000 1.0
C      1  0.4953970000000  0.4362310000000  0.4380610000000 1.0
C      1  0.4827710000000  0.5392740000000  0.4597930000000 1.0
C      1  0.4486440000000  0.4606070000000  0.5545490000000 1.0
C      1  0.5133680000000  0.5716590000000  0.4429650000000 1.0
C      1  0.4232600000000  0.4635740000000  0.4889600000000 1.0
C      1  0.4971510000000  0.5447900000000  0.5761320000000 1.0
C      1  0.4760330000000  0.5704470000000  0.4602220000000 1.0
C      1  0.5042520000000  0.4921720000000  0.5359600000000 1.0
C      1  0.4842230000000  0.4064630000000  0.5037230000000 1.0
C      1  0.5013290000000  0.5845940000000  0.4652320000000 1.0
C      1  0.4256920000000  0.4566260000000  0.4600530000000 1.0
C      1  0.4402720000000  0.4378350000000  0.5421580000000 1.0
C      1  0.4493930000000  0.4888420000000  0.4269900000000 1.0
C      1  0.5338140000000  0.5555340000000  0.4340070000000 1.0
C      1  0.4829530000000  0.4741540000000  0.4748400000000 1.0
C      1  0.4268760000000  0.5152340000000  0.5037770000000 1.0
C      1  0.5173790000000  0.5799460000000  0.5490190000000 1.0
C      1  0.5650680000000  0.4435610000000  0.4711110000000 1.0
C      1  0.4574910000000  0.5676000000000  0.5070400000000 1.0
C      1  0.5400660000000  0.4265090000000  0.4731350000000 1.0
C      1  0.5206830000000  0.4540500000000  0.5788860000000 1.0
C      1  0.5553490000000  0.4890170000000  0.4425300000000 1.0
C      1  0.4943630000000  0.4346490000000  0.5428450000000 1.0
C      1  0.5397700000000  0.5315810000000  0.4190160000000 1.0
C      1  0.5462500000000  0.4591230000000  0.5656000000000 1.0
C      1  0.4396440000000  0.4887670000000  0.5004270000000 1.0
C      1  0.5124610000000  0.5353540000000  0.4774040000000 1.0
C      1  0.5793870000000  0.5329840000000  0.4912490000000 1.0
C      1  0.4701610000000  0.5372240000000  0.5628960000000 1.0
C      1  0.5782560000000  0.4542580000000  0.5253100000000 1.0
C      1  0.5233640000000  0.4781700000000  0.5953080000000 1.0
C      1  0.4735390000000  0.4893240000000  0.5846380000000 1.0
C      1  0.4700360000000  0.4481350000000  0.4799050000000 1.0
C      1  0.5179690000000  0.5158570000000  0.4055030000000 1.0
C      1  0.5247330000000  0.4897580000000  0.3985800000000 1.0
C      1  0.5284210000000  0.5463930000000  0.5234630000000 1.0
C      1  0.4486320000000  0.4384010000000  0.4601130000000 1.0
C      1  0.4655720000000  0.4953010000000  0.4832180000000 1.0
C      1  0.5122940000000  0.4465030000000  0.5251970000000 1.0
C      1  0.4929850000000  0.4575540000000  0.4178940000000 1.0
C      1  0.5402920000000  0.5279080000000  0.5399060000000 1.0
C      1  0.4743700000000  0.5272430000000  0.4330370000000 1.0
C      1  0.4352110000000  0.5242110000000  0.5315980000000 1.0
END
