TITL C-883738-3659-318 47.8379949701593 125000 -24601.3460493128 0 0 167 (C1) n - 1
REM
REM in /home/nfs/bkarasulu/CARBON/AIRSS/Generating-Clusters/ReaxFF-fromJPCA2015/Units_Real/with-SteepDescent/Only-C1/SD-CG/Try1-3A/FIRE-CG
REM
REM
REM
REM
REM
REM ./C.cell (11c1c37f851c82e70ff6c80c92926a4b)
REM
REM compiler GCC version 9.2.1 20190827 (Red Hat 9.2.1-1)
REM options -cpp -mtune=generic -march=x86-64 -g -O0 -fpre-include=/usr/include/finclude/math-vector-fortran.h
REM seed 671296346 257843284 567599436 -1174859439 742770520 1327587553 426179904 651795385 -1106434449 -1911594673 -1153227310 710861956 -1013154810 1121610529 -1232620701 1485699472 -1475716192 645603795 506103540 139850753 1155359895 1717986712 749916885 -588308335 -1198243501 1914943705 -1129271194 727275209 -670445436 -1903534658 -217853219 -1041717976 -1577175096
REM
CELL 1.54180   50.00000   50.00000   50.00000   90.00000   90.00000   90.00000
LATT -1
SFAC C  
C      1  0.5023370000000  0.5596070000000  0.5929460000000 1.0
C      1  0.5894810000000  0.4521000000000  0.4650100000000 1.0
C      1  0.4674920000000  0.4979620000000  0.4471930000000 1.0
C      1  0.4605350000000  0.5387830000000  0.4163570000000 1.0
C      1  0.6071200000000  0.4778100000000  0.5363180000000 1.0
C      1  0.5170060000000  0.6141760000000  0.5735540000000 1.0
C      1  0.5860120000000  0.5531830000000  0.5301970000000 1.0
C      1  0.5750820000000  0.4340800000000  0.4832690000000 1.0
C      1  0.5283790000000  0.4045740000000  0.4874860000000 1.0
C      1  0.4519630000000  0.5870560000000  0.5001420000000 1.0
C      1  0.5003830000000  0.3946620000000  0.4782910000000 1.0
C      1  0.5201650000000  0.5487620000000  0.4085630000000 1.0
C      1  0.5075170000000  0.5209780000000  0.5810470000000 1.0
C      1  0.4345210000000  0.5299980000000  0.4707200000000 1.0
C      1  0.5622410000000  0.5002050000000  0.4814550000000 1.0
C      1  0.4724360000000  0.5260800000000  0.4401020000000 1.0
C      1  0.5391950000000  0.4846190000000  0.5594350000000 1.0
C      1  0.5113690000000  0.4773840000000  0.5719160000000 1.0
C      1  0.5335620000000  0.4269330000000  0.5664240000000 1.0
C      1  0.5497230000000  0.4715770000000  0.4916930000000 1.0
C      1  0.5011090000000  0.5747170000000  0.5052570000000 1.0
C      1  0.5138340000000  0.4973270000000  0.4593520000000 1.0
C      1  0.4423230000000  0.4687850000000  0.5568070000000 1.0
C      1  0.4419120000000  0.4625490000000  0.4272690000000 1.0
C      1  0.5537760000000  0.5469300000000  0.5797130000000 1.0
C      1  0.5239800000000  0.5176150000000  0.5026840000000 1.0
C      1  0.5742230000000  0.5942550000000  0.4933250000000 1.0
C      1  0.4143820000000  0.4459630000000  0.5259520000000 1.0
C      1  0.5939480000000  0.4836140000000  0.4573620000000 1.0
C      1  0.4339120000000  0.5465450000000  0.4249650000000 1.0
C      1  0.4194400000000  0.5082960000000  0.4548000000000 1.0
C      1  0.4341290000000  0.5351420000000  0.5580230000000 1.0
C      1  0.4024690000000  0.4700700000000  0.5371530000000 1.0
C      1  0.5509480000000  0.4156430000000  0.4721700000000 1.0
C      1  0.5693270000000  0.5190130000000  0.5018830000000 1.0
C      1  0.5702250000000  0.5971880000000  0.4653190000000 1.0
C      1  0.4743500000000  0.5607830000000  0.5018300000000 1.0
C      1  0.4141390000000  0.5116720000000  0.5624390000000 1.0
C      1  0.4795450000000  0.5925490000000  0.5424170000000 1.0
C      1  0.5844050000000  0.5690660000000  0.4902210000000 1.0
C      1  0.6056890000000  0.5080690000000  0.5294720000000 1.0
C      1  0.4397340000000  0.4678020000000  0.4787570000000 1.0
C      1  0.5268720000000  0.5307660000000  0.4771540000000 1.0
C      1  0.5268800000000  0.6084530000000  0.5211790000000 1.0
C      1  0.5480220000000  0.5662840000000  0.5595010000000 1.0
C      1  0.4425920000000  0.4800270000000  0.4029340000000 1.0
C      1  0.5095240000000  0.4307570000000  0.6095560000000 1.0
C      1  0.5062710000000  0.5256920000000  0.3969720000000 1.0
C      1  0.5464290000000  0.5174730000000  0.5209760000000 1.0
C      1  0.5031840000000  0.4703480000000  0.5016430000000 1.0
C      1  0.4418360000000  0.4826330000000  0.4508570000000 1.0
C      1  0.4728310000000  0.4928550000000  0.5266580000000 1.0
C      1  0.5428300000000  0.4346570000000  0.4049060000000 1.0
C      1  0.4282190000000  0.5005120000000  0.4134920000000 1.0
C      1  0.3855210000000  0.4912790000000  0.5253710000000 1.0
C      1  0.4899550000000  0.3774010000000  0.4995330000000 1.0
C      1  0.4758610000000  0.4053330000000  0.4635010000000 1.0
C      1  0.4123940000000  0.4518150000000  0.4790710000000 1.0
C      1  0.4545540000000  0.5834540000000  0.4522050000000 1.0
C      1  0.5507220000000  0.4783220000000  0.4248250000000 1.0
C      1  0.5700730000000  0.5218040000000  0.5657930000000 1.0
C      1  0.5282040000000  0.4392550000000  0.5939640000000 1.0
C      1  0.5191160000000  0.5538460000000  0.4608300000000 1.0
C      1  0.5373370000000  0.5667970000000  0.4410970000000 1.0
C      1  0.5291890000000  0.5716580000000  0.5025640000000 1.0
C      1  0.4807210000000  0.4153010000000  0.5322030000000 1.0
C      1  0.5159640000000  0.4778940000000  0.3828120000000 1.0
C      1  0.3907330000000  0.5623790000000  0.5121820000000 1.0
C      1  0.4690120000000  0.5465610000000  0.5281480000000 1.0
C      1  0.4391520000000  0.4918630000000  0.4959160000000 1.0
C      1  0.4633370000000  0.4453540000000  0.4863350000000 1.0
C      1  0.4735220000000  0.5541810000000  0.5880420000000 1.0
C      1  0.5635580000000  0.4722510000000  0.5776900000000 1.0
C      1  0.4145840000000  0.5668090000000  0.5033970000000 1.0
C      1  0.5078680000000  0.4965950000000  0.4905860000000 1.0
C      1  0.4353880000000  0.4536640000000  0.5836820000000 1.0
C      1  0.5499850000000  0.5024940000000  0.4078240000000 1.0
C      1  0.5818760000000  0.4957340000000  0.5790570000000 1.0
C      1  0.5453080000000  0.5441380000000  0.4232250000000 1.0
C      1  0.5894470000000  0.4540950000000  0.5339860000000 1.0
C      1  0.5773050000000  0.4476480000000  0.4422780000000 1.0
C      1  0.5084620000000  0.5355200000000  0.5552370000000 1.0
C      1  0.5507060000000  0.5895670000000  0.5155070000000 1.0
C      1  0.4924090000000  0.4867570000000  0.4453290000000 1.0
C      1  0.5229290000000  0.4409760000000  0.5438490000000 1.0
C      1  0.4508160000000  0.5578880000000  0.5670490000000 1.0
C      1  0.3941260000000  0.4719250000000  0.4743090000000 1.0
C      1  0.5114710000000  0.4179050000000  0.5325430000000 1.0
C      1  0.4918280000000  0.5300820000000  0.5323380000000 1.0
C      1  0.6109090000000  0.5100300000000  0.5014160000000 1.0
C      1  0.4974770000000  0.4969010000000  0.5870370000000 1.0
C      1  0.5255470000000  0.5051390000000  0.3916480000000 1.0
C      1  0.4531730000000  0.5800150000000  0.5464190000000 1.0
C      1  0.5234410000000  0.5208130000000  0.6056520000000 1.0
C      1  0.4706620000000  0.3886910000000  0.5202010000000 1.0
C      1  0.4318820000000  0.5671420000000  0.4479310000000 1.0
C      1  0.5727250000000  0.5043960000000  0.4542180000000 1.0
C      1  0.5595050000000  0.4178230000000  0.5263030000000 1.0
C      1  0.4174210000000  0.5220990000000  0.4270600000000 1.0
C      1  0.4859500000000  0.4665030000000  0.5246500000000 1.0
C      1  0.5643220000000  0.4521510000000  0.4177830000000 1.0
C      1  0.4921920000000  0.5891740000000  0.4365910000000 1.0
C      1  0.4443330000000  0.5310810000000  0.5326150000000 1.0
C      1  0.5645180000000  0.5719570000000  0.5365390000000 1.0
C      1  0.5421310000000  0.4687300000000  0.5989100000000 1.0
C      1  0.4697360000000  0.4918920000000  0.3939850000000 1.0
C      1  0.4827770000000  0.6120830000000  0.4876510000000 1.0
C      1  0.4622760000000  0.5261250000000  0.5932090000000 1.0
C      1  0.5487570000000  0.5092860000000  0.5484130000000 1.0
C      1  0.5000330000000  0.5867780000000  0.5619800000000 1.0
C      1  0.5312350000000  0.5487600000000  0.5980200000000 1.0
C      1  0.5048200000000  0.5744240000000  0.4164590000000 1.0
C      1  0.5557230000000  0.5855310000000  0.4512960000000 1.0
C      1  0.3929090000000  0.4989780000000  0.4690650000000 1.0
C      1  0.4556770000000  0.6140390000000  0.4928630000000 1.0
C      1  0.4739220000000  0.4157850000000  0.4360170000000 1.0
C      1  0.5763870000000  0.4487950000000  0.5588260000000 1.0
C      1  0.4165790000000  0.5086640000000  0.4994460000000 1.0
C      1  0.5385220000000  0.4160020000000  0.4481420000000 1.0
C      1  0.5381820000000  0.4581460000000  0.4689760000000 1.0
C      1  0.5348180000000  0.4793090000000  0.4491560000000 1.0
C      1  0.5332260000000  0.4085160000000  0.5158000000000 1.0
C      1  0.4344500000000  0.5068910000000  0.5196710000000 1.0
C      1  0.4674070000000  0.4432150000000  0.5167110000000 1.0
C      1  0.5259540000000  0.4165800000000  0.4234520000000 1.0
C      1  0.3887100000000  0.5118160000000  0.5471530000000 1.0
C      1  0.5603620000000  0.4250300000000  0.5551440000000 1.0
C      1  0.4671370000000  0.4862680000000  0.5564800000000 1.0
C      1  0.4768650000000  0.5202740000000  0.3996200000000 1.0
C      1  0.4174670000000  0.4821470000000  0.5595130000000 1.0
C      1  0.4870700000000  0.4496740000000  0.4167070000000 1.0
C      1  0.4922440000000  0.4601550000000  0.4439650000000 1.0
C      1  0.4438960000000  0.4449600000000  0.5353890000000 1.0
C      1  0.5147630000000  0.4498160000000  0.4849130000000 1.0
C      1  0.5292660000000  0.4551040000000  0.3930210000000 1.0
C      1  0.4704270000000  0.5336580000000  0.4896130000000 1.0
C      1  0.4697370000000  0.4995380000000  0.5842020000000 1.0
C      1  0.5349890000000  0.4933920000000  0.6117420000000 1.0
C      1  0.4767020000000  0.5990750000000  0.4583770000000 1.0
C      1  0.5889980000000  0.5435530000000  0.5009450000000 1.0
C      1  0.6011050000000  0.4831150000000  0.5630080000000 1.0
C      1  0.4969390000000  0.4205140000000  0.4194620000000 1.0
C      1  0.4109510000000  0.4322860000000  0.5010460000000 1.0
C      1  0.4457370000000  0.3945640000000  0.5089100000000 1.0
C      1  0.4894260000000  0.4482710000000  0.4701420000000 1.0
C      1  0.4584340000000  0.4230210000000  0.5515170000000 1.0
C      1  0.4838930000000  0.5132810000000  0.5089950000000 1.0
C      1  0.4900730000000  0.4684930000000  0.5547170000000 1.0
C      1  0.5177310000000  0.5636200000000  0.5548480000000 1.0
C      1  0.4964650000000  0.6018040000000  0.5153010000000 1.0
C      1  0.5913710000000  0.5288750000000  0.5445280000000 1.0
C      1  0.4354760000000  0.5817930000000  0.5230510000000 1.0
C      1  0.5255670000000  0.6159630000000  0.5479210000000 1.0
C      1  0.4222320000000  0.5561310000000  0.4738470000000 1.0
C      1  0.4619030000000  0.5336490000000  0.4644510000000 1.0
C      1  0.5371060000000  0.4640410000000  0.5392400000000 1.0
C      1  0.6064960000000  0.4974290000000  0.4781390000000 1.0
C      1  0.5414380000000  0.4622680000000  0.5157010000000 1.0
C      1  0.5593390000000  0.5194190000000  0.4294150000000 1.0
C      1  0.4524560000000  0.4293010000000  0.5799790000000 1.0
C      1  0.4590450000000  0.4392520000000  0.4243140000000 1.0
C      1  0.4892490000000  0.4713830000000  0.3923470000000 1.0
C      1  0.5783100000000  0.4343870000000  0.5117740000000 1.0
C      1  0.4530620000000  0.4182010000000  0.4765780000000 1.0
C      1  0.4291630000000  0.4094690000000  0.4926220000000 1.0
C      1  0.3889570000000  0.5035070000000  0.4983420000000 1.0
C      1  0.5366210000000  0.5559390000000  0.4815150000000 1.0
END
