TITL C-884134-5972-453 23.0258470182138 125000 -19246.9293403752 0 0 131 (C1) n - 1
REM
REM in /home/nfs/bkarasulu/CARBON/AIRSS/Generating-Clusters/ReaxFF-fromJPCA2015/Units_Real/with-SteepDescent/Only-C1/SD-CG/Try1-3A/FIRE-CG
REM
REM
REM
REM
REM
REM ./C.cell (11c1c37f851c82e70ff6c80c92926a4b)
REM
REM compiler GCC version 9.2.1 20190827 (Red Hat 9.2.1-1)
REM options -cpp -mtune=generic -march=x86-64 -g -O0 -fpre-include=/usr/include/finclude/math-vector-fortran.h
REM seed 219165654 1940053263 709394361 -1590599129 -1809172270 -1996404940 -427019768 76318525 -1354662325 -206866144 -27420140 -1289335357 895403654 1971306116 -2007411835 -1487034216 1152557817 829649138 -2094452167 1265179516 -324954086 42846153 1158791001 -295344170 1989432666 1203249773 1398518559 1165837369 -99211805 1655987346 -1038148849 1369666971 -262182104
REM
CELL 1.54180   50.00000   50.00000   50.00000   90.00000   90.00000   90.00000
LATT -1
SFAC C  
C      1  0.5774590000000  0.4529650000000  0.4503650000000 1.0
C      1  0.4848630000000  0.4637680000000  0.4688620000000 1.0
C      1  0.5885960000000  0.4728830000000  0.5016590000000 1.0
C      1  0.5439390000000  0.4810550000000  0.4147280000000 1.0
C      1  0.5337730000000  0.5389500000000  0.4120030000000 1.0
C      1  0.5140000000000  0.4348760000000  0.5058750000000 1.0
C      1  0.5507810000000  0.4173450000000  0.4651150000000 1.0
C      1  0.4764470000000  0.4176870000000  0.5233540000000 1.0
C      1  0.4669600000000  0.4147030000000  0.5745730000000 1.0
C      1  0.4765790000000  0.4133900000000  0.4574290000000 1.0
C      1  0.5688350000000  0.4917690000000  0.4924050000000 1.0
C      1  0.5306430000000  0.5164440000000  0.4459150000000 1.0
C      1  0.5917180000000  0.5341220000000  0.5264340000000 1.0
C      1  0.4737430000000  0.5610190000000  0.5663920000000 1.0
C      1  0.4903620000000  0.5396120000000  0.4723820000000 1.0
C      1  0.4741040000000  0.4806140000000  0.5087530000000 1.0
C      1  0.5460340000000  0.5090860000000  0.5299630000000 1.0
C      1  0.4195430000000  0.5050710000000  0.4455710000000 1.0
C      1  0.5307210000000  0.5736170000000  0.4354220000000 1.0
C      1  0.4523190000000  0.4184460000000  0.5043530000000 1.0
C      1  0.5263330000000  0.5199140000000  0.5966150000000 1.0
C      1  0.5302280000000  0.6028670000000  0.5337370000000 1.0
C      1  0.4623600000000  0.5890300000000  0.4938720000000 1.0
C      1  0.5328780000000  0.5203560000000  0.5490720000000 1.0
C      1  0.4078180000000  0.5093630000000  0.4706960000000 1.0
C      1  0.4607470000000  0.5374570000000  0.4739160000000 1.0
C      1  0.5472640000000  0.5476170000000  0.5019300000000 1.0
C      1  0.5633360000000  0.4313500000000  0.4880250000000 1.0
C      1  0.5731840000000  0.5215900000000  0.5608360000000 1.0
C      1  0.4871690000000  0.4071640000000  0.5560350000000 1.0
C      1  0.4321740000000  0.4703210000000  0.5429030000000 1.0
C      1  0.4986090000000  0.4491870000000  0.4883010000000 1.0
C      1  0.5667750000000  0.5496920000000  0.4538550000000 1.0
C      1  0.5330520000000  0.5099570000000  0.4177250000000 1.0
C      1  0.4312090000000  0.5567790000000  0.5354700000000 1.0
C      1  0.4924310000000  0.5953410000000  0.5219090000000 1.0
C      1  0.4539400000000  0.4217530000000  0.4752740000000 1.0
C      1  0.4142260000000  0.4367840000000  0.4789760000000 1.0
C      1  0.4823260000000  0.4675400000000  0.5869950000000 1.0
C      1  0.4666260000000  0.5887180000000  0.5234970000000 1.0
C      1  0.4471110000000  0.4599550000000  0.4244670000000 1.0
C      1  0.5471560000000  0.4955670000000  0.4510810000000 1.0
C      1  0.5102300000000  0.5899710000000  0.4797860000000 1.0
C      1  0.4183520000000  0.4544290000000  0.5226590000000 1.0
C      1  0.5022510000000  0.5657740000000  0.5622310000000 1.0
C      1  0.5286000000000  0.5658990000000  0.5762890000000 1.0
C      1  0.5817400000000  0.4519110000000  0.4807220000000 1.0
C      1  0.4826500000000  0.5875710000000  0.4719350000000 1.0
C      1  0.5525450000000  0.5553580000000  0.4283880000000 1.0
C      1  0.4403020000000  0.4985340000000  0.5396180000000 1.0
C      1  0.4790260000000  0.5256580000000  0.5173250000000 1.0
C      1  0.5402760000000  0.4253660000000  0.5606430000000 1.0
C      1  0.5974040000000  0.5346160000000  0.4763850000000 1.0
C      1  0.5113820000000  0.4673990000000  0.5864060000000 1.0
C      1  0.4376630000000  0.4442110000000  0.4621590000000 1.0
C      1  0.4384630000000  0.5745250000000  0.4855570000000 1.0
C      1  0.4667740000000  0.4904330000000  0.5942010000000 1.0
C      1  0.5259060000000  0.4801590000000  0.4861570000000 1.0
C      1  0.4654170000000  0.4472860000000  0.5710550000000 1.0
C      1  0.5384040000000  0.4819880000000  0.5318140000000 1.0
C      1  0.4992480000000  0.5302190000000  0.5999900000000 1.0
C      1  0.4645860000000  0.5329660000000  0.4200000000000 1.0
C      1  0.4818510000000  0.5326210000000  0.5758680000000 1.0
C      1  0.4548530000000  0.4719520000000  0.4674050000000 1.0
C      1  0.5008760000000  0.4084470000000  0.4732460000000 1.0
C      1  0.5058100000000  0.4892310000000  0.5376240000000 1.0
C      1  0.5131660000000  0.4175920000000  0.5656970000000 1.0
C      1  0.4726830000000  0.4481710000000  0.4150370000000 1.0
C      1  0.5444540000000  0.5182180000000  0.5028790000000 1.0
C      1  0.5442280000000  0.4714300000000  0.5050640000000 1.0
C      1  0.4822630000000  0.5552700000000  0.4273820000000 1.0
C      1  0.4754580000000  0.4307790000000  0.4351610000000 1.0
C      1  0.5225910000000  0.4185140000000  0.4567690000000 1.0
C      1  0.4950080000000  0.5015450000000  0.5113440000000 1.0
C      1  0.5449370000000  0.5415660000000  0.5828080000000 1.0
C      1  0.5115380000000  0.5209190000000  0.4663430000000 1.0
C      1  0.5843420000000  0.5262560000000  0.4590690000000 1.0
C      1  0.4391080000000  0.4635170000000  0.5697870000000 1.0
C      1  0.5708180000000  0.5005440000000  0.4645980000000 1.0
C      1  0.5157510000000  0.5572380000000  0.5139990000000 1.0
C      1  0.4608570000000  0.4989890000000  0.4497670000000 1.0
C      1  0.5225010000000  0.4448560000000  0.5677660000000 1.0
C      1  0.4911660000000  0.4896520000000  0.3993650000000 1.0
C      1  0.4341890000000  0.5127050000000  0.5636010000000 1.0
C      1  0.5880530000000  0.5084960000000  0.5410660000000 1.0
C      1  0.5624200000000  0.4671430000000  0.5439780000000 1.0
C      1  0.4864720000000  0.5143080000000  0.4125200000000 1.0
C      1  0.5040500000000  0.5189900000000  0.5512830000000 1.0
C      1  0.4454220000000  0.5196110000000  0.4383120000000 1.0
C      1  0.4715410000000  0.5734890000000  0.4484430000000 1.0
C      1  0.5189560000000  0.5068410000000  0.4908460000000 1.0
C      1  0.4485850000000  0.5611650000000  0.4614880000000 1.0
C      1  0.5540800000000  0.4396420000000  0.5408230000000 1.0
C      1  0.4839030000000  0.4690240000000  0.5322540000000 1.0
C      1  0.5137730000000  0.5887530000000  0.5097460000000 1.0
C      1  0.5455110000000  0.4393760000000  0.5111860000000 1.0
C      1  0.4987890000000  0.4102890000000  0.5027950000000 1.0
C      1  0.5594640000000  0.4314150000000  0.4404760000000 1.0
C      1  0.4561680000000  0.5690680000000  0.5448650000000 1.0
C      1  0.5682580000000  0.4712090000000  0.4286460000000 1.0
C      1  0.5247310000000  0.4580510000000  0.4149680000000 1.0
C      1  0.4292420000000  0.5556370000000  0.5058700000000 1.0
C      1  0.4436500000000  0.5318740000000  0.4970410000000 1.0
C      1  0.4227320000000  0.4736500000000  0.5041450000000 1.0
C      1  0.5227350000000  0.4927560000000  0.5912400000000 1.0
C      1  0.5316970000000  0.5782070000000  0.4648080000000 1.0
C      1  0.5292860000000  0.4750980000000  0.4587690000000 1.0
C      1  0.5017810000000  0.4768780000000  0.4491450000000 1.0
C      1  0.5527360000000  0.5334750000000  0.5593360000000 1.0
C      1  0.5312120000000  0.4348020000000  0.4320440000000 1.0
C      1  0.5998060000000  0.5439680000000  0.5006490000000 1.0
C      1  0.4032830000000  0.4889770000000  0.5065560000000 1.0
C      1  0.4258750000000  0.4298030000000  0.5068230000000 1.0
C      1  0.4493520000000  0.4789750000000  0.4950740000000 1.0
C      1  0.4911700000000  0.5462060000000  0.5007090000000 1.0
C      1  0.5529000000000  0.5620140000000  0.4764290000000 1.0
C      1  0.5112670000000  0.5572380000000  0.4202360000000 1.0
C      1  0.4400960000000  0.4900310000000  0.5813710000000 1.0
C      1  0.4035010000000  0.5257430000000  0.5241130000000 1.0
C      1  0.4870370000000  0.4999390000000  0.4397130000000 1.0
C      1  0.4265440000000  0.4748380000000  0.4362020000000 1.0
C      1  0.4752960000000  0.5170760000000  0.5985340000000 1.0
C      1  0.4170850000000  0.5330290000000  0.5478340000000 1.0
C      1  0.5847840000000  0.4798890000000  0.5307680000000 1.0
C      1  0.5051570000000  0.5470930000000  0.5396140000000 1.0
C      1  0.5746150000000  0.5531290000000  0.5111900000000 1.0
C      1  0.4754810000000  0.4428340000000  0.5407440000000 1.0
C      1  0.4527710000000  0.5147070000000  0.5180190000000 1.0
C      1  0.5370830000000  0.5885140000000  0.5583970000000 1.0
C      1  0.3954890000000  0.5137410000000  0.4974470000000 1.0
C      1  0.4981230000000  0.4629920000000  0.4028390000000 1.0
END
