TITL C-883732-77-269 -6.70648862803069 125000 -8099.61636054261 0 0 55 (C1) n - 1
REM
REM in /home/nfs/bkarasulu/CARBON/AIRSS/Generating-Clusters/ReaxFF-fromJPCA2015/Units_Real/with-SteepDescent/Only-C1/SD-CG/Try1-3A/FIRE-CG
REM
REM
REM
REM
REM
REM ./C.cell (11c1c37f851c82e70ff6c80c92926a4b)
REM
REM compiler GCC version 9.2.1 20190827 (Red Hat 9.2.1-1)
REM options -cpp -mtune=generic -march=x86-64 -g -O0 -fpre-include=/usr/include/finclude/math-vector-fortran.h
REM seed -1239382502 -9668692 745026062 1098200339 825562865 965242039 66194834 -774970632 1100337282 1128334659 1554629067 1764676322 -1266476815 156814137 1179137851 -1564986182 -2119772204 407538345 341052455 -2092291798 163422203 -2003637540 -1651214618 -759982210 -2010966390 1113551925 1815495838 738518539 -1288683537 933370868 956724876 -1029027962 -170071305
REM
CELL 1.54180   50.00000   50.00000   50.00000   90.00000   90.00000   90.00000
LATT -1
SFAC C  
C      1  0.4906050000000  0.4390430000000  0.4810960000000 1.0
C      1  0.5252390000000  0.5244300000000  0.5500870000000 1.0
C      1  0.5588560000000  0.5352000000000  0.4757210000000 1.0
C      1  0.5218360000000  0.5450230000000  0.5107310000000 1.0
C      1  0.4907800000000  0.4843950000000  0.4274670000000 1.0
C      1  0.4209390000000  0.5047870000000  0.4448850000000 1.0
C      1  0.4668180000000  0.5568310000000  0.4606570000000 1.0
C      1  0.5330450000000  0.4605910000000  0.4518030000000 1.0
C      1  0.4751110000000  0.4961290000000  0.4496590000000 1.0
C      1  0.5702190000000  0.4699110000000  0.5239300000000 1.0
C      1  0.5193200000000  0.4417090000000  0.4724530000000 1.0
C      1  0.5384190000000  0.4806630000000  0.5502510000000 1.0
C      1  0.4816210000000  0.4373720000000  0.5090110000000 1.0
C      1  0.4762860000000  0.5224310000000  0.5541990000000 1.0
C      1  0.5105560000000  0.4825130000000  0.5603560000000 1.0
C      1  0.5003670000000  0.5253700000000  0.5043880000000 1.0
C      1  0.4426960000000  0.5500980000000  0.4754280000000 1.0
C      1  0.5068870000000  0.5700890000000  0.5061220000000 1.0
C      1  0.4557020000000  0.5049260000000  0.5160520000000 1.0
C      1  0.5207900000000  0.5514470000000  0.5401380000000 1.0
C      1  0.4561960000000  0.5493240000000  0.5155820000000 1.0
C      1  0.4999480000000  0.4428890000000  0.5311550000000 1.0
C      1  0.4307310000000  0.4865920000000  0.4812210000000 1.0
C      1  0.5194440000000  0.4834830000000  0.4382430000000 1.0
C      1  0.4304520000000  0.5077140000000  0.5017880000000 1.0
C      1  0.4633340000000  0.4721020000000  0.5522220000000 1.0
C      1  0.5316890000000  0.4983480000000  0.5053040000000 1.0
C      1  0.4326690000000  0.5373970000000  0.5013290000000 1.0
C      1  0.5690580000000  0.4956470000000  0.4728560000000 1.0
C      1  0.4915550000000  0.4626520000000  0.5515270000000 1.0
C      1  0.4533840000000  0.4467570000000  0.5108340000000 1.0
C      1  0.5437130000000  0.5110490000000  0.4774350000000 1.0
C      1  0.5083220000000  0.5312400000000  0.4512430000000 1.0
C      1  0.4421440000000  0.4952960000000  0.4540990000000 1.0
C      1  0.5040620000000  0.4977550000000  0.4971930000000 1.0
C      1  0.5411350000000  0.5555620000000  0.4766720000000 1.0
C      1  0.4726730000000  0.4609900000000  0.4724840000000 1.0
C      1  0.4952920000000  0.5658970000000  0.5342770000000 1.0
C      1  0.5288810000000  0.4389670000000  0.5249950000000 1.0
C      1  0.4875950000000  0.4863950000000  0.4743000000000 1.0
C      1  0.4963430000000  0.5551880000000  0.4573910000000 1.0
C      1  0.5548480000000  0.4749170000000  0.4609590000000 1.0
C      1  0.5393770000000  0.5045890000000  0.5327580000000 1.0
C      1  0.5239280000000  0.5098090000000  0.4503720000000 1.0
C      1  0.5151930000000  0.5685560000000  0.4776410000000 1.0
C      1  0.4724250000000  0.5272240000000  0.5047340000000 1.0
C      1  0.4723400000000  0.5487900000000  0.5404660000000 1.0
C      1  0.5024060000000  0.5108410000000  0.5617220000000 1.0
C      1  0.4440630000000  0.4538110000000  0.5385670000000 1.0
C      1  0.5828780000000  0.4846690000000  0.5014440000000 1.0
C      1  0.4467640000000  0.4626410000000  0.4868400000000 1.0
C      1  0.4593360000000  0.5008230000000  0.5451810000000 1.0
C      1  0.6025160000000  0.4930670000000  0.5163190000000 1.0
C      1  0.5285570000000  0.4396440000000  0.4978370000000 1.0
C      1  0.5506540000000  0.4564180000000  0.5385750000000 1.0
END
