TITL C-884132-5695-118 6.21543901021694 125000 -13628.8200153718 0 0 92 (C1) n - 1
REM
REM in /home/nfs/bkarasulu/CARBON/AIRSS/Generating-Clusters/ReaxFF-fromJPCA2015/Units_Real/with-SteepDescent/Only-C1/SD-CG/Try1-3A/FIRE-CG
REM
REM
REM
REM
REM
REM ./C.cell (11c1c37f851c82e70ff6c80c92926a4b)
REM
REM compiler GCC version 9.2.1 20190827 (Red Hat 9.2.1-1)
REM options -cpp -mtune=generic -march=x86-64 -g -O0 -fpre-include=/usr/include/finclude/math-vector-fortran.h
REM seed -350758065 -163990359 -974389008 90718594 -1911185117 -1152468640 1869422237 1569937001 -2043709051 1199618484 640441520 -1084841755 -1875461104 -127843597 -1399749797 -1087273912 1471782305 -691365284 -904793611 1481731173 1480623252 1356413014 1390066267 -212800504 1437452612 65040031 -825413660 1435575177 820901704 -1393976607 207036510 -145577370 -1037608314
REM
CELL 1.54180   50.00000   50.00000   50.00000   90.00000   90.00000   90.00000
LATT -1
SFAC C  
C      1  0.4400790000000  0.4609250000000  0.4663990000000 1.0
C      1  0.5164360000000  0.5148190000000  0.4338540000000 1.0
C      1  0.5325470000000  0.5120730000000  0.4867790000000 1.0
C      1  0.4902630000000  0.4368930000000  0.4640480000000 1.0
C      1  0.4339930000000  0.5240290000000  0.5592570000000 1.0
C      1  0.5060980000000  0.5564340000000  0.5641600000000 1.0
C      1  0.4598040000000  0.4390960000000  0.4701630000000 1.0
C      1  0.4593080000000  0.5172750000000  0.5007090000000 1.0
C      1  0.5210940000000  0.5068130000000  0.5773130000000 1.0
C      1  0.5206280000000  0.4502110000000  0.4240990000000 1.0
C      1  0.5317730000000  0.5389850000000  0.4431460000000 1.0
C      1  0.4765470000000  0.5565250000000  0.5651710000000 1.0
C      1  0.4698850000000  0.5585460000000  0.4637440000000 1.0
C      1  0.4639220000000  0.4370630000000  0.5204650000000 1.0
C      1  0.4307420000000  0.4727840000000  0.5290530000000 1.0
C      1  0.5438020000000  0.5672800000000  0.5080510000000 1.0
C      1  0.4243630000000  0.4734940000000  0.4892980000000 1.0
C      1  0.4598850000000  0.5671190000000  0.5149100000000 1.0
C      1  0.5520540000000  0.4379080000000  0.5300140000000 1.0
C      1  0.4753940000000  0.5723900000000  0.5394350000000 1.0
C      1  0.5479390000000  0.5416680000000  0.5490250000000 1.0
C      1  0.5530810000000  0.5423200000000  0.4625400000000 1.0
C      1  0.4699300000000  0.4336820000000  0.5492210000000 1.0
C      1  0.5443160000000  0.4580200000000  0.4406170000000 1.0
C      1  0.5431280000000  0.5025450000000  0.5123460000000 1.0
C      1  0.5336230000000  0.5819980000000  0.4619060000000 1.0
C      1  0.5377120000000  0.4547970000000  0.4679430000000 1.0
C      1  0.4761520000000  0.5169650000000  0.5816700000000 1.0
C      1  0.5825720000000  0.5293520000000  0.4956170000000 1.0
C      1  0.4408810000000  0.4753980000000  0.5547530000000 1.0
C      1  0.5275130000000  0.5350190000000  0.5667440000000 1.0
C      1  0.4956250000000  0.4242650000000  0.5578950000000 1.0
C      1  0.4963870000000  0.4710840000000  0.4979210000000 1.0
C      1  0.5702480000000  0.5035000000000  0.5251600000000 1.0
C      1  0.4436720000000  0.5503290000000  0.4701460000000 1.0
C      1  0.4870460000000  0.4935210000000  0.4118080000000 1.0
C      1  0.5766890000000  0.5249300000000  0.4684240000000 1.0
C      1  0.4429180000000  0.4694100000000  0.5084990000000 1.0
C      1  0.4153700000000  0.5013940000000  0.4875280000000 1.0
C      1  0.4179490000000  0.5251030000000  0.5062910000000 1.0
C      1  0.5133740000000  0.4685030000000  0.5179030000000 1.0
C      1  0.5216610000000  0.5663240000000  0.4414340000000 1.0
C      1  0.4752530000000  0.5799910000000  0.4979990000000 1.0
C      1  0.5045740000000  0.4454220000000  0.5776300000000 1.0
C      1  0.5023480000000  0.4873410000000  0.4502910000000 1.0
C      1  0.5064990000000  0.5386160000000  0.5124250000000 1.0
C      1  0.5737930000000  0.4510320000000  0.5124380000000 1.0
C      1  0.5120660000000  0.5341690000000  0.4838950000000 1.0
C      1  0.4322550000000  0.5318050000000  0.4507220000000 1.0
C      1  0.5851980000000  0.4773450000000  0.5213120000000 1.0
C      1  0.5485270000000  0.5656590000000  0.4795530000000 1.0
C      1  0.5608920000000  0.5551610000000  0.5290400000000 1.0
C      1  0.4222520000000  0.5257010000000  0.5340730000000 1.0
C      1  0.4767480000000  0.4956260000000  0.4557520000000 1.0
C      1  0.4226550000000  0.5038470000000  0.4601610000000 1.0
C      1  0.5091800000000  0.4640920000000  0.4723790000000 1.0
C      1  0.5803410000000  0.5325150000000  0.5234190000000 1.0
C      1  0.5696620000000  0.4897690000000  0.4113970000000 1.0
C      1  0.4519910000000  0.5026670000000  0.5501590000000 1.0
C      1  0.5338620000000  0.4874780000000  0.5604650000000 1.0
C      1  0.4428490000000  0.5429170000000  0.4981820000000 1.0
C      1  0.4919610000000  0.4177560000000  0.4885500000000 1.0
C      1  0.5780670000000  0.4955470000000  0.4607830000000 1.0
C      1  0.4717520000000  0.4620750000000  0.5086890000000 1.0
C      1  0.5044120000000  0.5153510000000  0.4110090000000 1.0
C      1  0.4640750000000  0.4232270000000  0.4945710000000 1.0
C      1  0.4821610000000  0.5833230000000  0.4710940000000 1.0
C      1  0.5030370000000  0.4300370000000  0.4360630000000 1.0
C      1  0.4626030000000  0.4576940000000  0.5649890000000 1.0
C      1  0.5203330000000  0.4925270000000  0.5313520000000 1.0
C      1  0.4882700000000  0.5368350000000  0.4674040000000 1.0
C      1  0.4473520000000  0.5261940000000  0.4269450000000 1.0
C      1  0.4576860000000  0.5360400000000  0.5756850000000 1.0
C      1  0.5248040000000  0.4644710000000  0.5729190000000 1.0
C      1  0.5769570000000  0.4773820000000  0.4806270000000 1.0
C      1  0.4376980000000  0.4824860000000  0.4477900000000 1.0
C      1  0.4704400000000  0.5097310000000  0.5268700000000 1.0
C      1  0.5071790000000  0.5861610000000  0.4567840000000 1.0
C      1  0.5628390000000  0.4546590000000  0.4848120000000 1.0
C      1  0.4989340000000  0.4707860000000  0.4254060000000 1.0
C      1  0.4607810000000  0.4975390000000  0.4324640000000 1.0
C      1  0.5125930000000  0.4092820000000  0.5387280000000 1.0
C      1  0.4743210000000  0.5130000000000  0.4760210000000 1.0
C      1  0.5406840000000  0.4143550000000  0.5394300000000 1.0
C      1  0.5266150000000  0.4444080000000  0.5157120000000 1.0
C      1  0.4985960000000  0.5154210000000  0.5280430000000 1.0
C      1  0.4940130000000  0.4966500000000  0.5855250000000 1.0
C      1  0.4844340000000  0.4670890000000  0.5812810000000 1.0
C      1  0.5118950000000  0.4189170000000  0.5099220000000 1.0
C      1  0.5648730000000  0.4812870000000  0.4353000000000 1.0
C      1  0.5052450000000  0.5737870000000  0.5405930000000 1.0
C      1  0.5180440000000  0.5640370000000  0.5178900000000 1.0
END
