TITL C-884134-5972-127 22.4847073855745 125000 -21852.4422777833 0 0 146 (C1) n - 1
REM
REM in /home/nfs/bkarasulu/CARBON/AIRSS/Generating-Clusters/ReaxFF-fromJPCA2015/Units_Real/with-SteepDescent/Only-C1/SD-CG/Try1-3A/FIRE-CG
REM
REM
REM
REM
REM
REM ./C.cell (11c1c37f851c82e70ff6c80c92926a4b)
REM
REM compiler GCC version 9.2.1 20190827 (Red Hat 9.2.1-1)
REM options -cpp -mtune=generic -march=x86-64 -g -O0 -fpre-include=/usr/include/finclude/math-vector-fortran.h
REM seed 817082711 694333925 1195154080 941855201 -574147470 -398983403 2036674690 638367929 -697913695 -1333163743 762904164 -1045761165 1691789682 -1123107587 -1745890054 72464607 1482526416 1434148641 563267430 -864129286 -96469321 -1777088438 -638261917 -522224286 1200267169 1507339994 -1354737927 -1158149095 1491332170 -1959743256 -1707468530 -802245986 -582694700
REM
CELL 1.54180   50.00000   50.00000   50.00000   90.00000   90.00000   90.00000
LATT -1
SFAC C  
C      1  0.4106000000000  0.4987280000000  0.4360760000000 1.0
C      1  0.5063420000000  0.4407730000000  0.4685630000000 1.0
C      1  0.4981820000000  0.4191790000000  0.4833880000000 1.0
C      1  0.5917090000000  0.5295630000000  0.4560630000000 1.0
C      1  0.5194640000000  0.4754040000000  0.5091700000000 1.0
C      1  0.5259660000000  0.5879770000000  0.5675560000000 1.0
C      1  0.4031750000000  0.4874870000000  0.5039670000000 1.0
C      1  0.4587610000000  0.4314670000000  0.5086210000000 1.0
C      1  0.5543790000000  0.5772120000000  0.5015150000000 1.0
C      1  0.4539480000000  0.4951300000000  0.4605690000000 1.0
C      1  0.5681690000000  0.5710110000000  0.4757860000000 1.0
C      1  0.5028160000000  0.4657410000000  0.4070580000000 1.0
C      1  0.5472880000000  0.6132960000000  0.5435800000000 1.0
C      1  0.5817220000000  0.5536660000000  0.5463810000000 1.0
C      1  0.4314360000000  0.4111690000000  0.5137950000000 1.0
C      1  0.5696900000000  0.5060190000000  0.5171730000000 1.0
C      1  0.4043860000000  0.5364340000000  0.5117820000000 1.0
C      1  0.5243220000000  0.4895500000000  0.5335460000000 1.0
C      1  0.4395180000000  0.4655820000000  0.5546630000000 1.0
C      1  0.4706000000000  0.4980010000000  0.6096240000000 1.0
C      1  0.4265020000000  0.4275870000000  0.4672240000000 1.0
C      1  0.5118470000000  0.5309910000000  0.3990000000000 1.0
C      1  0.5977530000000  0.4846630000000  0.4468360000000 1.0
C      1  0.4544530000000  0.5592690000000  0.5619680000000 1.0
C      1  0.5259720000000  0.5167470000000  0.5305600000000 1.0
C      1  0.5382780000000  0.5402870000000  0.4043960000000 1.0
C      1  0.4803700000000  0.5723900000000  0.5506940000000 1.0
C      1  0.4107570000000  0.4867920000000  0.5333020000000 1.0
C      1  0.4723400000000  0.3962170000000  0.5414560000000 1.0
C      1  0.5544190000000  0.4733070000000  0.4228690000000 1.0
C      1  0.5056070000000  0.4385000000000  0.4196030000000 1.0
C      1  0.5165500000000  0.3984690000000  0.4891120000000 1.0
C      1  0.4606990000000  0.5544620000000  0.4811050000000 1.0
C      1  0.4228570000000  0.4456210000000  0.4904450000000 1.0
C      1  0.4717980000000  0.5359250000000  0.4297190000000 1.0
C      1  0.5462140000000  0.5461550000000  0.5869750000000 1.0
C      1  0.5498600000000  0.5278360000000  0.5198710000000 1.0
C      1  0.4743890000000  0.4248450000000  0.5349680000000 1.0
C      1  0.5353640000000  0.4280440000000  0.5641480000000 1.0
C      1  0.5743250000000  0.4787090000000  0.5721590000000 1.0
C      1  0.4377400000000  0.5730230000000  0.4510260000000 1.0
C      1  0.4105020000000  0.5133910000000  0.4941680000000 1.0
C      1  0.5301600000000  0.6161400000000  0.5641330000000 1.0
C      1  0.4283980000000  0.5130860000000  0.4705660000000 1.0
C      1  0.6097970000000  0.4997780000000  0.4918650000000 1.0
C      1  0.5221910000000  0.4389880000000  0.4439290000000 1.0
C      1  0.4062310000000  0.4739640000000  0.4527930000000 1.0
C      1  0.4550870000000  0.5839290000000  0.4743130000000 1.0
C      1  0.5774920000000  0.4931540000000  0.4280150000000 1.0
C      1  0.4352940000000  0.5050660000000  0.4198560000000 1.0
C      1  0.5739750000000  0.4637420000000  0.5525920000000 1.0
C      1  0.4242670000000  0.5105240000000  0.5445290000000 1.0
C      1  0.5771980000000  0.5216560000000  0.4320300000000 1.0
C      1  0.5451120000000  0.4030310000000  0.5209410000000 1.0
C      1  0.4587440000000  0.4662980000000  0.4696560000000 1.0
C      1  0.5315730000000  0.4573410000000  0.5742870000000 1.0
C      1  0.4467850000000  0.4555590000000  0.4438900000000 1.0
C      1  0.5037150000000  0.5720120000000  0.5685680000000 1.0
C      1  0.4549280000000  0.5350530000000  0.5771010000000 1.0
C      1  0.4680580000000  0.4830120000000  0.5151460000000 1.0
C      1  0.5758220000000  0.5434260000000  0.4768110000000 1.0
C      1  0.5029660000000  0.5291800000000  0.5386160000000 1.0
C      1  0.5535070000000  0.4586530000000  0.5076210000000 1.0
C      1  0.4186490000000  0.4481830000000  0.4462700000000 1.0
C      1  0.5016520000000  0.5260470000000  0.5865510000000 1.0
C      1  0.5427990000000  0.4710730000000  0.5978940000000 1.0
C      1  0.5231580000000  0.5515320000000  0.4829710000000 1.0
C      1  0.4790010000000  0.4263240000000  0.4217560000000 1.0
C      1  0.5495150000000  0.4494780000000  0.4407340000000 1.0
C      1  0.5016430000000  0.4921960000000  0.4668370000000 1.0
C      1  0.4815530000000  0.4413990000000  0.5588970000000 1.0
C      1  0.4873830000000  0.4757380000000  0.6006800000000 1.0
C      1  0.5095780000000  0.3766900000000  0.4636440000000 1.0
C      1  0.5439600000000  0.5847030000000  0.5421310000000 1.0
C      1  0.5517390000000  0.5379340000000  0.4326270000000 1.0
C      1  0.5915140000000  0.4627370000000  0.4651120000000 1.0
C      1  0.5669910000000  0.4833280000000  0.5005010000000 1.0
C      1  0.4760760000000  0.5226150000000  0.5403210000000 1.0
C      1  0.5929540000000  0.4765810000000  0.4907010000000 1.0
C      1  0.4898450000000  0.4642260000000  0.4756570000000 1.0
C      1  0.4605890000000  0.4943580000000  0.4297510000000 1.0
C      1  0.4705910000000  0.4170470000000  0.4864680000000 1.0
C      1  0.4320490000000  0.5573930000000  0.5440750000000 1.0
C      1  0.4159840000000  0.4624480000000  0.5476890000000 1.0
C      1  0.5290550000000  0.4733960000000  0.4125020000000 1.0
C      1  0.5169500000000  0.4086400000000  0.5566130000000 1.0
C      1  0.5211880000000  0.4808630000000  0.5607880000000 1.0
C      1  0.5081310000000  0.5748450000000  0.4406480000000 1.0
C      1  0.4124890000000  0.5250670000000  0.4496840000000 1.0
C      1  0.6081340000000  0.5067090000000  0.4638110000000 1.0
C      1  0.4520300000000  0.5123290000000  0.5553110000000 1.0
C      1  0.4407400000000  0.6026310000000  0.4953210000000 1.0
C      1  0.4834680000000  0.5941720000000  0.5273980000000 1.0
C      1  0.4933010000000  0.5183750000000  0.4206390000000 1.0
C      1  0.4483070000000  0.3942900000000  0.5280200000000 1.0
C      1  0.4492130000000  0.4577740000000  0.4982020000000 1.0
C      1  0.4693740000000  0.4057930000000  0.4407850000000 1.0
C      1  0.4529220000000  0.4144340000000  0.4643820000000 1.0
C      1  0.5250180000000  0.5760690000000  0.4980320000000 1.0
C      1  0.5361940000000  0.5156120000000  0.4479000000000 1.0
C      1  0.4773770000000  0.4669190000000  0.5716990000000 1.0
C      1  0.5485800000000  0.5326480000000  0.4877030000000 1.0
C      1  0.5983160000000  0.5370080000000  0.5317470000000 1.0
C      1  0.5453380000000  0.5053730000000  0.4741860000000 1.0
C      1  0.4263560000000  0.5505630000000  0.4373950000000 1.0
C      1  0.5567680000000  0.5679460000000  0.4483120000000 1.0
C      1  0.5633420000000  0.4927340000000  0.5927260000000 1.0
C      1  0.4668140000000  0.5099620000000  0.5020710000000 1.0
C      1  0.4854300000000  0.5996210000000  0.4786610000000 1.0
C      1  0.4745560000000  0.4745360000000  0.4135250000000 1.0
C      1  0.5199430000000  0.3886920000000  0.5188490000000 1.0
C      1  0.5023060000000  0.3895550000000  0.5423850000000 1.0
C      1  0.5540480000000  0.4220390000000  0.5419130000000 1.0
C      1  0.5633760000000  0.5231920000000  0.5914190000000 1.0
C      1  0.5164870000000  0.4823340000000  0.6053730000000 1.0
C      1  0.4913950000000  0.4693200000000  0.5048150000000 1.0
C      1  0.5160850000000  0.5007510000000  0.5825280000000 1.0
C      1  0.4347890000000  0.5670270000000  0.5171350000000 1.0
C      1  0.5007850000000  0.5936790000000  0.5034220000000 1.0
C      1  0.4897420000000  0.3888890000000  0.4500560000000 1.0
C      1  0.5233780000000  0.4907130000000  0.4851380000000 1.0
C      1  0.5673000000000  0.4464660000000  0.5322550000000 1.0
C      1  0.5347040000000  0.5841100000000  0.4433470000000 1.0
C      1  0.4780060000000  0.5397830000000  0.4599070000000 1.0
C      1  0.5557590000000  0.4365930000000  0.4874270000000 1.0
C      1  0.5685810000000  0.4448200000000  0.4623080000000 1.0
C      1  0.4739110000000  0.5254630000000  0.5968130000000 1.0
C      1  0.4151430000000  0.5351340000000  0.5381000000000 1.0
C      1  0.5059030000000  0.5516210000000  0.4599410000000 1.0
C      1  0.4625710000000  0.4820820000000  0.5495180000000 1.0
C      1  0.4050440000000  0.4681060000000  0.4821160000000 1.0
C      1  0.4620980000000  0.6047780000000  0.5132850000000 1.0
C      1  0.4609480000000  0.5390470000000  0.5055800000000 1.0
C      1  0.4829460000000  0.5478510000000  0.5280460000000 1.0
C      1  0.4445100000000  0.5333020000000  0.4211470000000 1.0
C      1  0.4189340000000  0.5883460000000  0.5077400000000 1.0
C      1  0.5976730000000  0.5139100000000  0.5159050000000 1.0
C      1  0.5584950000000  0.5621630000000  0.5276640000000 1.0
C      1  0.5453920000000  0.4101320000000  0.4928430000000 1.0
C      1  0.5723250000000  0.5454240000000  0.5743950000000 1.0
C      1  0.5166980000000  0.5499010000000  0.5801040000000 1.0
C      1  0.5015630000000  0.5975680000000  0.4562320000000 1.0
C      1  0.5109860000000  0.5066140000000  0.4414050000000 1.0
C      1  0.4612220000000  0.4493880000000  0.4191940000000 1.0
C      1  0.4115770000000  0.5616050000000  0.5004810000000 1.0
C      1  0.4763920000000  0.5090550000000  0.4741440000000 1.0
END
