TITL C-884133-6611-210 1.09714636136046e-07 125000 -2147.50770236366 0 0 16 (C1) n - 1
REM
REM in /home/nfs/bkarasulu/CARBON/AIRSS/Generating-Clusters/ReaxFF-fromJPCA2015/Units_Real/with-SteepDescent/Only-C1/SD-CG/Try1-3A/FIRE-CG
REM
REM
REM
REM
REM
REM ./C.cell (11c1c37f851c82e70ff6c80c92926a4b)
REM
REM compiler GCC version 9.2.1 20190827 (Red Hat 9.2.1-1)
REM options -cpp -mtune=generic -march=x86-64 -g -O0 -fpre-include=/usr/include/finclude/math-vector-fortran.h
REM seed 2052713794 -165449620 -1108797012 1166456100 -1907479883 1293361236 71882288 -1757259355 1182883481 1480135224 582790476 1464394330 -1253131321 -2044222029 1152773427 1074171220 1868680708 1061383514 -480190797 1651400627 499040769 -966329288 -170410254 1288971837 630433363 1262107263 -482032847 -1025749535 -1006970190 1309648471 -321517449 -67117834 -875769800
REM
CELL 1.54180   50.00000   50.00000   50.00000   90.00000   90.00000   90.00000
LATT -1
SFAC C  
C      1  0.5127960000000  0.5430600000000  0.5412380000000 1.0
C      1  0.4950120000000  0.5529470000000  0.4927540000000 1.0
C      1  0.4854320000000  0.4444320000000  0.5306420000000 1.0
C      1  0.5307600000000  0.4553650000000  0.5113590000000 1.0
C      1  0.5072910000000  0.5169640000000  0.5339770000000 1.0
C      1  0.4881340000000  0.4987790000000  0.4954810000000 1.0
C      1  0.5050550000000  0.5627100000000  0.5161340000000 1.0
C      1  0.5191360000000  0.4611770000000  0.4820180000000 1.0
C      1  0.4993770000000  0.4936160000000  0.5212670000000 1.0
C      1  0.4832380000000  0.5613510000000  0.4580890000000 1.0
C      1  0.5091560000000  0.4637000000000  0.5282740000000 1.0
C      1  0.4894390000000  0.4720040000000  0.4856890000000 1.0
C      1  0.5320450000000  0.4585340000000  0.4600780000000 1.0
C      1  0.4753210000000  0.4524070000000  0.5034680000000 1.0
C      1  0.4879470000000  0.5269120000000  0.4816600000000 1.0
C      1  0.4798600000000  0.5360430000000  0.4578720000000 1.0
END
