TITL C-884129-4740-212 26.3227668509274 125000 -8792.137448447 0 0 60 (C1) n - 1
REM
REM in /home/nfs/bkarasulu/CARBON/AIRSS/Generating-Clusters/ReaxFF-fromJPCA2015/Units_Real/with-SteepDescent/Only-C1/SD-CG/Try1-3A/FIRE-CG
REM
REM
REM
REM
REM
REM ./C.cell (11c1c37f851c82e70ff6c80c92926a4b)
REM
REM compiler GCC version 9.2.1 20190827 (Red Hat 9.2.1-1)
REM options -cpp -mtune=generic -march=x86-64 -g -O0 -fpre-include=/usr/include/finclude/math-vector-fortran.h
REM seed 1678345433 -369710099 516012085 -1978289271 -1062410730 1396051480 1395418574 586878306 -831659870 929637471 821633228 2131798260 1583179381 -1625300461 700780954 17317781 1234212738 7084758 1931608109 842118939 1219750515 1434831263 -585166480 -2079801112 1021468385 662106535 1857788982 -1748527839 -1435146589 -1872213211 -685485839 -395887968 2029497532
REM
CELL 1.54180   50.00000   50.00000   50.00000   90.00000   90.00000   90.00000
LATT -1
SFAC C  
C      1  0.5749130000000  0.5088140000000  0.5193120000000 1.0
C      1  0.4652230000000  0.5511050000000  0.4787470000000 1.0
C      1  0.5583770000000  0.5644890000000  0.4794780000000 1.0
C      1  0.5141350000000  0.5603880000000  0.4717670000000 1.0
C      1  0.4666150000000  0.4321760000000  0.5103640000000 1.0
C      1  0.4779720000000  0.4746660000000  0.5489540000000 1.0
C      1  0.5006350000000  0.5517870000000  0.5480970000000 1.0
C      1  0.5236980000000  0.4383050000000  0.4892940000000 1.0
C      1  0.5007560000000  0.5714400000000  0.5303610000000 1.0
C      1  0.4958900000000  0.5277360000000  0.4450880000000 1.0
C      1  0.4200510000000  0.5051950000000  0.4837750000000 1.0
C      1  0.4539640000000  0.4532450000000  0.4597970000000 1.0
C      1  0.4657460000000  0.5251390000000  0.5484380000000 1.0
C      1  0.5388170000000  0.5006860000000  0.4920000000000 1.0
C      1  0.4342570000000  0.4875320000000  0.5326830000000 1.0
C      1  0.5476560000000  0.4862640000000  0.4538290000000 1.0
C      1  0.4588830000000  0.5457730000000  0.5282660000000 1.0
C      1  0.4780080000000  0.4508650000000  0.4480070000000 1.0
C      1  0.4793880000000  0.5746300000000  0.4877290000000 1.0
C      1  0.5281680000000  0.5671350000000  0.5190480000000 1.0
C      1  0.4397360000000  0.4423860000000  0.5053700000000 1.0
C      1  0.5129000000000  0.5096390000000  0.5599330000000 1.0
C      1  0.4832890000000  0.4270470000000  0.4878130000000 1.0
C      1  0.5430920000000  0.5182820000000  0.4667690000000 1.0
C      1  0.4923770000000  0.5299980000000  0.5630280000000 1.0
C      1  0.5350090000000  0.5195540000000  0.5404300000000 1.0
C      1  0.4578100000000  0.5125950000000  0.4455800000000 1.0
C      1  0.4688250000000  0.5378200000000  0.4527160000000 1.0
C      1  0.4333240000000  0.4533270000000  0.4772060000000 1.0
C      1  0.5579460000000  0.4763830000000  0.5503780000000 1.0
C      1  0.4932380000000  0.5516880000000  0.4870110000000 1.0
C      1  0.5062520000000  0.4816610000000  0.5575120000000 1.0
C      1  0.5345550000000  0.4484830000000  0.5290970000000 1.0
C      1  0.4659440000000  0.4508010000000  0.5372240000000 1.0
C      1  0.5303000000000  0.4649740000000  0.5538030000000 1.0
C      1  0.5619050000000  0.5046970000000  0.5442630000000 1.0
C      1  0.5595440000000  0.4634460000000  0.5240110000000 1.0
C      1  0.5338110000000  0.5736700000000  0.4898180000000 1.0
C      1  0.5452680000000  0.5455370000000  0.5269930000000 1.0
C      1  0.4835450000000  0.5020140000000  0.4386650000000 1.0
C      1  0.4340220000000  0.5025720000000  0.4568640000000 1.0
C      1  0.5690300000000  0.4778110000000  0.4707730000000 1.0
C      1  0.4943800000000  0.4297080000000  0.4615360000000 1.0
C      1  0.5212420000000  0.5095060000000  0.5123530000000 1.0
C      1  0.4386890000000  0.4569790000000  0.5306350000000 1.0
C      1  0.4942740000000  0.5014970000000  0.5053000000000 1.0
C      1  0.4719550000000  0.5692750000000  0.5160250000000 1.0
C      1  0.5102070000000  0.4486130000000  0.5116150000000 1.0
C      1  0.5644610000000  0.5374140000000  0.4796670000000 1.0
C      1  0.4266190000000  0.4983570000000  0.5088660000000 1.0
C      1  0.5231100000000  0.4416840000000  0.4612210000000 1.0
C      1  0.5648540000000  0.4846980000000  0.5021870000000 1.0
C      1  0.4589660000000  0.4966110000000  0.5464810000000 1.0
C      1  0.4908480000000  0.4720050000000  0.5056170000000 1.0
C      1  0.4221630000000  0.4790710000000  0.4673280000000 1.0
C      1  0.5242630000000  0.4688380000000  0.4503020000000 1.0
C      1  0.4948150000000  0.4777730000000  0.4515420000000 1.0
C      1  0.5206170000000  0.5356470000000  0.4572650000000 1.0
C      1  0.4867360000000  0.4853790000000  0.4820280000000 1.0
C      1  0.5669270000000  0.5351910000000  0.5097400000000 1.0
END
