TITL C-884131-4643-365 -26.9095600336348 125000 -10108.1660559375 0 0 68 (C1) n - 1
REM
REM in /home/nfs/bkarasulu/CARBON/AIRSS/Generating-Clusters/ReaxFF-fromJPCA2015/Units_Real/with-SteepDescent/Only-C1/SD-CG/Try1-3A/FIRE-CG
REM
REM
REM
REM
REM
REM ./C.cell (11c1c37f851c82e70ff6c80c92926a4b)
REM
REM compiler GCC version 9.2.1 20190827 (Red Hat 9.2.1-1)
REM options -cpp -mtune=generic -march=x86-64 -g -O0 -fpre-include=/usr/include/finclude/math-vector-fortran.h
REM seed 1673511333 1334957067 -572990979 -1313243155 1924204318 -1895730630 -1877695667 1836782964 -1735825934 -824501873 -312413355 -957636727 -46554266 2037545451 509631652 1870620945 -1158092308 186174114 -1831681469 -407213986 -940622645 980066566 416125696 -2142383104 -1045716181 178113056 1050680198 1239533609 1543098698 -2488099 1731833768 598595281 1814262814
REM
CELL 1.54180   50.00000   50.00000   50.00000   90.00000   90.00000   90.00000
LATT -1
SFAC C  
C      1  0.4409220000000  0.4594150000000  0.5149150000000 1.0
C      1  0.5012200000000  0.5328030000000  0.4294120000000 1.0
C      1  0.5112090000000  0.4414440000000  0.4522990000000 1.0
C      1  0.4457040000000  0.5401760000000  0.4713220000000 1.0
C      1  0.4871440000000  0.4384050000000  0.4301870000000 1.0
C      1  0.4947480000000  0.5294410000000  0.4860810000000 1.0
C      1  0.4615990000000  0.4367150000000  0.5198310000000 1.0
C      1  0.5147710000000  0.4968330000000  0.5781780000000 1.0
C      1  0.5410840000000  0.5462540000000  0.4886240000000 1.0
C      1  0.5368320000000  0.4778670000000  0.4432750000000 1.0
C      1  0.4980550000000  0.4357970000000  0.4810550000000 1.0
C      1  0.5675390000000  0.5319590000000  0.4867790000000 1.0
C      1  0.5066020000000  0.4824020000000  0.4726520000000 1.0
C      1  0.5857920000000  0.4974440000000  0.5096870000000 1.0
C      1  0.5032660000000  0.5588680000000  0.4747130000000 1.0
C      1  0.5079710000000  0.4721970000000  0.4450960000000 1.0
C      1  0.5294690000000  0.4937730000000  0.4860230000000 1.0
C      1  0.4607610000000  0.4668660000000  0.5583100000000 1.0
C      1  0.4507720000000  0.4770660000000  0.4475990000000 1.0
C      1  0.4803030000000  0.5703010000000  0.4613420000000 1.0
C      1  0.4858300000000  0.4780880000000  0.5123590000000 1.0
C      1  0.5689410000000  0.4751210000000  0.5176450000000 1.0
C      1  0.4577360000000  0.5639700000000  0.4822180000000 1.0
C      1  0.4869980000000  0.5560180000000  0.4375740000000 1.0
C      1  0.5361360000000  0.5477610000000  0.5399090000000 1.0
C      1  0.4553530000000  0.4903340000000  0.4737100000000 1.0
C      1  0.5686190000000  0.5124940000000  0.4647020000000 1.0
C      1  0.5816750000000  0.4918500000000  0.4808680000000 1.0
C      1  0.4597040000000  0.4955530000000  0.4239650000000 1.0
C      1  0.5457470000000  0.5062530000000  0.4465660000000 1.0
C      1  0.4768400000000  0.5159250000000  0.4373000000000 1.0
C      1  0.4698140000000  0.5185710000000  0.5591980000000 1.0
C      1  0.4088240000000  0.4898460000000  0.5202720000000 1.0
C      1  0.4761730000000  0.4456040000000  0.5444080000000 1.0
C      1  0.5282820000000  0.5523480000000  0.4614750000000 1.0
C      1  0.5063400000000  0.5758000000000  0.5202820000000 1.0
C      1  0.5299750000000  0.4994780000000  0.5322250000000 1.0
C      1  0.4666510000000  0.4566120000000  0.4377740000000 1.0
C      1  0.5571600000000  0.4754460000000  0.4894620000000 1.0
C      1  0.5405710000000  0.4499190000000  0.4546180000000 1.0
C      1  0.5449480000000  0.4743440000000  0.5348680000000 1.0
C      1  0.5721300000000  0.5227620000000  0.5141720000000 1.0
C      1  0.5490510000000  0.4460050000000  0.4828230000000 1.0
C      1  0.5318350000000  0.5625940000000  0.5158130000000 1.0
C      1  0.5226200000000  0.5197230000000  0.4898140000000 1.0
C      1  0.4457900000000  0.5199670000000  0.5433740000000 1.0
C      1  0.4811070000000  0.5632140000000  0.5319140000000 1.0
C      1  0.4866980000000  0.5424680000000  0.5536780000000 1.0
C      1  0.5172670000000  0.5207320000000  0.5732960000000 1.0
C      1  0.5279840000000  0.5299590000000  0.4425940000000 1.0
C      1  0.5484870000000  0.5223830000000  0.5325900000000 1.0
C      1  0.5282940000000  0.4490760000000  0.5344910000000 1.0
C      1  0.4573750000000  0.5308080000000  0.5183220000000 1.0
C      1  0.5007900000000  0.5001760000000  0.5244790000000 1.0
C      1  0.4082700000000  0.4680530000000  0.5047990000000 1.0
C      1  0.4599530000000  0.5594310000000  0.5118940000000 1.0
C      1  0.5369230000000  0.4434570000000  0.5081880000000 1.0
C      1  0.5148470000000  0.5453210000000  0.5614640000000 1.0
C      1  0.4671380000000  0.5173970000000  0.4676680000000 1.0
C      1  0.4774910000000  0.4301060000000  0.4975830000000 1.0
C      1  0.5031810000000  0.4521190000000  0.5505080000000 1.0
C      1  0.5023300000000  0.4622540000000  0.4933510000000 1.0
C      1  0.4253380000000  0.4982150000000  0.5414880000000 1.0
C      1  0.5004310000000  0.4738390000000  0.5714840000000 1.0
C      1  0.4855010000000  0.5226340000000  0.5136230000000 1.0
C      1  0.4589910000000  0.4789440000000  0.5003330000000 1.0
C      1  0.4756700000000  0.4901560000000  0.5683190000000 1.0
C      1  0.4364320000000  0.4708450000000  0.5431580000000 1.0
END
