TITL C-883729-9652-50 -941391.222815525 125000 -6521.42698632167 0 0 45 (C1) n - 1
REM
REM in /home/nfs/bkarasulu/CARBON/AIRSS/Generating-Clusters/ReaxFF-fromJPCA2015/Units_Real/with-SteepDescent/Only-C1/SD-CG/Try1-3A/FIRE-CG
REM
REM
REM
REM
REM
REM ./C.cell (11c1c37f851c82e70ff6c80c92926a4b)
REM
REM compiler GCC version 9.2.1 20190827 (Red Hat 9.2.1-1)
REM options -cpp -mtune=generic -march=x86-64 -g -O0 -fpre-include=/usr/include/finclude/math-vector-fortran.h
REM seed 1110470103 1938205497 460051713 188174417 821735128 1463514497 -1159272 -2010928344 1893777046 -1304180693 -1484032422 1010484970 -282419202 1768370430 -476383846 -175428305 -2138458757 -1644233194 841072806 -66268670 -1591093509 -1786179880 630600277 -1157412797 1163856918 854755933 1229655410 -1843797564 788739431 -1308795506 1404919747 1979243059 1696817736
REM
CELL 1.54180   50.00000   50.00000   50.00000   90.00000   90.00000   90.00000
LATT -1
SFAC C  
C      1  0.5023570000000  0.4319670000000  0.5185120000000 1.0
C      1  0.4774280000000  0.5595580000000  0.5616010000000 1.0
C      1  0.4909310000000  0.5078920000000  0.5582600000000 1.0
C      1  0.4472580000000  0.5051280000000  0.4629540000000 1.0
C      1  0.5374470000000  0.4934210000000  0.4529940000000 1.0
C      1  0.5151760000000  0.4284910000000  0.4644020000000 1.0
C      1  0.5017550000000  0.5675200000000  0.5520230000000 1.0
C      1  0.5103600000000  0.4251770000000  0.4916160000000 1.0
C      1  0.5420250000000  0.4667590000000  0.4889820000000 1.0
C      1  0.4371010000000  0.5218990000000  0.5089190000000 1.0
C      1  0.5583420000000  0.4849020000000  0.4713210000000 1.0
C      1  0.5528010000000  0.5308820000000  0.5316850000000 1.0
C      1  0.4503420000000  0.5444250000000  0.4978170000000 1.0
C      1  0.5041170000000  0.4557470000000  0.4512690000000 1.0
C      1  0.5181750000000  0.4976010000000  0.5592170000000 1.0
C      1  0.4770290000000  0.5309970000000  0.5424160000000 1.0
C      1  0.5206960000000  0.5109550000000  0.4738980000000 1.0
C      1  0.5084270000000  0.4702650000000  0.5513020000000 1.0
C      1  0.4778180000000  0.5418800000000  0.4679000000000 1.0
C      1  0.5416620000000  0.5069560000000  0.5437950000000 1.0
C      1  0.5609710000000  0.5109170000000  0.4824400000000 1.0
C      1  0.4525620000000  0.5149950000000  0.5330420000000 1.0
C      1  0.5200920000000  0.4762680000000  0.4376020000000 1.0
C      1  0.4809680000000  0.4667010000000  0.4625890000000 1.0
C      1  0.4507260000000  0.4762120000000  0.5050950000000 1.0
C      1  0.5357990000000  0.5484720000000  0.5453520000000 1.0
C      1  0.4490120000000  0.5343230000000  0.4575240000000 1.0
C      1  0.5229360000000  0.4875590000000  0.4958450000000 1.0
C      1  0.4962220000000  0.5057950000000  0.4055440000000 1.0
C      1  0.4583980000000  0.4869580000000  0.5318460000000 1.0
C      1  0.5419440000000  0.5297970000000  0.4841450000000 1.0
C      1  0.4804410000000  0.4816660000000  0.5512190000000 1.0
C      1  0.5207630000000  0.4506380000000  0.5338360000000 1.0
C      1  0.5439430000000  0.4601060000000  0.5183540000000 1.0
C      1  0.4923150000000  0.5439610000000  0.5192180000000 1.0
C      1  0.5162580000000  0.5598320000000  0.5278230000000 1.0
C      1  0.5339950000000  0.4878890000000  0.5226750000000 1.0
C      1  0.4758860000000  0.4948980000000  0.4538170000000 1.0
C      1  0.4925530000000  0.5173980000000  0.4651510000000 1.0
C      1  0.4961060000000  0.4901550000000  0.4254290000000 1.0
C      1  0.5454290000000  0.5385630000000  0.5073560000000 1.0
C      1  0.4766560000000  0.5539600000000  0.4964640000000 1.0
C      1  0.4390040000000  0.4982440000000  0.4902130000000 1.0
C      1  0.4793040000000  0.4450030000000  0.5085710000000 1.0
C      1  0.4664680000000  0.4572720000000  0.4879650000000 1.0
END
