TITL C-884133-6611-268 11.3015025343164 125000 -11406.2040495337 0 0 77 (C1) n - 1
REM
REM in /home/nfs/bkarasulu/CARBON/AIRSS/Generating-Clusters/ReaxFF-fromJPCA2015/Units_Real/with-SteepDescent/Only-C1/SD-CG/Try1-3A/FIRE-CG
REM
REM
REM
REM
REM
REM ./C.cell (11c1c37f851c82e70ff6c80c92926a4b)
REM
REM compiler GCC version 9.2.1 20190827 (Red Hat 9.2.1-1)
REM options -cpp -mtune=generic -march=x86-64 -g -O0 -fpre-include=/usr/include/finclude/math-vector-fortran.h
REM seed 418368475 1851554557 -37962671 -1388758495 586751759 1508498288 -401643318 500783450 -677602403 -210929601 200552553 1703546887 -371452482 251884140 -1619439876 -467631154 97894866 -1867923763 1207417655 1851513567 2125267701 -1202621752 1568503930 -1556734739 792487097 -1160771917 -371694397 -199156528 1857249841 -1424405710 1120035726 478749968 677840602
REM
CELL 1.54180   50.00000   50.00000   50.00000   90.00000   90.00000   90.00000
LATT -1
SFAC C  
C      1  0.5034290000000  0.5067660000000  0.4658600000000 1.0
C      1  0.5375530000000  0.4512670000000  0.4573270000000 1.0
C      1  0.5564830000000  0.4823260000000  0.5493890000000 1.0
C      1  0.5673740000000  0.5584660000000  0.5215960000000 1.0
C      1  0.5423770000000  0.5643500000000  0.5031520000000 1.0
C      1  0.4843160000000  0.4407690000000  0.5290700000000 1.0
C      1  0.4972010000000  0.5618930000000  0.4516040000000 1.0
C      1  0.5536580000000  0.4677850000000  0.4756920000000 1.0
C      1  0.5517450000000  0.5337090000000  0.4615140000000 1.0
C      1  0.4412390000000  0.4694240000000  0.4459600000000 1.0
C      1  0.5309080000000  0.5345900000000  0.5017700000000 1.0
C      1  0.5794520000000  0.5334460000000  0.5266830000000 1.0
C      1  0.4831640000000  0.4839850000000  0.4253510000000 1.0
C      1  0.5314030000000  0.5388630000000  0.5528230000000 1.0
C      1  0.4178220000000  0.5040950000000  0.4920260000000 1.0
C      1  0.5389740000000  0.4275300000000  0.4986620000000 1.0
C      1  0.4927960000000  0.4877870000000  0.4834070000000 1.0
C      1  0.5299480000000  0.5195170000000  0.5744630000000 1.0
C      1  0.5024040000000  0.5122850000000  0.5723780000000 1.0
C      1  0.5057200000000  0.4590750000000  0.5702630000000 1.0
C      1  0.5077910000000  0.5012330000000  0.5250300000000 1.0
C      1  0.4495000000000  0.4297090000000  0.4995930000000 1.0
C      1  0.4419820000000  0.5193830000000  0.5572900000000 1.0
C      1  0.5062330000000  0.4369150000000  0.5491120000000 1.0
C      1  0.5377340000000  0.5237060000000  0.4357750000000 1.0
C      1  0.4451700000000  0.4923530000000  0.5568250000000 1.0
C      1  0.4273930000000  0.5431970000000  0.5286270000000 1.0
C      1  0.4789430000000  0.5658190000000  0.4733810000000 1.0
C      1  0.4789040000000  0.4303300000000  0.5020110000000 1.0
C      1  0.4408210000000  0.4826240000000  0.4965980000000 1.0
C      1  0.5395820000000  0.4746100000000  0.5009170000000 1.0
C      1  0.4951220000000  0.5735340000000  0.5399210000000 1.0
C      1  0.5251730000000  0.5233760000000  0.4757750000000 1.0
C      1  0.5277590000000  0.5227640000000  0.5275030000000 1.0
C      1  0.4666830000000  0.4951660000000  0.4902190000000 1.0
C      1  0.5311070000000  0.4306150000000  0.5376990000000 1.0
C      1  0.5250680000000  0.4673190000000  0.4370120000000 1.0
C      1  0.4397530000000  0.4683130000000  0.5269590000000 1.0
C      1  0.4318360000000  0.4401780000000  0.5220830000000 1.0
C      1  0.4931010000000  0.4840210000000  0.5774120000000 1.0
C      1  0.5331900000000  0.4963210000000  0.4327550000000 1.0
C      1  0.4969050000000  0.4600320000000  0.4347350000000 1.0
C      1  0.5240740000000  0.4310530000000  0.4747570000000 1.0
C      1  0.4959220000000  0.5711560000000  0.4948250000000 1.0
C      1  0.4596210000000  0.5428510000000  0.4811570000000 1.0
C      1  0.4889600000000  0.5094650000000  0.4400460000000 1.0
C      1  0.4856900000000  0.5278350000000  0.5522740000000 1.0
C      1  0.5529760000000  0.4353200000000  0.5214060000000 1.0
C      1  0.5558600000000  0.5037630000000  0.5681320000000 1.0
C      1  0.4836610000000  0.5174040000000  0.5252630000000 1.0
C      1  0.5147940000000  0.5487560000000  0.4321840000000 1.0
C      1  0.4183660000000  0.5271100000000  0.5094190000000 1.0
C      1  0.5201880000000  0.5675080000000  0.5546000000000 1.0
C      1  0.4822940000000  0.4423890000000  0.4528960000000 1.0
C      1  0.5027370000000  0.5602050000000  0.4118920000000 1.0
C      1  0.5118820000000  0.4817760000000  0.5035980000000 1.0
C      1  0.5760050000000  0.5202330000000  0.5528690000000 1.0
C      1  0.5497130000000  0.5619640000000  0.4743970000000 1.0
C      1  0.5112080000000  0.5759600000000  0.5141290000000 1.0
C      1  0.5855760000000  0.4839650000000  0.5078010000000 1.0
C      1  0.4943080000000  0.4324090000000  0.4770150000000 1.0
C      1  0.4743790000000  0.5545470000000  0.5505390000000 1.0
C      1  0.4667730000000  0.4754870000000  0.5649580000000 1.0
C      1  0.4451330000000  0.5471600000000  0.5504210000000 1.0
C      1  0.4607170000000  0.5171200000000  0.4369190000000 1.0
C      1  0.4662380000000  0.4608430000000  0.5393470000000 1.0
C      1  0.4540640000000  0.4894810000000  0.4288260000000 1.0
C      1  0.4674530000000  0.5225040000000  0.5004020000000 1.0
C      1  0.4295620000000  0.4684050000000  0.4734080000000 1.0
C      1  0.5758840000000  0.5157500000000  0.4734180000000 1.0
C      1  0.5599840000000  0.4683620000000  0.5225040000000 1.0
C      1  0.4245840000000  0.5212660000000  0.4704220000000 1.0
C      1  0.5845700000000  0.5119890000000  0.5018380000000 1.0
C      1  0.4537710000000  0.4438050000000  0.4511130000000 1.0
C      1  0.5720700000000  0.4887240000000  0.4697350000000 1.0
C      1  0.4451360000000  0.5342340000000  0.4566160000000 1.0
C      1  0.4381300000000  0.4397580000000  0.4746500000000 1.0
END
