TITL C-883727-9645-388 1.5376943448764 125000 -6828.22129693212 0 0 47 (C1) n - 1
REM
REM in /home/nfs/bkarasulu/CARBON/AIRSS/Generating-Clusters/ReaxFF-fromJPCA2015/Units_Real/with-SteepDescent/Only-C1/SD-CG/Try1-3A/FIRE-CG
REM
REM
REM
REM
REM
REM ./C.cell (11c1c37f851c82e70ff6c80c92926a4b)
REM
REM compiler GCC version 9.2.1 20190827 (Red Hat 9.2.1-1)
REM options -cpp -mtune=generic -march=x86-64 -g -O0 -fpre-include=/usr/include/finclude/math-vector-fortran.h
REM seed -1405183305 1869029271 2024712453 475754078 1878518714 -1535587602 -2054641436 -1404785770 -466245476 -1488416537 1106023354 -1932708653 1002737792 -2059836119 860239952 626041132 1889558909 1693242216 -2056636105 -1859508346 -893072292 1185877089 1367803891 -1088232444 1836615475 1348825153 -489828653 1453373463 1737761343 162615443 743860298 -592239570 -605843427
REM
CELL 1.54180   50.00000   50.00000   50.00000   90.00000   90.00000   90.00000
LATT -1
SFAC C  
C      1  0.5190570000000  0.4735450000000  0.5521170000000 1.0
C      1  0.4841970000000  0.5116240000000  0.5524040000000 1.0
C      1  0.4922320000000  0.4343730000000  0.4905500000000 1.0
C      1  0.5324950000000  0.4402270000000  0.5010290000000 1.0
C      1  0.4401910000000  0.4877480000000  0.4869340000000 1.0
C      1  0.5606260000000  0.5393020000000  0.5124170000000 1.0
C      1  0.4374810000000  0.5393110000000  0.5054190000000 1.0
C      1  0.4902380000000  0.5435520000000  0.5018190000000 1.0
C      1  0.5069470000000  0.4382620000000  0.5160050000000 1.0
C      1  0.4228080000000  0.5023930000000  0.4422680000000 1.0
C      1  0.5216910000000  0.4961130000000  0.4298530000000 1.0
C      1  0.5446520000000  0.4842390000000  0.5428680000000 1.0
C      1  0.4838320000000  0.4975230000000  0.4591840000000 1.0
C      1  0.4574880000000  0.5559510000000  0.5419720000000 1.0
C      1  0.4586760000000  0.5316410000000  0.4628390000000 1.0
C      1  0.4618320000000  0.4941660000000  0.5053250000000 1.0
C      1  0.4858400000000  0.5559760000000  0.5298940000000 1.0
C      1  0.4584330000000  0.5029300000000  0.5355730000000 1.0
C      1  0.5107100000000  0.5009770000000  0.5593960000000 1.0
C      1  0.5462360000000  0.5039910000000  0.4629800000000 1.0
C      1  0.4483590000000  0.4744630000000  0.5499360000000 1.0
C      1  0.5402630000000  0.5377910000000  0.5330690000000 1.0
C      1  0.4994090000000  0.4799060000000  0.4417070000000 1.0
C      1  0.5734640000000  0.4894840000000  0.5142360000000 1.0
C      1  0.4370220000000  0.5080490000000  0.4628120000000 1.0
C      1  0.5632170000000  0.5121660000000  0.5003890000000 1.0
C      1  0.4849520000000  0.5262300000000  0.4519160000000 1.0
C      1  0.5191990000000  0.4608810000000  0.4537300000000 1.0
C      1  0.5295220000000  0.5208360000000  0.4450700000000 1.0
C      1  0.5533870000000  0.4558900000000  0.5096250000000 1.0
C      1  0.5408700000000  0.4797580000000  0.4455870000000 1.0
C      1  0.4433960000000  0.5302850000000  0.5334290000000 1.0
C      1  0.5078970000000  0.5132300000000  0.4991200000000 1.0
C      1  0.4934060000000  0.5363180000000  0.5480560000000 1.0
C      1  0.4620740000000  0.5434020000000  0.4885960000000 1.0
C      1  0.4864880000000  0.4962130000000  0.4895530000000 1.0
C      1  0.5641680000000  0.4713300000000  0.5263800000000 1.0
C      1  0.4671140000000  0.4466200000000  0.4854630000000 1.0
C      1  0.5350670000000  0.5068510000000  0.4904250000000 1.0
C      1  0.4998620000000  0.4549100000000  0.5392120000000 1.0
C      1  0.5143040000000  0.5516550000000  0.4856080000000 1.0
C      1  0.5109520000000  0.5389430000000  0.4586260000000 1.0
C      1  0.5168500000000  0.4415270000000  0.4752560000000 1.0
C      1  0.4492400000000  0.4616240000000  0.4835250000000 1.0
C      1  0.5353790000000  0.5121330000000  0.5465580000000 1.0
C      1  0.4731840000000  0.4633580000000  0.5445330000000 1.0
C      1  0.5352940000000  0.5523020000000  0.5067350000000 1.0
END
