TITL C-883735-9890-180 0.297294881631306 125000 -12927.8713190796 0 0 88 (C1) n - 1
REM
REM in /home/nfs/bkarasulu/CARBON/AIRSS/Generating-Clusters/ReaxFF-fromJPCA2015/Units_Real/with-SteepDescent/Only-C1/SD-CG/Try1-3A/FIRE-CG
REM
REM
REM
REM
REM
REM ./C.cell (11c1c37f851c82e70ff6c80c92926a4b)
REM
REM compiler GCC version 9.2.1 20190827 (Red Hat 9.2.1-1)
REM options -cpp -mtune=generic -march=x86-64 -g -O0 -fpre-include=/usr/include/finclude/math-vector-fortran.h
REM seed -143855913 1647746617 1269180030 1009510443 622151073 23230629 -694615300 507180230 1010423391 -292387445 1753998488 1874838523 2088983487 -1314271923 -588487933 1696158224 779609907 1346429426 1735407295 -1390793745 424290094 1667620597 260722843 -138874289 -179920059 -338678395 -1988828645 761157085 -1749692880 -330704128 -1214505477 1692289155 937237501
REM
CELL 1.54180   50.00000   50.00000   50.00000   90.00000   90.00000   90.00000
LATT -1
SFAC C  
C      1  0.5272990000000  0.5176070000000  0.4782360000000 1.0
C      1  0.4802930000000  0.5119560000000  0.5775700000000 1.0
C      1  0.4696130000000  0.4487360000000  0.5421200000000 1.0
C      1  0.5089280000000  0.5215970000000  0.5709890000000 1.0
C      1  0.4972830000000  0.4298910000000  0.4658990000000 1.0
C      1  0.4229190000000  0.5209120000000  0.5324370000000 1.0
C      1  0.4393630000000  0.5251280000000  0.4774110000000 1.0
C      1  0.4231990000000  0.5453050000000  0.5495300000000 1.0
C      1  0.5026060000000  0.4728540000000  0.5809510000000 1.0
C      1  0.4271110000000  0.4839240000000  0.4572350000000 1.0
C      1  0.4910190000000  0.5461200000000  0.5228290000000 1.0
C      1  0.5700040000000  0.4458670000000  0.4686080000000 1.0
C      1  0.4717320000000  0.4285490000000  0.4488270000000 1.0
C      1  0.4944330000000  0.4772170000000  0.4087990000000 1.0
C      1  0.5402150000000  0.5479610000000  0.4429450000000 1.0
C      1  0.5139010000000  0.5890370000000  0.4973520000000 1.0
C      1  0.4677790000000  0.5150390000000  0.4335140000000 1.0
C      1  0.4141100000000  0.5108370000000  0.4880530000000 1.0
C      1  0.4339250000000  0.4580340000000  0.4688760000000 1.0
C      1  0.4866540000000  0.5240480000000  0.5033560000000 1.0
C      1  0.4138280000000  0.4922370000000  0.5354210000000 1.0
C      1  0.5551530000000  0.4517950000000  0.4928080000000 1.0
C      1  0.4034430000000  0.4982170000000  0.4647770000000 1.0
C      1  0.4909100000000  0.5842130000000  0.4779080000000 1.0
C      1  0.5165020000000  0.5377260000000  0.4289630000000 1.0
C      1  0.5244480000000  0.5835660000000  0.5252490000000 1.0
C      1  0.4674340000000  0.5585380000000  0.5295240000000 1.0
C      1  0.6140130000000  0.5120400000000  0.5457520000000 1.0
C      1  0.4599320000000  0.4863740000000  0.4938820000000 1.0
C      1  0.5182450000000  0.4932210000000  0.5661260000000 1.0
C      1  0.4987120000000  0.5216380000000  0.4767040000000 1.0
C      1  0.4564020000000  0.4673730000000  0.5618920000000 1.0
C      1  0.5781540000000  0.5031530000000  0.5096750000000 1.0
C      1  0.4884440000000  0.5068650000000  0.4530550000000 1.0
C      1  0.5382040000000  0.4083710000000  0.5152120000000 1.0
C      1  0.5909610000000  0.5181590000000  0.5349840000000 1.0
C      1  0.4915000000000  0.4113180000000  0.4927510000000 1.0
C      1  0.4504390000000  0.5491710000000  0.4634500000000 1.0
C      1  0.4514090000000  0.5001560000000  0.4698690000000 1.0
C      1  0.5441950000000  0.5656550000000  0.5132010000000 1.0
C      1  0.5320040000000  0.5716320000000  0.4572450000000 1.0
C      1  0.4987600000000  0.4443170000000  0.5444940000000 1.0
C      1  0.5780150000000  0.5197490000000  0.4678050000000 1.0
C      1  0.4734870000000  0.4270560000000  0.5056030000000 1.0
C      1  0.4392460000000  0.4647120000000  0.4978860000000 1.0
C      1  0.5087580000000  0.4714150000000  0.5019840000000 1.0
C      1  0.4295440000000  0.4760950000000  0.5552140000000 1.0
C      1  0.5379740000000  0.5767170000000  0.4861310000000 1.0
C      1  0.5138800000000  0.4474600000000  0.5699590000000 1.0
C      1  0.5516010000000  0.5107930000000  0.5154870000000 1.0
C      1  0.4934920000000  0.5551160000000  0.4349130000000 1.0
C      1  0.4688070000000  0.5044400000000  0.5147300000000 1.0
C      1  0.5140080000000  0.5419190000000  0.5443400000000 1.0
C      1  0.5311040000000  0.4958000000000  0.4964830000000 1.0
C      1  0.5163550000000  0.4517310000000  0.5227860000000 1.0
C      1  0.4554150000000  0.4674580000000  0.4225920000000 1.0
C      1  0.5661230000000  0.5307360000000  0.5494260000000 1.0
C      1  0.4422630000000  0.5680780000000  0.5356740000000 1.0
C      1  0.4690720000000  0.5671960000000  0.4737850000000 1.0
C      1  0.4678300000000  0.4916110000000  0.4137910000000 1.0
C      1  0.5400790000000  0.4589240000000  0.5706490000000 1.0
C      1  0.5431190000000  0.4685380000000  0.4331880000000 1.0
C      1  0.4176450000000  0.4877390000000  0.5073700000000 1.0
C      1  0.5572770000000  0.4825530000000  0.4542500000000 1.0
C      1  0.5036770000000  0.5769790000000  0.4517250000000 1.0
C      1  0.4515380000000  0.5163300000000  0.5361010000000 1.0
C      1  0.4558240000000  0.4430450000000  0.5170380000000 1.0
C      1  0.5463110000000  0.4855740000000  0.5656000000000 1.0
C      1  0.5564030000000  0.5153390000000  0.5728180000000 1.0
C      1  0.5246830000000  0.4257130000000  0.4507830000000 1.0
C      1  0.5493720000000  0.5280410000000  0.4629140000000 1.0
C      1  0.4992690000000  0.4588430000000  0.4798610000000 1.0
C      1  0.4756030000000  0.4836030000000  0.5789310000000 1.0
C      1  0.5353150000000  0.5265450000000  0.5887090000000 1.0
C      1  0.5116830000000  0.5091580000000  0.4340350000000 1.0
C      1  0.5464090000000  0.4764520000000  0.4814710000000 1.0
C      1  0.5159910000000  0.4055610000000  0.5052620000000 1.0
C      1  0.5882320000000  0.4961520000000  0.4820130000000 1.0
C      1  0.5121920000000  0.5709900000000  0.5508060000000 1.0
C      1  0.4664380000000  0.5438040000000  0.4378450000000 1.0
C      1  0.5450610000000  0.5376140000000  0.5292310000000 1.0
C      1  0.5470680000000  0.4420580000000  0.4465600000000 1.0
C      1  0.4585520000000  0.5254030000000  0.5635490000000 1.0
C      1  0.5413320000000  0.4368910000000  0.5152220000000 1.0
C      1  0.4343230000000  0.5399620000000  0.5763410000000 1.0
C      1  0.4503620000000  0.4477040000000  0.4460240000000 1.0
C      1  0.5829590000000  0.4720330000000  0.4639750000000 1.0
C      1  0.5208330000000  0.4840210000000  0.4206640000000 1.0
END
