TITL C-884140-4336-330 0.474663853050658 125000 -14339.0742271928 0 0 97 (C1) n - 1
REM
REM in /home/nfs/bkarasulu/CARBON/AIRSS/Generating-Clusters/ReaxFF-fromJPCA2015/Units_Real/with-SteepDescent/Only-C1/SD-CG/Try1-3A/FIRE-CG
REM
REM
REM
REM
REM
REM ./C.cell (11c1c37f851c82e70ff6c80c92926a4b)
REM
REM compiler GCC version 9.2.1 20190827 (Red Hat 9.2.1-1)
REM options -cpp -mtune=generic -march=x86-64 -g -O0 -fpre-include=/usr/include/finclude/math-vector-fortran.h
REM seed -2099196265 1673492750 -1286444255 -941644053 429161797 1498539517 -806642351 1021363954 -2136302133 -567584311 -557043380 755224946 1556253550 -1005422672 -216800695 37223399 135617669 806243516 -23743671 -20977492 1624175339 1969037532 -1008803762 709937296 1259791094 -1169642734 -1029336897 -71248890 -1157322919 1399107237 2049393844 1309592242 -1734495275
REM
CELL 1.54180   50.00000   50.00000   50.00000   90.00000   90.00000   90.00000
LATT -1
SFAC C  
C      1  0.5620330000000  0.4915390000000  0.4539030000000 1.0
C      1  0.5183380000000  0.4567200000000  0.4505100000000 1.0
C      1  0.4965170000000  0.5621760000000  0.4482250000000 1.0
C      1  0.5448450000000  0.5380160000000  0.4316560000000 1.0
C      1  0.5086040000000  0.4776430000000  0.5244310000000 1.0
C      1  0.4846620000000  0.4622040000000  0.5194640000000 1.0
C      1  0.5251220000000  0.5142110000000  0.5379250000000 1.0
C      1  0.4321190000000  0.5368920000000  0.4566250000000 1.0
C      1  0.5330500000000  0.4702470000000  0.5163050000000 1.0
C      1  0.4880900000000  0.4600560000000  0.4470060000000 1.0
C      1  0.4309100000000  0.5664130000000  0.4867660000000 1.0
C      1  0.5249180000000  0.4988130000000  0.5138750000000 1.0
C      1  0.4859070000000  0.4370240000000  0.5392060000000 1.0
C      1  0.5020170000000  0.5778510000000  0.4735610000000 1.0
C      1  0.4881020000000  0.4520430000000  0.5648560000000 1.0
C      1  0.4748200000000  0.5691160000000  0.5357800000000 1.0
C      1  0.4901610000000  0.5517530000000  0.5552610000000 1.0
C      1  0.4455090000000  0.4801840000000  0.5626960000000 1.0
C      1  0.4233260000000  0.4671370000000  0.4805900000000 1.0
C      1  0.5109200000000  0.5366670000000  0.5343860000000 1.0
C      1  0.5560060000000  0.5523450000000  0.5266810000000 1.0
C      1  0.5852430000000  0.4640660000000  0.4929650000000 1.0
C      1  0.5472030000000  0.5666420000000  0.5024180000000 1.0
C      1  0.4207910000000  0.5451120000000  0.5062590000000 1.0
C      1  0.5786500000000  0.5081050000000  0.4735360000000 1.0
C      1  0.5061720000000  0.4409650000000  0.4870420000000 1.0
C      1  0.4505200000000  0.4744450000000  0.4295750000000 1.0
C      1  0.5494550000000  0.5072790000000  0.4297120000000 1.0
C      1  0.5892640000000  0.4928170000000  0.4957870000000 1.0
C      1  0.5062670000000  0.5415220000000  0.5057620000000 1.0
C      1  0.5098240000000  0.5143090000000  0.4408880000000 1.0
C      1  0.4803700000000  0.4538700000000  0.4898410000000 1.0
C      1  0.5159630000000  0.5440540000000  0.4361680000000 1.0
C      1  0.4823790000000  0.5017590000000  0.4869240000000 1.0
C      1  0.5425760000000  0.4219430000000  0.5104120000000 1.0
C      1  0.5820670000000  0.5036340000000  0.5220340000000 1.0
C      1  0.4605270000000  0.5264180000000  0.5197990000000 1.0
C      1  0.4313750000000  0.5521750000000  0.5329680000000 1.0
C      1  0.5449940000000  0.5530510000000  0.5545500000000 1.0
C      1  0.4726520000000  0.5292050000000  0.5645600000000 1.0
C      1  0.5439670000000  0.4541390000000  0.5694340000000 1.0
C      1  0.4473430000000  0.5278280000000  0.5471480000000 1.0
C      1  0.4732780000000  0.4790220000000  0.5710040000000 1.0
C      1  0.4620430000000  0.4386020000000  0.4543240000000 1.0
C      1  0.4653410000000  0.5024150000000  0.5085880000000 1.0
C      1  0.4637720000000  0.5931600000000  0.4853700000000 1.0
C      1  0.4278260000000  0.4424670000000  0.4927400000000 1.0
C      1  0.5369240000000  0.5045690000000  0.5634260000000 1.0
C      1  0.5179660000000  0.4070220000000  0.5050690000000 1.0
C      1  0.5492130000000  0.5315630000000  0.5742140000000 1.0
C      1  0.4476460000000  0.4869370000000  0.4545540000000 1.0
C      1  0.5138650000000  0.4146220000000  0.4771690000000 1.0
C      1  0.5243440000000  0.4978150000000  0.4208860000000 1.0
C      1  0.4854350000000  0.5058460000000  0.5754590000000 1.0
C      1  0.4154220000000  0.4903100000000  0.4999080000000 1.0
C      1  0.4766990000000  0.5502690000000  0.5124620000000 1.0
C      1  0.4405890000000  0.5151670000000  0.4420170000000 1.0
C      1  0.4937050000000  0.4947130000000  0.4097310000000 1.0
C      1  0.5192110000000  0.5592130000000  0.5678880000000 1.0
C      1  0.5784470000000  0.4560400000000  0.5200010000000 1.0
C      1  0.4689340000000  0.5536300000000  0.4444770000000 1.0
C      1  0.5297720000000  0.4468190000000  0.5016960000000 1.0
C      1  0.4433530000000  0.5610280000000  0.4599560000000 1.0
C      1  0.5663150000000  0.4297910000000  0.5277370000000 1.0
C      1  0.4613720000000  0.4781050000000  0.5211960000000 1.0
C      1  0.4172920000000  0.5174490000000  0.5006530000000 1.0
C      1  0.5501670000000  0.4343060000000  0.5499390000000 1.0
C      1  0.5551760000000  0.4412570000000  0.4609410000000 1.0
C      1  0.5196850000000  0.5665730000000  0.4944010000000 1.0
C      1  0.5341460000000  0.4789470000000  0.4622310000000 1.0
C      1  0.4623300000000  0.5297090000000  0.4281280000000 1.0
C      1  0.5134660000000  0.5109710000000  0.5834250000000 1.0
C      1  0.4781170000000  0.4726780000000  0.4214080000000 1.0
C      1  0.5763340000000  0.5333370000000  0.4874340000000 1.0
C      1  0.5726600000000  0.4620470000000  0.4658930000000 1.0
C      1  0.5239070000000  0.5377930000000  0.5878340000000 1.0
C      1  0.4578250000000  0.4313200000000  0.4855600000000 1.0
C      1  0.4372730000000  0.4598090000000  0.4509750000000 1.0
C      1  0.5737740000000  0.5311340000000  0.5166600000000 1.0
C      1  0.4804400000000  0.5131390000000  0.4124650000000 1.0
C      1  0.4920500000000  0.4133280000000  0.5223350000000 1.0
C      1  0.5553850000000  0.4799990000000  0.5596280000000 1.0
C      1  0.5083200000000  0.5121870000000  0.4900960000000 1.0
C      1  0.4393000000000  0.4667620000000  0.5362360000000 1.0
C      1  0.5155170000000  0.4476690000000  0.5664900000000 1.0
C      1  0.5299020000000  0.4298820000000  0.4561340000000 1.0
C      1  0.5208260000000  0.5044100000000  0.4659140000000 1.0
C      1  0.4774670000000  0.5711120000000  0.4877610000000 1.0
C      1  0.4422080000000  0.5880970000000  0.5029120000000 1.0
C      1  0.5637890000000  0.5587060000000  0.4780720000000 1.0
C      1  0.4765960000000  0.4785230000000  0.4700500000000 1.0
C      1  0.4696440000000  0.4099600000000  0.5043160000000 1.0
C      1  0.4293810000000  0.5028290000000  0.5524470000000 1.0
C      1  0.4184390000000  0.4868490000000  0.5301380000000 1.0
C      1  0.4474120000000  0.5760520000000  0.5309520000000 1.0
C      1  0.5527260000000  0.5518030000000  0.4536960000000 1.0
C      1  0.5733950000000  0.4798530000000  0.5375200000000 1.0
END
