TITL C-883733-4178-19 1594692.19805845 125000 -30480.6066398659 0 0 200 (C1) n - 1
REM
REM in /home/nfs/bkarasulu/CARBON/AIRSS/Generating-Clusters/ReaxFF-fromJPCA2015/Units_Real/with-SteepDescent/Only-C1/SD-CG/Try1-3A/FIRE-CG
REM
REM
REM
REM
REM
REM ./C.cell (11c1c37f851c82e70ff6c80c92926a4b)
REM
REM compiler GCC version 9.2.1 20190827 (Red Hat 9.2.1-1)
REM options -cpp -mtune=generic -march=x86-64 -g -O0 -fpre-include=/usr/include/finclude/math-vector-fortran.h
REM seed -705035108 1291146442 2072000898 -810655440 -1728229626 1980485427 -1147766920 573912836 1534657367 -247496189 -1901345917 -1754398447 -517678179 978208331 -2036106331 639051945 199354975 -1683209810 2003394187 -1155767535 418623699 659621036 179286208 809084865 392500450 529664798 -1816188067 -741772502 -1120879143 -435596454 772793559 -1541072380 -312431702
REM
CELL 1.54180   50.00000   50.00000   50.00000   90.00000   90.00000   90.00000
LATT -1
SFAC C  
C      1  0.4283170000000  0.3995500000000  0.5060220000000 1.0
C      1  0.4037680000000  0.4340910000000  0.5413560000000 1.0
C      1  0.5351610000000  0.4787540000000  0.4641390000000 1.0
C      1  0.5061290000000  0.4534950000000  0.5712630000000 1.0
C      1  0.5231480000000  0.4857090000000  0.3765310000000 1.0
C      1  0.4947390000000  0.6120710000000  0.4849200000000 1.0
C      1  0.4984870000000  0.4561770000000  0.4520490000000 1.0
C      1  0.5996060000000  0.4824570000000  0.5489930000000 1.0
C      1  0.4914440000000  0.4792630000000  0.4358600000000 1.0
C      1  0.4135850000000  0.4281480000000  0.4692480000000 1.0
C      1  0.4707120000000  0.3927470000000  0.5359180000000 1.0
C      1  0.3994990000000  0.4771100000000  0.4813360000000 1.0
C      1  0.4090700000000  0.4834850000000  0.5361530000000 1.0
C      1  0.5360870000000  0.4719800000000  0.5351530000000 1.0
C      1  0.4835340000000  0.4999130000000  0.5525140000000 1.0
C      1  0.5176510000000  0.5190960000000  0.5183670000000 1.0
C      1  0.5655110000000  0.4237720000000  0.4732160000000 1.0
C      1  0.6174100000000  0.5185460000000  0.5177660000000 1.0
C      1  0.4901670000000  0.3902180000000  0.5102500000000 1.0
C      1  0.5025050000000  0.5049460000000  0.4443940000000 1.0
C      1  0.4368510000000  0.4496670000000  0.4167290000000 1.0
C      1  0.4727860000000  0.5992700000000  0.4670110000000 1.0
C      1  0.5208550000000  0.5392450000000  0.4752420000000 1.0
C      1  0.4979860000000  0.5144900000000  0.3992180000000 1.0
C      1  0.5707530000000  0.5109620000000  0.5929140000000 1.0
C      1  0.4706660000000  0.5531430000000  0.4056970000000 1.0
C      1  0.4772250000000  0.5371670000000  0.5045380000000 1.0
C      1  0.5206500000000  0.3886210000000  0.5161320000000 1.0
C      1  0.4067490000000  0.4596450000000  0.5538190000000 1.0
C      1  0.4834120000000  0.4382670000000  0.4105720000000 1.0
C      1  0.5211180000000  0.5313360000000  0.3923960000000 1.0
C      1  0.5973920000000  0.5691920000000  0.5098410000000 1.0
C      1  0.5100950000000  0.5635800000000  0.4678590000000 1.0
C      1  0.4964070000000  0.4208820000000  0.5024670000000 1.0
C      1  0.5393440000000  0.4395700000000  0.5999130000000 1.0
C      1  0.4973010000000  0.5013940000000  0.4764300000000 1.0
C      1  0.5276550000000  0.5448420000000  0.5251180000000 1.0
C      1  0.4673380000000  0.5563770000000  0.4889180000000 1.0
C      1  0.5545140000000  0.4999570000000  0.6125580000000 1.0
C      1  0.4881810000000  0.5580170000000  0.6002820000000 1.0
C      1  0.4923210000000  0.6082220000000  0.5127030000000 1.0
C      1  0.4829530000000  0.4003560000000  0.5591070000000 1.0
C      1  0.5349450000000  0.4293060000000  0.4160000000000 1.0
C      1  0.4571260000000  0.5245010000000  0.4343390000000 1.0
C      1  0.4590410000000  0.5059120000000  0.5384790000000 1.0
C      1  0.4779630000000  0.4645670000000  0.3972510000000 1.0
C      1  0.5140060000000  0.4369170000000  0.5222640000000 1.0
C      1  0.5499560000000  0.5844780000000  0.4459190000000 1.0
C      1  0.4474330000000  0.5471280000000  0.4738100000000 1.0
C      1  0.4730300000000  0.4891100000000  0.4816080000000 1.0
C      1  0.5476700000000  0.4716960000000  0.3859250000000 1.0
C      1  0.5737360000000  0.4128820000000  0.5197820000000 1.0
C      1  0.3972090000000  0.4410170000000  0.5136090000000 1.0
C      1  0.5685360000000  0.5318750000000  0.5715530000000 1.0
C      1  0.5236560000000  0.5399740000000  0.5878970000000 1.0
C      1  0.4404560000000  0.4752140000000  0.5005110000000 1.0
C      1  0.4499160000000  0.5382140000000  0.3920650000000 1.0
C      1  0.4560570000000  0.4525950000000  0.4920480000000 1.0
C      1  0.5329810000000  0.5987040000000  0.4257060000000 1.0
C      1  0.4094540000000  0.4202620000000  0.4966890000000 1.0
C      1  0.4664470000000  0.6063140000000  0.5219120000000 1.0
C      1  0.4731420000000  0.3869710000000  0.4838460000000 1.0
C      1  0.4164570000000  0.5627190000000  0.4432200000000 1.0
C      1  0.5265270000000  0.5002550000000  0.6166160000000 1.0
C      1  0.4469010000000  0.5525820000000  0.4444710000000 1.0
C      1  0.4481570000000  0.5239120000000  0.5912410000000 1.0
C      1  0.5811510000000  0.4281590000000  0.4970750000000 1.0
C      1  0.4051200000000  0.5304250000000  0.4908290000000 1.0
C      1  0.5095490000000  0.4652470000000  0.5178920000000 1.0
C      1  0.4024220000000  0.5697050000000  0.5116890000000 1.0
C      1  0.4010090000000  0.5416790000000  0.5195410000000 1.0
C      1  0.4730540000000  0.4627180000000  0.4690060000000 1.0
C      1  0.4851670000000  0.5733060000000  0.4765920000000 1.0
C      1  0.4504700000000  0.4223460000000  0.5921330000000 1.0
C      1  0.4262940000000  0.4168480000000  0.5479570000000 1.0
C      1  0.4386080000000  0.4875290000000  0.5264890000000 1.0
C      1  0.4379940000000  0.5186270000000  0.3921740000000 1.0
C      1  0.5530510000000  0.5543550000000  0.4283150000000 1.0
C      1  0.5394760000000  0.5767230000000  0.5615370000000 1.0
C      1  0.5770540000000  0.5776850000000  0.4863460000000 1.0
C      1  0.4840140000000  0.4718690000000  0.5636340000000 1.0
C      1  0.4699810000000  0.5142920000000  0.6083090000000 1.0
C      1  0.5442250000000  0.4150370000000  0.5829380000000 1.0
C      1  0.5537660000000  0.4811840000000  0.5143470000000 1.0
C      1  0.5013910000000  0.5261040000000  0.4936990000000 1.0
C      1  0.4290210000000  0.5569150000000  0.5595890000000 1.0
C      1  0.5361160000000  0.5004940000000  0.5024510000000 1.0
C      1  0.6119560000000  0.5260580000000  0.4761740000000 1.0
C      1  0.5689200000000  0.4708880000000  0.4269320000000 1.0
C      1  0.4281360000000  0.4561390000000  0.5702600000000 1.0
C      1  0.4902210000000  0.4113300000000  0.5838470000000 1.0
C      1  0.4682900000000  0.4337430000000  0.5088370000000 1.0
C      1  0.5088490000000  0.5089710000000  0.5441170000000 1.0
C      1  0.4224460000000  0.5888870000000  0.5223790000000 1.0
C      1  0.5453170000000  0.3993730000000  0.5230760000000 1.0
C      1  0.4156570000000  0.4626520000000  0.4341760000000 1.0
C      1  0.3990750000000  0.5055420000000  0.4732210000000 1.0
C      1  0.5468180000000  0.4505320000000  0.5566990000000 1.0
C      1  0.5039360000000  0.5997770000000  0.4220600000000 1.0
C      1  0.4776640000000  0.3957450000000  0.4566030000000 1.0
C      1  0.5967340000000  0.4548780000000  0.5381790000000 1.0
C      1  0.4791530000000  0.5938650000000  0.4362620000000 1.0
C      1  0.5787940000000  0.4276580000000  0.4469760000000 1.0
C      1  0.5131310000000  0.5945210000000  0.5283570000000 1.0
C      1  0.4439910000000  0.4344400000000  0.5613470000000 1.0
C      1  0.5571010000000  0.4217700000000  0.5559950000000 1.0
C      1  0.5308320000000  0.4989890000000  0.4429470000000 1.0
C      1  0.5743650000000  0.4890870000000  0.5486940000000 1.0
C      1  0.5123480000000  0.5912100000000  0.5585010000000 1.0
C      1  0.4635450000000  0.4762920000000  0.4425110000000 1.0
C      1  0.5172170000000  0.4085600000000  0.5811260000000 1.0
C      1  0.4980350000000  0.5458910000000  0.5759040000000 1.0
C      1  0.4079080000000  0.4555960000000  0.4611410000000 1.0
C      1  0.5669300000000  0.4997550000000  0.4221350000000 1.0
C      1  0.5825280000000  0.4295160000000  0.5434880000000 1.0
C      1  0.6217210000000  0.5036410000000  0.4921100000000 1.0
C      1  0.4620650000000  0.5955500000000  0.5482120000000 1.0
C      1  0.4196460000000  0.5809430000000  0.4673410000000 1.0
C      1  0.5216570000000  0.5819060000000  0.4049660000000 1.0
C      1  0.5442410000000  0.5948130000000  0.5152320000000 1.0
C      1  0.4651540000000  0.4422660000000  0.5364190000000 1.0
C      1  0.4119780000000  0.4894370000000  0.4245370000000 1.0
C      1  0.4032710000000  0.5636770000000  0.4836650000000 1.0
C      1  0.5687850000000  0.5274760000000  0.5132100000000 1.0
C      1  0.4497890000000  0.5007010000000  0.4475410000000 1.0
C      1  0.5593780000000  0.5120380000000  0.4897730000000 1.0
C      1  0.4145140000000  0.5083230000000  0.5551210000000 1.0
C      1  0.5504910000000  0.4552200000000  0.4096870000000 1.0
C      1  0.3973610000000  0.4694990000000  0.5089020000000 1.0
C      1  0.5221300000000  0.6094660000000  0.4765790000000 1.0
C      1  0.5173060000000  0.5269320000000  0.6131780000000 1.0
C      1  0.4661960000000  0.4675650000000  0.5935580000000 1.0
C      1  0.5125430000000  0.4530380000000  0.5996950000000 1.0
C      1  0.4333690000000  0.4077410000000  0.4606580000000 1.0
C      1  0.5685240000000  0.4825150000000  0.5956520000000 1.0
C      1  0.4678640000000  0.5725300000000  0.5863100000000 1.0
C      1  0.4420630000000  0.6019290000000  0.5048530000000 1.0
C      1  0.5516670000000  0.5208830000000  0.4406450000000 1.0
C      1  0.5296300000000  0.5826130000000  0.4666900000000 1.0
C      1  0.5341380000000  0.4975450000000  0.5501030000000 1.0
C      1  0.5811160000000  0.5501400000000  0.4242440000000 1.0
C      1  0.5378590000000  0.5116290000000  0.3787800000000 1.0
C      1  0.4445080000000  0.3912380000000  0.4829740000000 1.0
C      1  0.6032330000000  0.4670590000000  0.4629150000000 1.0
C      1  0.5510610000000  0.5710270000000  0.4977010000000 1.0
C      1  0.5062230000000  0.5629740000000  0.5294800000000 1.0
C      1  0.4395780000000  0.4763020000000  0.5849950000000 1.0
C      1  0.6095560000000  0.5343250000000  0.4497940000000 1.0
C      1  0.4133300000000  0.5353290000000  0.5451930000000 1.0
C      1  0.5659330000000  0.5985200000000  0.4699800000000 1.0
C      1  0.4737100000000  0.4371990000000  0.5985410000000 1.0
C      1  0.4692730000000  0.5328710000000  0.5324480000000 1.0
C      1  0.6036870000000  0.5439700000000  0.4272940000000 1.0
C      1  0.5769330000000  0.4778470000000  0.5020210000000 1.0
C      1  0.5599260000000  0.4981150000000  0.3936560000000 1.0
C      1  0.5062620000000  0.4245200000000  0.4226800000000 1.0
C      1  0.4489590000000  0.4693320000000  0.3997380000000 1.0
C      1  0.4642180000000  0.5720870000000  0.4269900000000 1.0
C      1  0.5549310000000  0.4591060000000  0.5855270000000 1.0
C      1  0.5849390000000  0.5642790000000  0.5390070000000 1.0
C      1  0.4316510000000  0.5036340000000  0.5783740000000 1.0
C      1  0.4003240000000  0.5101110000000  0.4439010000000 1.0
C      1  0.5072720000000  0.4794350000000  0.6123170000000 1.0
C      1  0.5951940000000  0.4557450000000  0.5065120000000 1.0
C      1  0.4413270000000  0.3987050000000  0.5317530000000 1.0
C      1  0.5022630000000  0.4101030000000  0.4490280000000 1.0
C      1  0.5590180000000  0.5130550000000  0.5443940000000 1.0
C      1  0.4838990000000  0.4621310000000  0.5357810000000 1.0
C      1  0.5182410000000  0.4832320000000  0.4877800000000 1.0
C      1  0.6066130000000  0.5148370000000  0.5443170000000 1.0
C      1  0.5258590000000  0.4538230000000  0.4586430000000 1.0
C      1  0.5362330000000  0.4325730000000  0.4731410000000 1.0
C      1  0.5464440000000  0.5531530000000  0.5765640000000 1.0
C      1  0.5920970000000  0.5389880000000  0.5533410000000 1.0
C      1  0.5899650000000  0.4558980000000  0.4418900000000 1.0
C      1  0.4826980000000  0.5288560000000  0.4202920000000 1.0
C      1  0.4897480000000  0.5339180000000  0.6162570000000 1.0
C      1  0.5196810000000  0.4386660000000  0.5508900000000 1.0
C      1  0.5324490000000  0.5549950000000  0.4064440000000 1.0
C      1  0.4456670000000  0.4994790000000  0.4793330000000 1.0
C      1  0.4062200000000  0.5374240000000  0.4419840000000 1.0
C      1  0.4547220000000  0.4089050000000  0.4420700000000 1.0
C      1  0.4426600000000  0.5967950000000  0.4770100000000 1.0
C      1  0.4298080000000  0.4926540000000  0.4016850000000 1.0
C      1  0.4801510000000  0.4873240000000  0.6089290000000 1.0
C      1  0.5982420000000  0.5371120000000  0.5034840000000 1.0
C      1  0.4352810000000  0.5825900000000  0.5472540000000 1.0
C      1  0.5120570000000  0.4173160000000  0.4750880000000 1.0
C      1  0.5478030000000  0.6106190000000  0.4897170000000 1.0
C      1  0.5559950000000  0.4209910000000  0.4324800000000 1.0
C      1  0.5471830000000  0.5286300000000  0.4691790000000 1.0
C      1  0.4469210000000  0.5515280000000  0.5812000000000 1.0
C      1  0.6144070000000  0.4754950000000  0.4855560000000 1.0
C      1  0.4888110000000  0.5487200000000  0.5480630000000 1.0
C      1  0.5523190000000  0.5503900000000  0.5157530000000 1.0
C      1  0.4331980000000  0.5253180000000  0.4857990000000 1.0
C      1  0.4835530000000  0.5886410000000  0.5664890000000 1.0
C      1  0.4574610000000  0.4296890000000  0.4216900000000 1.0
C      1  0.4970170000000  0.4863900000000  0.3901840000000 1.0
C      1  0.5601190000000  0.5802730000000  0.5406790000000 1.0
END
