TITL C-884128-4793-322 -10.1766553364045 125000 -7642.77933788549 0 0 52 (C1) n - 1
REM
REM in /home/nfs/bkarasulu/CARBON/AIRSS/Generating-Clusters/ReaxFF-fromJPCA2015/Units_Real/with-SteepDescent/Only-C1/SD-CG/Try1-3A/FIRE-CG
REM
REM
REM
REM
REM
REM ./C.cell (11c1c37f851c82e70ff6c80c92926a4b)
REM
REM compiler GCC version 9.2.1 20190827 (Red Hat 9.2.1-1)
REM options -cpp -mtune=generic -march=x86-64 -g -O0 -fpre-include=/usr/include/finclude/math-vector-fortran.h
REM seed -1103277580 612174121 -500236329 -1486833163 -24453812 -1673627445 -599821103 -532943934 -821318513 -1295097043 -932364012 363186876 -1987312113 -100904403 1433737128 -60255098 -133467216 -230718666 1841941869 -58692291 -1017356417 -1670463254 1442412952 704592899 1999502006 -1638391456 1178818200 -190333897 -1505554129 2014272359 1051910023 736043793 -684430917
REM
CELL 1.54180   50.00000   50.00000   50.00000   90.00000   90.00000   90.00000
LATT -1
SFAC C  
C      1  0.5383320000000  0.4717160000000  0.5628240000000 1.0
C      1  0.4442650000000  0.5171820000000  0.4687070000000 1.0
C      1  0.4871330000000  0.4478880000000  0.4777560000000 1.0
C      1  0.4468690000000  0.4953140000000  0.4486760000000 1.0
C      1  0.4884210000000  0.5108070000000  0.4876900000000 1.0
C      1  0.4899840000000  0.5750440000000  0.4817930000000 1.0
C      1  0.4483690000000  0.4419060000000  0.5039770000000 1.0
C      1  0.5558560000000  0.5114350000000  0.4625360000000 1.0
C      1  0.4744760000000  0.4719020000000  0.5520770000000 1.0
C      1  0.5752090000000  0.5155500000000  0.5115700000000 1.0
C      1  0.5466170000000  0.5309480000000  0.5455180000000 1.0
C      1  0.4934600000000  0.4914270000000  0.4255930000000 1.0
C      1  0.5470650000000  0.4625040000000  0.4698410000000 1.0
C      1  0.5032920000000  0.5177750000000  0.4632170000000 1.0
C      1  0.5053330000000  0.4347210000000  0.4618860000000 1.0
C      1  0.4928230000000  0.4643940000000  0.5018650000000 1.0
C      1  0.5504530000000  0.4567240000000  0.5253330000000 1.0
C      1  0.4576750000000  0.5541280000000  0.5098870000000 1.0
C      1  0.4666620000000  0.5246120000000  0.5655410000000 1.0
C      1  0.4679700000000  0.5068410000000  0.4302180000000 1.0
C      1  0.5062280000000  0.5660790000000  0.4589150000000 1.0
C      1  0.5334130000000  0.5465910000000  0.5011590000000 1.0
C      1  0.4847300000000  0.5421760000000  0.5548140000000 1.0
C      1  0.5321000000000  0.4372190000000  0.5390610000000 1.0
C      1  0.4639000000000  0.5609890000000  0.4816400000000 1.0
C      1  0.4492950000000  0.5258540000000  0.5165450000000 1.0
C      1  0.5435370000000  0.4875990000000  0.4529830000000 1.0
C      1  0.4982200000000  0.5411300000000  0.4458580000000 1.0
C      1  0.4541670000000  0.5430820000000  0.4600380000000 1.0
C      1  0.5298160000000  0.5483870000000  0.5294410000000 1.0
C      1  0.4549360000000  0.4473450000000  0.4756140000000 1.0
C      1  0.5477220000000  0.4692840000000  0.4986470000000 1.0
C      1  0.4592810000000  0.4954880000000  0.5593160000000 1.0
C      1  0.5263530000000  0.4446120000000  0.4633810000000 1.0
C      1  0.5573170000000  0.4784890000000  0.5439680000000 1.0
C      1  0.5219170000000  0.4490460000000  0.5658850000000 1.0
C      1  0.5047940000000  0.4914820000000  0.5023800000000 1.0
C      1  0.5193520000000  0.5656610000000  0.4850110000000 1.0
C      1  0.4469390000000  0.5164070000000  0.5438630000000 1.0
C      1  0.4711060000000  0.4568900000000  0.5220590000000 1.0
C      1  0.4985010000000  0.4645730000000  0.5630740000000 1.0
C      1  0.5655880000000  0.5086730000000  0.5374850000000 1.0
C      1  0.5493090000000  0.5196740000000  0.4925620000000 1.0
C      1  0.4592890000000  0.5111890000000  0.4932260000000 1.0
C      1  0.4821510000000  0.5642490000000  0.5196450000000 1.0
C      1  0.5335100000000  0.4946630000000  0.5012970000000 1.0
C      1  0.5145740000000  0.4966330000000  0.4458800000000 1.0
C      1  0.4828400000000  0.4299690000000  0.5218050000000 1.0
C      1  0.5013570000000  0.5587460000000  0.5399150000000 1.0
C      1  0.5071540000000  0.4290910000000  0.5295330000000 1.0
C      1  0.4494860000000  0.4706480000000  0.4613080000000 1.0
C      1  0.4708570000000  0.5352650000000  0.4371860000000 1.0
END
