TITL C-884142-5251-297 -2.37924248982576 125000 -29339.0823030641 0 0 195 (C1) n - 1
REM
REM in /home/nfs/bkarasulu/CARBON/AIRSS/Generating-Clusters/ReaxFF-fromJPCA2015/Units_Real/with-SteepDescent/Only-C1/SD-CG/Try1-3A/FIRE-CG
REM
REM
REM
REM
REM
REM ./C.cell (11c1c37f851c82e70ff6c80c92926a4b)
REM
REM compiler GCC version 9.2.1 20190827 (Red Hat 9.2.1-1)
REM options -cpp -mtune=generic -march=x86-64 -g -O0 -fpre-include=/usr/include/finclude/math-vector-fortran.h
REM seed -1729220497 1791649080 -1228822335 -477662728 -974774933 430875622 -28927896 -1323326180 2041481470 342592609 -1174824859 -1836107651 -1746625126 -1606150232 1118937116 911680647 -149370395 -1018078189 -804985887 -1574772083 -257324571 367981481 1070865799 -728355921 -966229844 2081194887 1576648405 689779229 -1344105383 914569898 -74389173 -1063460002 -293438299
REM
CELL 1.54180   50.00000   50.00000   50.00000   90.00000   90.00000   90.00000
LATT -1
SFAC C  
C      1  0.5645530000000  0.5811820000000  0.5548230000000 1.0
C      1  0.4877390000000  0.5035540000000  0.5509990000000 1.0
C      1  0.5907710000000  0.4973800000000  0.5466950000000 1.0
C      1  0.5253990000000  0.4338440000000  0.4190170000000 1.0
C      1  0.4554930000000  0.5064630000000  0.3902440000000 1.0
C      1  0.4322470000000  0.5130050000000  0.4545100000000 1.0
C      1  0.4137780000000  0.5169340000000  0.5015120000000 1.0
C      1  0.4789200000000  0.4462370000000  0.5214090000000 1.0
C      1  0.5284470000000  0.5769090000000  0.5340310000000 1.0
C      1  0.5256740000000  0.6010490000000  0.5170850000000 1.0
C      1  0.4051950000000  0.5032450000000  0.4458470000000 1.0
C      1  0.4697540000000  0.5264010000000  0.5500390000000 1.0
C      1  0.3950040000000  0.5521970000000  0.4711170000000 1.0
C      1  0.4747150000000  0.5489220000000  0.5738390000000 1.0
C      1  0.4434960000000  0.5381310000000  0.4465540000000 1.0
C      1  0.4212700000000  0.5565170000000  0.5548140000000 1.0
C      1  0.4653230000000  0.5090640000000  0.6032300000000 1.0
C      1  0.4730780000000  0.6016020000000  0.4591730000000 1.0
C      1  0.4343020000000  0.5521380000000  0.5794220000000 1.0
C      1  0.4273630000000  0.5764920000000  0.5080570000000 1.0
C      1  0.6015860000000  0.5441870000000  0.4899830000000 1.0
C      1  0.5395650000000  0.3947030000000  0.4737210000000 1.0
C      1  0.4989290000000  0.5605990000000  0.4048750000000 1.0
C      1  0.4483590000000  0.4810870000000  0.4041080000000 1.0
C      1  0.4330520000000  0.5819970000000  0.4551190000000 1.0
C      1  0.5414400000000  0.6008960000000  0.4933190000000 1.0
C      1  0.5131990000000  0.5882800000000  0.5711190000000 1.0
C      1  0.5528600000000  0.4257630000000  0.4309660000000 1.0
C      1  0.5943170000000  0.5539960000000  0.5358640000000 1.0
C      1  0.4585310000000  0.5880670000000  0.5182540000000 1.0
C      1  0.5562190000000  0.4085830000000  0.4937190000000 1.0
C      1  0.5579370000000  0.4747150000000  0.4618320000000 1.0
C      1  0.5681580000000  0.4901930000000  0.4069140000000 1.0
C      1  0.5139620000000  0.5513560000000  0.5360670000000 1.0
C      1  0.3818250000000  0.4897860000000  0.5227140000000 1.0
C      1  0.5520790000000  0.4718740000000  0.5462400000000 1.0
C      1  0.4928090000000  0.6094800000000  0.4789440000000 1.0
C      1  0.4356630000000  0.4581800000000  0.4985860000000 1.0
C      1  0.5111320000000  0.5030910000000  0.5353580000000 1.0
C      1  0.5020310000000  0.3958530000000  0.5034800000000 1.0
C      1  0.4183040000000  0.4366920000000  0.5098370000000 1.0
C      1  0.3922820000000  0.4348740000000  0.5346850000000 1.0
C      1  0.4306120000000  0.4439320000000  0.4450500000000 1.0
C      1  0.4638740000000  0.5492200000000  0.4639100000000 1.0
C      1  0.4678710000000  0.4499420000000  0.4941470000000 1.0
C      1  0.5270300000000  0.5043550000000  0.4429410000000 1.0
C      1  0.6064600000000  0.5341570000000  0.5171520000000 1.0
C      1  0.5029010000000  0.5311950000000  0.4998760000000 1.0
C      1  0.5580420000000  0.4588320000000  0.4870810000000 1.0
C      1  0.4270140000000  0.5106570000000  0.5708700000000 1.0
C      1  0.5432740000000  0.5433640000000  0.3954440000000 1.0
C      1  0.5767970000000  0.4436990000000  0.4323620000000 1.0
C      1  0.5429990000000  0.4773890000000  0.5059200000000 1.0
C      1  0.4473360000000  0.5755490000000  0.4291020000000 1.0
C      1  0.4611520000000  0.4472710000000  0.4472600000000 1.0
C      1  0.4097080000000  0.4344610000000  0.5558110000000 1.0
C      1  0.4811580000000  0.4574740000000  0.6070190000000 1.0
C      1  0.4340330000000  0.4341740000000  0.5684710000000 1.0
C      1  0.3936780000000  0.5309690000000  0.4513690000000 1.0
C      1  0.5256560000000  0.5206190000000  0.3901710000000 1.0
C      1  0.5073970000000  0.5594480000000  0.4488880000000 1.0
C      1  0.4653560000000  0.4750140000000  0.4485350000000 1.0
C      1  0.5782350000000  0.4723360000000  0.5551080000000 1.0
C      1  0.5087110000000  0.4054860000000  0.4748960000000 1.0
C      1  0.4804270000000  0.5400890000000  0.4141440000000 1.0
C      1  0.5790610000000  0.4914840000000  0.4527600000000 1.0
C      1  0.5599490000000  0.5570060000000  0.4153970000000 1.0
C      1  0.6020650000000  0.4514830000000  0.5075540000000 1.0
C      1  0.5180710000000  0.4451330000000  0.5905110000000 1.0
C      1  0.5236750000000  0.4832500000000  0.6212520000000 1.0
C      1  0.5346570000000  0.4578970000000  0.6109040000000 1.0
C      1  0.5349270000000  0.4851570000000  0.5652730000000 1.0
C      1  0.6061550000000  0.5041710000000  0.5242100000000 1.0
C      1  0.4784040000000  0.4780450000000  0.5611130000000 1.0
C      1  0.4727580000000  0.5893090000000  0.4327480000000 1.0
C      1  0.5203720000000  0.5120300000000  0.6143620000000 1.0
C      1  0.4256700000000  0.4220820000000  0.4318390000000 1.0
C      1  0.4800500000000  0.6081500000000  0.5046500000000 1.0
C      1  0.4991580000000  0.5586690000000  0.4957510000000 1.0
C      1  0.4927550000000  0.5213050000000  0.6075800000000 1.0
C      1  0.5503230000000  0.4314410000000  0.5711650000000 1.0
C      1  0.5531340000000  0.5360250000000  0.4727710000000 1.0
C      1  0.4352560000000  0.5261970000000  0.4953920000000 1.0
C      1  0.5287670000000  0.4121710000000  0.5666100000000 1.0
C      1  0.4175290000000  0.5724450000000  0.4784950000000 1.0
C      1  0.5108680000000  0.4711100000000  0.5759110000000 1.0
C      1  0.4769510000000  0.5647890000000  0.5125670000000 1.0
C      1  0.5711120000000  0.4760560000000  0.5835640000000 1.0
C      1  0.4258440000000  0.4965530000000  0.4169420000000 1.0
C      1  0.5236050000000  0.4584380000000  0.4039760000000 1.0
C      1  0.4777260000000  0.4098270000000  0.5481750000000 1.0
C      1  0.4917820000000  0.4333050000000  0.5926550000000 1.0
C      1  0.5827120000000  0.5402030000000  0.4224710000000 1.0
C      1  0.4984580000000  0.4170490000000  0.5682250000000 1.0
C      1  0.5668150000000  0.5600980000000  0.5752240000000 1.0
C      1  0.4327790000000  0.4635050000000  0.5743260000000 1.0
C      1  0.5482510000000  0.5227720000000  0.4471070000000 1.0
C      1  0.5714110000000  0.5180500000000  0.5524960000000 1.0
C      1  0.5450230000000  0.5608990000000  0.4824730000000 1.0
C      1  0.5324680000000  0.4772840000000  0.4508080000000 1.0
C      1  0.5498470000000  0.4705400000000  0.3968800000000 1.0
C      1  0.6103510000000  0.4931090000000  0.4811620000000 1.0
C      1  0.5757290000000  0.4622170000000  0.4096900000000 1.0
C      1  0.5713070000000  0.5113320000000  0.4299160000000 1.0
C      1  0.5870600000000  0.4295760000000  0.5221560000000 1.0
C      1  0.5177770000000  0.5482320000000  0.3881870000000 1.0
C      1  0.4938070000000  0.4036050000000  0.4478170000000 1.0
C      1  0.5032830000000  0.5114090000000  0.4567150000000 1.0
C      1  0.5175600000000  0.5648310000000  0.5881430000000 1.0
C      1  0.4727060000000  0.4632350000000  0.4056850000000 1.0
C      1  0.5842650000000  0.5429030000000  0.5609560000000 1.0
C      1  0.4641880000000  0.5894430000000  0.5486330000000 1.0
C      1  0.4521030000000  0.4134240000000  0.4259020000000 1.0
C      1  0.5175880000000  0.5144580000000  0.4824580000000 1.0
C      1  0.4792570000000  0.3993010000000  0.5203420000000 1.0
C      1  0.3915980000000  0.4480300000000  0.4955540000000 1.0
C      1  0.5869790000000  0.5696820000000  0.4814540000000 1.0
C      1  0.5175170000000  0.5684440000000  0.4745090000000 1.0
C      1  0.5377400000000  0.5924160000000  0.5566300000000 1.0
C      1  0.5204470000000  0.4086990000000  0.5194340000000 1.0
C      1  0.5226560000000  0.6023650000000  0.4701160000000 1.0
C      1  0.4425060000000  0.5242240000000  0.5916550000000 1.0
C      1  0.5550470000000  0.5023610000000  0.5795530000000 1.0
C      1  0.3891260000000  0.5346430000000  0.4940100000000 1.0
C      1  0.4610400000000  0.4789960000000  0.6058860000000 1.0
C      1  0.4891600000000  0.5373090000000  0.4463570000000 1.0
C      1  0.5056040000000  0.4533630000000  0.5291150000000 1.0
C      1  0.5474590000000  0.3974440000000  0.5473900000000 1.0
C      1  0.5665320000000  0.4087250000000  0.5219720000000 1.0
C      1  0.4545960000000  0.4002920000000  0.5048610000000 1.0
C      1  0.5876710000000  0.4455040000000  0.4834700000000 1.0
C      1  0.5430360000000  0.5505200000000  0.5902050000000 1.0
C      1  0.5112510000000  0.4600600000000  0.4611570000000 1.0
C      1  0.4363130000000  0.4148470000000  0.5217680000000 1.0
C      1  0.4989480000000  0.4741620000000  0.3998130000000 1.0
C      1  0.5172590000000  0.4351510000000  0.4750590000000 1.0
C      1  0.5561370000000  0.5241680000000  0.5261710000000 1.0
C      1  0.4479020000000  0.4796530000000  0.5182680000000 1.0
C      1  0.5804590000000  0.5789640000000  0.4547760000000 1.0
C      1  0.4563330000000  0.4780290000000  0.5797860000000 1.0
C      1  0.4910430000000  0.5982330000000  0.5524030000000 1.0
C      1  0.5203960000000  0.4782940000000  0.5232020000000 1.0
C      1  0.4049550000000  0.4848560000000  0.5399380000000 1.0
C      1  0.5753060000000  0.5742990000000  0.5291290000000 1.0
C      1  0.4666580000000  0.4647420000000  0.5371650000000 1.0
C      1  0.4339840000000  0.5207180000000  0.4043170000000 1.0
C      1  0.5633750000000  0.5786390000000  0.4989600000000 1.0
C      1  0.4708980000000  0.4924720000000  0.5036110000000 1.0
C      1  0.4944280000000  0.5474940000000  0.5951390000000 1.0
C      1  0.5001050000000  0.4219510000000  0.4262770000000 1.0
C      1  0.4734880000000  0.4352040000000  0.4177760000000 1.0
C      1  0.3978140000000  0.4808070000000  0.4683640000000 1.0
C      1  0.6043000000000  0.4776800000000  0.4566350000000 1.0
C      1  0.4480370000000  0.5465290000000  0.4185600000000 1.0
C      1  0.5499530000000  0.4448410000000  0.5444960000000 1.0
C      1  0.4804550000000  0.5174380000000  0.3973220000000 1.0
C      1  0.4233450000000  0.4662990000000  0.4691830000000 1.0
C      1  0.3834860000000  0.4759060000000  0.4932890000000 1.0
C      1  0.4773970000000  0.5200220000000  0.5055380000000 1.0
C      1  0.4987200000000  0.6103920000000  0.5263040000000 1.0
C      1  0.3802560000000  0.5168430000000  0.5302290000000 1.0
C      1  0.6106080000000  0.4808480000000  0.5074560000000 1.0
C      1  0.5479210000000  0.4091000000000  0.4522300000000 1.0
C      1  0.4854450000000  0.5477380000000  0.5340040000000 1.0
C      1  0.4567090000000  0.5714550000000  0.5714340000000 1.0
C      1  0.5546890000000  0.5789400000000  0.4359930000000 1.0
C      1  0.5269890000000  0.4354110000000  0.5291650000000 1.0
C      1  0.4106060000000  0.5613530000000  0.5301920000000 1.0
C      1  0.4665200000000  0.4322180000000  0.4719100000000 1.0
C      1  0.5008100000000  0.4785770000000  0.6037300000000 1.0
C      1  0.5412240000000  0.5009220000000  0.4908780000000 1.0
C      1  0.5918050000000  0.5573080000000  0.4425330000000 1.0
C      1  0.4575470000000  0.5788960000000  0.4700320000000 1.0
C      1  0.4426890000000  0.4873770000000  0.4590340000000 1.0
C      1  0.5326410000000  0.3854470000000  0.5269370000000 1.0
C      1  0.4557360000000  0.4065370000000  0.4755890000000 1.0
C      1  0.4276110000000  0.5007300000000  0.5279570000000 1.0
C      1  0.5430230000000  0.4337640000000  0.4852270000000 1.0
C      1  0.5422640000000  0.5226900000000  0.5986490000000 1.0
C      1  0.4652790000000  0.3983280000000  0.4487030000000 1.0
C      1  0.4491650000000  0.4183180000000  0.5480540000000 1.0
C      1  0.5281890000000  0.5265930000000  0.5329420000000 1.0
C      1  0.4411010000000  0.5168760000000  0.5470870000000 1.0
C      1  0.5570270000000  0.4521640000000  0.5927390000000 1.0
C      1  0.4133610000000  0.4842990000000  0.5676810000000 1.0
C      1  0.5302150000000  0.5926940000000  0.4413750000000 1.0
C      1  0.5635610000000  0.5200760000000  0.4970270000000 1.0
C      1  0.4896260000000  0.4812280000000  0.4605750000000 1.0
C      1  0.5945290000000  0.4498960000000  0.4554250000000 1.0
C      1  0.5031560000000  0.5785510000000  0.4277970000000 1.0
C      1  0.5939340000000  0.5176390000000  0.4812350000000 1.0
C      1  0.5035420000000  0.5030150000000  0.3947150000000 1.0
C      1  0.4839100000000  0.4741080000000  0.4877560000000 1.0
C      1  0.4584640000000  0.5354250000000  0.4895580000000 1.0
C      1  0.3865400000000  0.5436130000000  0.5220260000000 1.0
END
