TITL C-883735-9890-139 -7.97656991670419e-08 125000 -4402.97609466681 0 0 31 (C1) n - 1
REM
REM in /home/nfs/bkarasulu/CARBON/AIRSS/Generating-Clusters/ReaxFF-fromJPCA2015/Units_Real/with-SteepDescent/Only-C1/SD-CG/Try1-3A/FIRE-CG
REM
REM
REM
REM
REM
REM ./C.cell (11c1c37f851c82e70ff6c80c92926a4b)
REM
REM compiler GCC version 9.2.1 20190827 (Red Hat 9.2.1-1)
REM options -cpp -mtune=generic -march=x86-64 -g -O0 -fpre-include=/usr/include/finclude/math-vector-fortran.h
REM seed -927572153 2069423999 -2095210251 993732394 1624309324 1684735176 -402622873 -412348958 -1631150288 -1653029151 -1676553999 1100617461 942300366 313713699 2144919586 -554071267 -205446055 189149441 1687020588 -1101766979 2129393338 -1036045160 -467139057 1371051629 -621632769 -1493044322 -89098915 -1461989063 -2037989444 795103082 1958917895 1642798175 -225378762
REM
CELL 1.54180   50.00000   50.00000   50.00000   90.00000   90.00000   90.00000
LATT -1
SFAC C  
C      1  0.4670850000000  0.4969340000000  0.5191050000000 1.0
C      1  0.4594460000000  0.4776480000000  0.4967810000000 1.0
C      1  0.5535790000000  0.5359470000000  0.5079300000000 1.0
C      1  0.4554900000000  0.5207050000000  0.5528010000000 1.0
C      1  0.5444790000000  0.5563670000000  0.5243100000000 1.0
C      1  0.4511590000000  0.4846750000000  0.4688150000000 1.0
C      1  0.4726330000000  0.5527480000000  0.4852170000000 1.0
C      1  0.4924750000000  0.5409430000000  0.4643520000000 1.0
C      1  0.4744330000000  0.5435520000000  0.5124470000000 1.0
C      1  0.5587500000000  0.4469620000000  0.5025750000000 1.0
C      1  0.4887690000000  0.4554350000000  0.4614480000000 1.0
C      1  0.4913020000000  0.5135780000000  0.4517630000000 1.0
C      1  0.4872510000000  0.4774420000000  0.5568350000000 1.0
C      1  0.5117640000000  0.5148160000000  0.5333240000000 1.0
C      1  0.5374520000000  0.4723520000000  0.4778600000000 1.0
C      1  0.4548480000000  0.5450840000000  0.5363350000000 1.0
C      1  0.5370510000000  0.5306740000000  0.5329810000000 1.0
C      1  0.5126020000000  0.4893300000000  0.5479870000000 1.0
C      1  0.5157250000000  0.4680150000000  0.4581520000000 1.0
C      1  0.5429200000000  0.5283360000000  0.4802030000000 1.0
C      1  0.4885240000000  0.5172400000000  0.5165120000000 1.0
C      1  0.4664850000000  0.4989190000000  0.4492190000000 1.0
C      1  0.5383790000000  0.4609400000000  0.5067060000000 1.0
C      1  0.4634160000000  0.4918560000000  0.5474880000000 1.0
C      1  0.4774050000000  0.4589110000000  0.4869390000000 1.0
C      1  0.5183870000000  0.5381180000000  0.4731580000000 1.0
C      1  0.5158390000000  0.4968540000000  0.4513490000000 1.0
C      1  0.5203930000000  0.4641410000000  0.5343680000000 1.0
C      1  0.5396690000000  0.5009320000000  0.4686070000000 1.0
C      1  0.4656950000000  0.4706010000000  0.4496100000000 1.0
C      1  0.4965930000000  0.4499440000000  0.5448240000000 1.0
END
