TITL C-884134-5972-226 10.4103546814077 125000 -21133.2440242431 0 0 142 (C1) n - 1
REM
REM in /home/nfs/bkarasulu/CARBON/AIRSS/Generating-Clusters/ReaxFF-fromJPCA2015/Units_Real/with-SteepDescent/Only-C1/SD-CG/Try1-3A/FIRE-CG
REM
REM
REM
REM
REM
REM ./C.cell (11c1c37f851c82e70ff6c80c92926a4b)
REM
REM compiler GCC version 9.2.1 20190827 (Red Hat 9.2.1-1)
REM options -cpp -mtune=generic -march=x86-64 -g -O0 -fpre-include=/usr/include/finclude/math-vector-fortran.h
REM seed -1972463980 1937513859 -2086892019 19355425 -1342895817 1134868029 1347123627 -986937208 972455665 579192404 -1709368591 -2129372181 -2017988763 -1935899132 -1905168716 -1295117149 1638869866 -1902944142 852045489 -132263776 -789064598 -2015948097 141283913 547200217 -1531694979 2130539117 36629761 -1942831420 -1656422765 -1947914508 -1935356299 -1207890178 1624258585
REM
CELL 1.54180   50.00000   50.00000   50.00000   90.00000   90.00000   90.00000
LATT -1
SFAC C  
C      1  0.4432810000000  0.4950260000000  0.4834600000000 1.0
C      1  0.5136880000000  0.5213710000000  0.5958630000000 1.0
C      1  0.5231410000000  0.4686070000000  0.4162210000000 1.0
C      1  0.4746150000000  0.5064410000000  0.5887070000000 1.0
C      1  0.4926760000000  0.4429710000000  0.5933850000000 1.0
C      1  0.5221090000000  0.5231250000000  0.4504980000000 1.0
C      1  0.5418370000000  0.5569160000000  0.5073360000000 1.0
C      1  0.5716240000000  0.4922800000000  0.4958260000000 1.0
C      1  0.4892570000000  0.4002810000000  0.4965160000000 1.0
C      1  0.4119030000000  0.5484610000000  0.4917030000000 1.0
C      1  0.5400230000000  0.5910910000000  0.4735190000000 1.0
C      1  0.5421970000000  0.5535040000000  0.5584370000000 1.0
C      1  0.5141420000000  0.5887080000000  0.5136260000000 1.0
C      1  0.5417060000000  0.4039120000000  0.4966300000000 1.0
C      1  0.4355130000000  0.5648380000000  0.5450450000000 1.0
C      1  0.5130520000000  0.5684600000000  0.5597360000000 1.0
C      1  0.5442250000000  0.5227840000000  0.5674970000000 1.0
C      1  0.5080760000000  0.5002300000000  0.3936080000000 1.0
C      1  0.4698410000000  0.4771430000000  0.4688710000000 1.0
C      1  0.4494370000000  0.4502800000000  0.5711670000000 1.0
C      1  0.4415630000000  0.4781340000000  0.4241880000000 1.0
C      1  0.4762340000000  0.5356190000000  0.4360200000000 1.0
C      1  0.5161190000000  0.5221040000000  0.5315040000000 1.0
C      1  0.6037240000000  0.5462650000000  0.4785880000000 1.0
C      1  0.5214250000000  0.5152120000000  0.5021550000000 1.0
C      1  0.4958310000000  0.5063800000000  0.4957400000000 1.0
C      1  0.5843800000000  0.5196030000000  0.4327750000000 1.0
C      1  0.5638540000000  0.4532050000000  0.4323810000000 1.0
C      1  0.5539740000000  0.5011820000000  0.5494850000000 1.0
C      1  0.5119110000000  0.4836720000000  0.4399850000000 1.0
C      1  0.5892180000000  0.5412090000000  0.5484340000000 1.0
C      1  0.5151630000000  0.5914780000000  0.4587870000000 1.0
C      1  0.5642180000000  0.5515400000000  0.4468700000000 1.0
C      1  0.4664420000000  0.4557660000000  0.5939470000000 1.0
C      1  0.4915550000000  0.5501330000000  0.5661460000000 1.0
C      1  0.5016230000000  0.5876820000000  0.5408730000000 1.0
C      1  0.5357560000000  0.5060000000000  0.5892860000000 1.0
C      1  0.4303440000000  0.5387790000000  0.5545440000000 1.0
C      1  0.5372290000000  0.5365380000000  0.4095520000000 1.0
C      1  0.5760900000000  0.5755530000000  0.5173530000000 1.0
C      1  0.4205480000000  0.5128860000000  0.5543290000000 1.0
C      1  0.4395170000000  0.4897460000000  0.5583440000000 1.0
C      1  0.5813650000000  0.4681330000000  0.4828960000000 1.0
C      1  0.4124010000000  0.4998480000000  0.4850900000000 1.0
C      1  0.5744630000000  0.4641000000000  0.5589300000000 1.0
C      1  0.5460680000000  0.4282250000000  0.5674690000000 1.0
C      1  0.4941800000000  0.4291180000000  0.4954360000000 1.0
C      1  0.5416290000000  0.5428880000000  0.4594890000000 1.0
C      1  0.4489490000000  0.5124470000000  0.5209920000000 1.0
C      1  0.5629070000000  0.5379280000000  0.4224660000000 1.0
C      1  0.4824880000000  0.5090150000000  0.4003390000000 1.0
C      1  0.5416750000000  0.4045540000000  0.5251790000000 1.0
C      1  0.4553130000000  0.4357000000000  0.5333600000000 1.0
C      1  0.3986270000000  0.4963340000000  0.5107310000000 1.0
C      1  0.4891250000000  0.5360060000000  0.4121500000000 1.0
C      1  0.4673540000000  0.4921590000000  0.4202570000000 1.0
C      1  0.5299280000000  0.4747500000000  0.5831420000000 1.0
C      1  0.5376740000000  0.5426030000000  0.5315330000000 1.0
C      1  0.5878720000000  0.5384670000000  0.4552980000000 1.0
C      1  0.4662580000000  0.4488310000000  0.4583370000000 1.0
C      1  0.4212330000000  0.4320440000000  0.5078740000000 1.0
C      1  0.5843610000000  0.4901240000000  0.4329320000000 1.0
C      1  0.5612790000000  0.4541090000000  0.5312380000000 1.0
C      1  0.5063200000000  0.4666370000000  0.5994050000000 1.0
C      1  0.4842300000000  0.4774410000000  0.5205530000000 1.0
C      1  0.4502940000000  0.4512240000000  0.4327540000000 1.0
C      1  0.4810170000000  0.3978040000000  0.5374920000000 1.0
C      1  0.4799680000000  0.5489610000000  0.5152100000000 1.0
C      1  0.5134030000000  0.5521630000000  0.4167890000000 1.0
C      1  0.4353220000000  0.4422450000000  0.4555560000000 1.0
C      1  0.5698010000000  0.4741650000000  0.4123140000000 1.0
C      1  0.5317040000000  0.5426250000000  0.4864230000000 1.0
C      1  0.5340010000000  0.5103710000000  0.3947280000000 1.0
C      1  0.4570900000000  0.5534160000000  0.4309720000000 1.0
C      1  0.4749550000000  0.5927370000000  0.5263570000000 1.0
C      1  0.5351600000000  0.4467410000000  0.4309400000000 1.0
C      1  0.5047940000000  0.5746750000000  0.4343840000000 1.0
C      1  0.4224590000000  0.4877190000000  0.4440120000000 1.0
C      1  0.4761410000000  0.5766310000000  0.4374210000000 1.0
C      1  0.4598380000000  0.4632900000000  0.5238910000000 1.0
C      1  0.5440870000000  0.4824290000000  0.4004730000000 1.0
C      1  0.4655150000000  0.3952220000000  0.5129880000000 1.0
C      1  0.5973420000000  0.5620150000000  0.5028010000000 1.0
C      1  0.5136540000000  0.4062380000000  0.5379980000000 1.0
C      1  0.5507090000000  0.5843140000000  0.5010440000000 1.0
C      1  0.4701340000000  0.4191570000000  0.5527150000000 1.0
C      1  0.4918450000000  0.5365110000000  0.5399940000000 1.0
C      1  0.4909790000000  0.6006770000000  0.4748160000000 1.0
C      1  0.4020540000000  0.5170060000000  0.5312250000000 1.0
C      1  0.4813390000000  0.4813180000000  0.6023820000000 1.0
C      1  0.4903840000000  0.6048280000000  0.5040840000000 1.0
C      1  0.5055760000000  0.4489630000000  0.5444090000000 1.0
C      1  0.4685860000000  0.4966470000000  0.5614540000000 1.0
C      1  0.4968870000000  0.4312170000000  0.5675830000000 1.0
C      1  0.4097120000000  0.4527770000000  0.4881790000000 1.0
C      1  0.5415950000000  0.4780580000000  0.5376610000000 1.0
C      1  0.4921410000000  0.4925110000000  0.5440480000000 1.0
C      1  0.4889250000000  0.5327990000000  0.5909200000000 1.0
C      1  0.5069480000000  0.4009330000000  0.4571890000000 1.0
C      1  0.4467350000000  0.4182140000000  0.5112490000000 1.0
C      1  0.5527300000000  0.4557690000000  0.5765010000000 1.0
C      1  0.5072240000000  0.4332160000000  0.5211910000000 1.0
C      1  0.4300690000000  0.4618110000000  0.5540630000000 1.0
C      1  0.4784610000000  0.5262670000000  0.4900810000000 1.0
C      1  0.4256560000000  0.5641710000000  0.4551780000000 1.0
C      1  0.5162890000000  0.3923820000000  0.4836660000000 1.0
C      1  0.5552340000000  0.4253680000000  0.5400560000000 1.0
C      1  0.5796660000000  0.4683380000000  0.4525070000000 1.0
C      1  0.5346740000000  0.4472110000000  0.4763810000000 1.0
C      1  0.5004870000000  0.5651790000000  0.5012510000000 1.0
C      1  0.4163590000000  0.4631780000000  0.4612590000000 1.0
C      1  0.4927640000000  0.5347310000000  0.4601110000000 1.0
C      1  0.5409100000000  0.4941240000000  0.4892230000000 1.0
C      1  0.5897590000000  0.5090580000000  0.5116010000000 1.0
C      1  0.5547790000000  0.4290140000000  0.4880270000000 1.0
C      1  0.5948690000000  0.5125660000000  0.5405520000000 1.0
C      1  0.4442930000000  0.4842260000000  0.5117870000000 1.0
C      1  0.5073440000000  0.5554220000000  0.4766400000000 1.0
C      1  0.5210600000000  0.4388500000000  0.4544680000000 1.0
C      1  0.4957130000000  0.4304100000000  0.4648430000000 1.0
C      1  0.4137270000000  0.4499980000000  0.5301670000000 1.0
C      1  0.4004430000000  0.5444020000000  0.5189130000000 1.0
C      1  0.5206640000000  0.4146410000000  0.5651120000000 1.0
C      1  0.4064200000000  0.5253990000000  0.4730380000000 1.0
C      1  0.5168460000000  0.4740620000000  0.5510860000000 1.0
C      1  0.4510640000000  0.5233850000000  0.4917350000000 1.0
C      1  0.6054710000000  0.5328820000000  0.5043990000000 1.0
C      1  0.4939660000000  0.4790960000000  0.4916150000000 1.0
C      1  0.5311950000000  0.4971640000000  0.4575200000000 1.0
C      1  0.4824520000000  0.4876570000000  0.4442180000000 1.0
C      1  0.4177320000000  0.5169950000000  0.4472670000000 1.0
C      1  0.4678270000000  0.5906920000000  0.4610930000000 1.0
C      1  0.4059770000000  0.5680870000000  0.5369630000000 1.0
C      1  0.4552940000000  0.5705290000000  0.5220360000000 1.0
C      1  0.5708310000000  0.5629560000000  0.5441430000000 1.0
C      1  0.4290770000000  0.5431310000000  0.4368200000000 1.0
C      1  0.3980510000000  0.4668000000000  0.5120660000000 1.0
C      1  0.4424600000000  0.5786900000000  0.4728130000000 1.0
C      1  0.4401530000000  0.5578620000000  0.4941630000000 1.0
C      1  0.5236700000000  0.4702410000000  0.4896370000000 1.0
C      1  0.5810110000000  0.4924830000000  0.5575380000000 1.0
C      1  0.5714730000000  0.4483760000000  0.5017770000000 1.0
END
