TITL C-883733-4178-276 8.1842443960259 125000 -15018.4919036584 0 0 100 (C1) n - 1
REM
REM in /home/nfs/bkarasulu/CARBON/AIRSS/Generating-Clusters/ReaxFF-fromJPCA2015/Units_Real/with-SteepDescent/Only-C1/SD-CG/Try1-3A/FIRE-CG
REM
REM
REM
REM
REM
REM ./C.cell (11c1c37f851c82e70ff6c80c92926a4b)
REM
REM compiler GCC version 9.2.1 20190827 (Red Hat 9.2.1-1)
REM options -cpp -mtune=generic -march=x86-64 -g -O0 -fpre-include=/usr/include/finclude/math-vector-fortran.h
REM seed -996060800 -1448403499 -1147529253 -2138618073 -827371479 -387141006 -1191575640 1127470295 278239264 -36869616 1181440368 -1832007583 485294144 1560014628 312218182 411192897 -256095742 1843581737 -979085824 -1235166913 -382741078 -544445606 -1955099786 706525381 1150809311 -859887297 -227480211 -42713614 1285336934 -530778588 341761766 1445690140 1051520949
REM
CELL 1.54180   50.00000   50.00000   50.00000   90.00000   90.00000   90.00000
LATT -1
SFAC C  
C      1  0.5403910000000  0.5712530000000  0.5462850000000 1.0
C      1  0.4904610000000  0.5008680000000  0.4582860000000 1.0
C      1  0.4053400000000  0.4836100000000  0.5207050000000 1.0
C      1  0.4865870000000  0.4557450000000  0.5864930000000 1.0
C      1  0.4404070000000  0.5223170000000  0.5050990000000 1.0
C      1  0.5014390000000  0.5838930000000  0.5530740000000 1.0
C      1  0.4864670000000  0.5325110000000  0.5852430000000 1.0
C      1  0.5576060000000  0.5494210000000  0.5381100000000 1.0
C      1  0.4839340000000  0.5425340000000  0.5363090000000 1.0
C      1  0.4121150000000  0.4674480000000  0.4523570000000 1.0
C      1  0.4692620000000  0.5342210000000  0.5609850000000 1.0
C      1  0.5183800000000  0.4919590000000  0.4654870000000 1.0
C      1  0.5257240000000  0.5301930000000  0.4951620000000 1.0
C      1  0.5218250000000  0.4993640000000  0.5664440000000 1.0
C      1  0.5109600000000  0.4281750000000  0.5166370000000 1.0
C      1  0.5429140000000  0.5017150000000  0.4411450000000 1.0
C      1  0.4235100000000  0.4723710000000  0.5383030000000 1.0
C      1  0.4894980000000  0.5302220000000  0.4603200000000 1.0
C      1  0.5370260000000  0.5515260000000  0.4200860000000 1.0
C      1  0.4603280000000  0.4719690000000  0.4328170000000 1.0
C      1  0.4566800000000  0.4959070000000  0.5836890000000 1.0
C      1  0.5398580000000  0.5712570000000  0.4974990000000 1.0
C      1  0.4798490000000  0.5679580000000  0.5201050000000 1.0
C      1  0.5504530000000  0.4440150000000  0.4674480000000 1.0
C      1  0.4532170000000  0.4760490000000  0.4850790000000 1.0
C      1  0.5248160000000  0.4448180000000  0.5762210000000 1.0
C      1  0.5828600000000  0.5036940000000  0.5018900000000 1.0
C      1  0.4645120000000  0.4690980000000  0.5744190000000 1.0
C      1  0.4619600000000  0.4278620000000  0.4718120000000 1.0
C      1  0.5117260000000  0.5429750000000  0.4106250000000 1.0
C      1  0.5720580000000  0.4565380000000  0.4833430000000 1.0
C      1  0.4906440000000  0.4326070000000  0.5371190000000 1.0
C      1  0.4796410000000  0.5070720000000  0.5976920000000 1.0
C      1  0.4650180000000  0.4481540000000  0.4947900000000 1.0
C      1  0.4423540000000  0.5496180000000  0.4934780000000 1.0
C      1  0.4332350000000  0.4465260000000  0.5279900000000 1.0
C      1  0.4993760000000  0.4379250000000  0.5660420000000 1.0
C      1  0.5245770000000  0.5720580000000  0.4705280000000 1.0
C      1  0.4206680000000  0.4679210000000  0.4829510000000 1.0
C      1  0.4995940000000  0.5892160000000  0.5255600000000 1.0
C      1  0.4944950000000  0.4839670000000  0.5327200000000 1.0
C      1  0.4157950000000  0.5173920000000  0.4895900000000 1.0
C      1  0.4905710000000  0.4981150000000  0.5094820000000 1.0
C      1  0.5293230000000  0.5833770000000  0.5214260000000 1.0
C      1  0.4679640000000  0.5474860000000  0.4520830000000 1.0
C      1  0.4246200000000  0.5393630000000  0.4709730000000 1.0
C      1  0.4836320000000  0.5011490000000  0.4044440000000 1.0
C      1  0.5535110000000  0.5458050000000  0.5065550000000 1.0
C      1  0.5466750000000  0.5225620000000  0.4197760000000 1.0
C      1  0.4960620000000  0.5263040000000  0.4063680000000 1.0
C      1  0.5081960000000  0.5308400000000  0.5437710000000 1.0
C      1  0.5421850000000  0.5024810000000  0.3965630000000 1.0
C      1  0.4837190000000  0.4568500000000  0.4225230000000 1.0
C      1  0.5241910000000  0.4889180000000  0.5960360000000 1.0
C      1  0.5434990000000  0.5670580000000  0.4446650000000 1.0
C      1  0.4879370000000  0.4195390000000  0.4641180000000 1.0
C      1  0.4219140000000  0.4897740000000  0.4377680000000 1.0
C      1  0.5664230000000  0.4805040000000  0.5740500000000 1.0
C      1  0.4599390000000  0.4991500000000  0.5064620000000 1.0
C      1  0.4417170000000  0.5356420000000  0.4474380000000 1.0
C      1  0.4367630000000  0.5125510000000  0.4290090000000 1.0
C      1  0.5155260000000  0.5029710000000  0.4942450000000 1.0
C      1  0.5198410000000  0.5697900000000  0.5690680000000 1.0
C      1  0.4508360000000  0.5117070000000  0.5600270000000 1.0
C      1  0.5738230000000  0.5028960000000  0.5562620000000 1.0
C      1  0.4733120000000  0.5737320000000  0.4672380000000 1.0
C      1  0.5131570000000  0.5443830000000  0.5829220000000 1.0
C      1  0.4667650000000  0.4833890000000  0.4595540000000 1.0
C      1  0.4938210000000  0.4322520000000  0.4376270000000 1.0
C      1  0.4693520000000  0.4721040000000  0.5439810000000 1.0
C      1  0.4639550000000  0.5685570000000  0.4957110000000 1.0
C      1  0.5008520000000  0.4781150000000  0.4115450000000 1.0
C      1  0.4030630000000  0.4908620000000  0.4940710000000 1.0
C      1  0.5682390000000  0.5015000000000  0.4563950000000 1.0
C      1  0.5625450000000  0.5502570000000  0.4530550000000 1.0
C      1  0.4964460000000  0.4819830000000  0.6009000000000 1.0
C      1  0.4430620000000  0.4252420000000  0.4934320000000 1.0
C      1  0.4481320000000  0.4920290000000  0.5373300000000 1.0
C      1  0.5767700000000  0.5306790000000  0.4937060000000 1.0
C      1  0.5586740000000  0.5275730000000  0.5558370000000 1.0
C      1  0.5177980000000  0.4453910000000  0.4422820000000 1.0
C      1  0.5790600000000  0.4666710000000  0.5230350000000 1.0
C      1  0.4220460000000  0.4433270000000  0.5014120000000 1.0
C      1  0.5076640000000  0.4175730000000  0.4866290000000 1.0
C      1  0.5656180000000  0.4455950000000  0.5102540000000 1.0
C      1  0.5296670000000  0.4841290000000  0.4158960000000 1.0
C      1  0.5369970000000  0.4411790000000  0.5206530000000 1.0
C      1  0.5291860000000  0.4638500000000  0.4583910000000 1.0
C      1  0.5375930000000  0.4621670000000  0.5412350000000 1.0
C      1  0.5761070000000  0.4854040000000  0.4789820000000 1.0
C      1  0.4647800000000  0.4440260000000  0.5269800000000 1.0
C      1  0.5190650000000  0.4826110000000  0.5445930000000 1.0
C      1  0.5501110000000  0.4560340000000  0.5683370000000 1.0
C      1  0.5266780000000  0.5264590000000  0.5633600000000 1.0
C      1  0.5334880000000  0.4257070000000  0.4820770000000 1.0
C      1  0.4565340000000  0.4956020000000  0.4152560000000 1.0
C      1  0.4980850000000  0.5879910000000  0.4648320000000 1.0
C      1  0.5117450000000  0.5430120000000  0.4755580000000 1.0
C      1  0.5858090000000  0.4924270000000  0.5294710000000 1.0
C      1  0.5773940000000  0.5294170000000  0.4644170000000 1.0
END
