TITL C-884142-5251-246 147.036386984545 125000 -26285.9676183661 0 0 181 (C1) n - 1
REM
REM in /home/nfs/bkarasulu/CARBON/AIRSS/Generating-Clusters/ReaxFF-fromJPCA2015/Units_Real/with-SteepDescent/Only-C1/SD-CG/Try1-3A/FIRE-CG
REM
REM
REM
REM
REM
REM ./C.cell (11c1c37f851c82e70ff6c80c92926a4b)
REM
REM compiler GCC version 9.2.1 20190827 (Red Hat 9.2.1-1)
REM options -cpp -mtune=generic -march=x86-64 -g -O0 -fpre-include=/usr/include/finclude/math-vector-fortran.h
REM seed 667650558 -866697165 893869559 1141551662 -1345252631 -1328251037 1461589274 -682065584 1933115880 2039018807 454465076 -1014915055 -1005308581 383830871 -338217437 1935714581 -523965908 820626301 1404728519 -1281137916 1436869799 -1762927526 -2073832018 -344545985 1890636063 867492430 -1959690981 910258487 -1930563811 240291834 1465913519 259566662 447816952
REM
CELL 1.54180   50.00000   50.00000   50.00000   90.00000   90.00000   90.00000
LATT -1
SFAC C  
C      1  0.4593950000000  0.6046480000000  0.4528320000000 1.0
C      1  0.4797030000000  0.6120680000000  0.5032990000000 1.0
C      1  0.5261330000000  0.4845960000000  0.4485520000000 1.0
C      1  0.4398690000000  0.5757640000000  0.5730310000000 1.0
C      1  0.5216470000000  0.5581490000000  0.4999220000000 1.0
C      1  0.5042280000000  0.4854730000000  0.4882490000000 1.0
C      1  0.4612010000000  0.5253080000000  0.5299160000000 1.0
C      1  0.5381590000000  0.4102720000000  0.4245440000000 1.0
C      1  0.4695500000000  0.4509040000000  0.4664940000000 1.0
C      1  0.5982030000000  0.5175970000000  0.5445310000000 1.0
C      1  0.6036630000000  0.5386030000000  0.4752420000000 1.0
C      1  0.4500840000000  0.5292030000000  0.5932700000000 1.0
C      1  0.5996930000000  0.5428620000000  0.5378830000000 1.0
C      1  0.5955010000000  0.4938350000000  0.4764800000000 1.0
C      1  0.5557720000000  0.5582670000000  0.4273250000000 1.0
C      1  0.4415260000000  0.5463120000000  0.4310240000000 1.0
C      1  0.4803410000000  0.5312530000000  0.5870940000000 1.0
C      1  0.5335130000000  0.5463700000000  0.4752210000000 1.0
C      1  0.4486730000000  0.4208200000000  0.5082330000000 1.0
C      1  0.5556420000000  0.4277010000000  0.5274510000000 1.0
C      1  0.5029990000000  0.5119350000000  0.4951730000000 1.0
C      1  0.4975320000000  0.4597850000000  0.5619410000000 1.0
C      1  0.5372010000000  0.5138820000000  0.3983330000000 1.0
C      1  0.4328400000000  0.4306240000000  0.4336420000000 1.0
C      1  0.4570140000000  0.5019940000000  0.4169940000000 1.0
C      1  0.5870650000000  0.5637380000000  0.5512910000000 1.0
C      1  0.5287940000000  0.4751880000000  0.4271480000000 1.0
C      1  0.5292980000000  0.3959240000000  0.4997700000000 1.0
C      1  0.5963640000000  0.5286560000000  0.4485470000000 1.0
C      1  0.5086550000000  0.5229160000000  0.5474740000000 1.0
C      1  0.4947920000000  0.3797200000000  0.5260160000000 1.0
C      1  0.4797820000000  0.4366350000000  0.5528400000000 1.0
C      1  0.4189710000000  0.5623270000000  0.5065350000000 1.0
C      1  0.4587330000000  0.5777970000000  0.4649720000000 1.0
C      1  0.4372460000000  0.4124130000000  0.5590620000000 1.0
C      1  0.4745100000000  0.5665970000000  0.5011930000000 1.0
C      1  0.5426000000000  0.4038360000000  0.5258100000000 1.0
C      1  0.5132400000000  0.4717400000000  0.3903230000000 1.0
C      1  0.4857270000000  0.5421650000000  0.4583430000000 1.0
C      1  0.5754660000000  0.5129610000000  0.5632250000000 1.0
C      1  0.5064030000000  0.4422630000000  0.4493270000000 1.0
C      1  0.4330160000000  0.5198920000000  0.4285490000000 1.0
C      1  0.4103000000000  0.4470330000000  0.4386450000000 1.0
C      1  0.5437070000000  0.4892040000000  0.4958600000000 1.0
C      1  0.5028220000000  0.3857000000000  0.4984490000000 1.0
C      1  0.5392880000000  0.5770180000000  0.5645520000000 1.0
C      1  0.5041240000000  0.5318130000000  0.4386080000000 1.0
C      1  0.4381960000000  0.5132050000000  0.5287310000000 1.0
C      1  0.5592700000000  0.4747320000000  0.4543700000000 1.0
C      1  0.5074950000000  0.6103560000000  0.4984310000000 1.0
C      1  0.4810660000000  0.5265000000000  0.4817920000000 1.0
C      1  0.4708760000000  0.5249040000000  0.4017480000000 1.0
C      1  0.4785110000000  0.4593760000000  0.6167560000000 1.0
C      1  0.5868250000000  0.4347870000000  0.4888810000000 1.0
C      1  0.5245710000000  0.4907040000000  0.5940540000000 1.0
C      1  0.5432700000000  0.5146130000000  0.5991640000000 1.0
C      1  0.4093910000000  0.4428980000000  0.5580260000000 1.0
C      1  0.4418480000000  0.5028520000000  0.5919730000000 1.0
C      1  0.4505020000000  0.6091520000000  0.5001190000000 1.0
C      1  0.5353270000000  0.5168570000000  0.5351470000000 1.0
C      1  0.5616000000000  0.4436130000000  0.4485930000000 1.0
C      1  0.4365010000000  0.6127480000000  0.4720690000000 1.0
C      1  0.4898800000000  0.4747760000000  0.5385510000000 1.0
C      1  0.4917420000000  0.3886220000000  0.5466780000000 1.0
C      1  0.5444280000000  0.4011580000000  0.5542650000000 1.0
C      1  0.6115840000000  0.4488860000000  0.4831550000000 1.0
C      1  0.4853280000000  0.4134070000000  0.4294250000000 1.0
C      1  0.4900200000000  0.5676510000000  0.4148770000000 1.0
C      1  0.6149530000000  0.4747160000000  0.4850470000000 1.0
C      1  0.4979440000000  0.5520910000000  0.5828070000000 1.0
C      1  0.5799390000000  0.4825180000000  0.4346410000000 1.0
C      1  0.4436380000000  0.4923340000000  0.4801940000000 1.0
C      1  0.4069420000000  0.5230300000000  0.4756100000000 1.0
C      1  0.3972250000000  0.5073250000000  0.4978410000000 1.0
C      1  0.4488960000000  0.4171650000000  0.4561610000000 1.0
C      1  0.4822380000000  0.6134450000000  0.4352230000000 1.0
C      1  0.5382620000000  0.4108190000000  0.4753170000000 1.0
C      1  0.4863000000000  0.4693020000000  0.4778830000000 1.0
C      1  0.5019480000000  0.4856000000000  0.5766900000000 1.0
C      1  0.4078260000000  0.5463790000000  0.5312590000000 1.0
C      1  0.5656050000000  0.4860240000000  0.4787990000000 1.0
C      1  0.4548930000000  0.4914710000000  0.6108180000000 1.0
C      1  0.4899110000000  0.4121090000000  0.5647240000000 1.0
C      1  0.6037440000000  0.5061870000000  0.5198580000000 1.0
C      1  0.4917010000000  0.4432670000000  0.6030800000000 1.0
C      1  0.4993330000000  0.4383770000000  0.4219240000000 1.0
C      1  0.5575690000000  0.5316400000000  0.4703070000000 1.0
C      1  0.5927470000000  0.4673970000000  0.5483910000000 1.0
C      1  0.4049050000000  0.5164720000000  0.5259580000000 1.0
C      1  0.4906550000000  0.5909100000000  0.5687640000000 1.0
C      1  0.5123510000000  0.4470510000000  0.5013410000000 1.0
C      1  0.4697530000000  0.4296870000000  0.4459130000000 1.0
C      1  0.5428770000000  0.5664480000000  0.5182230000000 1.0
C      1  0.5853780000000  0.5599010000000  0.4838880000000 1.0
C      1  0.5612260000000  0.5587990000000  0.5693170000000 1.0
C      1  0.5795040000000  0.4615050000000  0.5719820000000 1.0
C      1  0.4716060000000  0.5801560000000  0.5274660000000 1.0
C      1  0.4653320000000  0.5507730000000  0.4145120000000 1.0
C      1  0.5159210000000  0.4349310000000  0.4751600000000 1.0
C      1  0.4325490000000  0.5632820000000  0.4574930000000 1.0
C      1  0.5534160000000  0.4996520000000  0.5513970000000 1.0
C      1  0.4664330000000  0.5767060000000  0.5736110000000 1.0
C      1  0.4108960000000  0.5115180000000  0.4469330000000 1.0
C      1  0.5152090000000  0.5009940000000  0.3859170000000 1.0
C      1  0.4436380000000  0.4464720000000  0.5988980000000 1.0
C      1  0.5254650000000  0.5408750000000  0.4507310000000 1.0
C      1  0.5006930000000  0.5903320000000  0.4311520000000 1.0
C      1  0.4892720000000  0.5980240000000  0.5403430000000 1.0
C      1  0.5338730000000  0.4654050000000  0.5082130000000 1.0
C      1  0.4835810000000  0.3950690000000  0.4771990000000 1.0
C      1  0.5682680000000  0.5387540000000  0.4962960000000 1.0
C      1  0.4621550000000  0.4708370000000  0.4071910000000 1.0
C      1  0.4618210000000  0.4795650000000  0.5470120000000 1.0
C      1  0.4191140000000  0.5483060000000  0.4809910000000 1.0
C      1  0.3959560000000  0.4602180000000  0.4590630000000 1.0
C      1  0.5603180000000  0.5840180000000  0.5064940000000 1.0
C      1  0.4883100000000  0.5349110000000  0.5313390000000 1.0
C      1  0.5988180000000  0.5002230000000  0.4468100000000 1.0
C      1  0.5427640000000  0.4630780000000  0.4053010000000 1.0
C      1  0.4970080000000  0.5132040000000  0.5706900000000 1.0
C      1  0.4836250000000  0.5664440000000  0.4731960000000 1.0
C      1  0.5718350000000  0.5822520000000  0.4677040000000 1.0
C      1  0.4453660000000  0.4529990000000  0.4187530000000 1.0
C      1  0.5596430000000  0.5128100000000  0.4138810000000 1.0
C      1  0.5472310000000  0.4733420000000  0.5960300000000 1.0
C      1  0.4405650000000  0.4824890000000  0.5263630000000 1.0
C      1  0.6003430000000  0.4752350000000  0.5233390000000 1.0
C      1  0.5131420000000  0.6042900000000  0.5268530000000 1.0
C      1  0.4896460000000  0.4545630000000  0.5166180000000 1.0
C      1  0.5602410000000  0.5315330000000  0.5787710000000 1.0
C      1  0.3938020000000  0.4937070000000  0.5440310000000 1.0
C      1  0.4532270000000  0.4657190000000  0.6181460000000 1.0
C      1  0.5544750000000  0.5399420000000  0.5219040000000 1.0
C      1  0.5023460000000  0.5025990000000  0.4435300000000 1.0
C      1  0.4509470000000  0.4778460000000  0.5014360000000 1.0
C      1  0.4008160000000  0.4550920000000  0.4903570000000 1.0
C      1  0.4081110000000  0.4728160000000  0.5310040000000 1.0
C      1  0.4702270000000  0.4349020000000  0.5247440000000 1.0
C      1  0.4900730000000  0.4602220000000  0.4028030000000 1.0
C      1  0.4967140000000  0.5534180000000  0.5116160000000 1.0
C      1  0.5657660000000  0.4258190000000  0.4703920000000 1.0
C      1  0.3936930000000  0.4793180000000  0.5043950000000 1.0
C      1  0.5258870000000  0.3986240000000  0.4491540000000 1.0
C      1  0.5603640000000  0.4960720000000  0.6142820000000 1.0
C      1  0.5678450000000  0.5323250000000  0.4406130000000 1.0
C      1  0.4624640000000  0.5095450000000  0.4669450000000 1.0
C      1  0.4153030000000  0.4350660000000  0.5051170000000 1.0
C      1  0.5634160000000  0.4394410000000  0.5827570000000 1.0
C      1  0.5017370000000  0.4266290000000  0.5860170000000 1.0
C      1  0.5357000000000  0.5884380000000  0.5381130000000 1.0
C      1  0.4328930000000  0.4074330000000  0.5315320000000 1.0
C      1  0.5549910000000  0.6001540000000  0.4840540000000 1.0
C      1  0.5339430000000  0.5532490000000  0.4114400000000 1.0
C      1  0.4169190000000  0.5460780000000  0.5570840000000 1.0
C      1  0.4970330000000  0.3963670000000  0.4509920000000 1.0
C      1  0.5091060000000  0.5513630000000  0.3991560000000 1.0
C      1  0.4532700000000  0.4895790000000  0.5700950000000 1.0
C      1  0.5537450000000  0.4760210000000  0.5673520000000 1.0
C      1  0.5557660000000  0.4513800000000  0.5194000000000 1.0
C      1  0.4576140000000  0.4074950000000  0.4820100000000 1.0
C      1  0.5303500000000  0.5117320000000  0.5056260000000 1.0
C      1  0.5254760000000  0.5927870000000  0.4496840000000 1.0
C      1  0.5532580000000  0.4177400000000  0.5715010000000 1.0
C      1  0.6069880000000  0.5141920000000  0.4928130000000 1.0
C      1  0.5520640000000  0.5807370000000  0.4458570000000 1.0
C      1  0.5270910000000  0.6048800000000  0.4754510000000 1.0
C      1  0.4545400000000  0.5702630000000  0.5481500000000 1.0
C      1  0.4970030000000  0.5244910000000  0.3900800000000 1.0
C      1  0.4334920000000  0.5867140000000  0.5048130000000 1.0
C      1  0.4455660000000  0.4633840000000  0.4784060000000 1.0
C      1  0.4096760000000  0.4269400000000  0.5321410000000 1.0
C      1  0.4304840000000  0.5486380000000  0.5814430000000 1.0
C      1  0.5135300000000  0.5753180000000  0.5798580000000 1.0
C      1  0.3994240000000  0.4698050000000  0.5584280000000 1.0
C      1  0.4735200000000  0.4982890000000  0.4426040000000 1.0
C      1  0.4289110000000  0.4314660000000  0.5778950000000 1.0
C      1  0.4193230000000  0.5926870000000  0.4605350000000 1.0
C      1  0.4030990000000  0.4853650000000  0.4486980000000 1.0
C      1  0.5659860000000  0.4852810000000  0.4095830000000 1.0
C      1  0.5800260000000  0.4546450000000  0.5094350000000 1.0
C      1  0.5504660000000  0.4371990000000  0.4228250000000 1.0
END
