TITL C-883741-3679-298 226.574553991161 125000 -28707.5915231426 0 0 196 (C1) n - 1
REM
REM in /home/nfs/bkarasulu/CARBON/AIRSS/Generating-Clusters/ReaxFF-fromJPCA2015/Units_Real/with-SteepDescent/Only-C1/SD-CG/Try1-3A/FIRE-CG
REM
REM
REM
REM
REM
REM ./C.cell (11c1c37f851c82e70ff6c80c92926a4b)
REM
REM compiler GCC version 9.2.1 20190827 (Red Hat 9.2.1-1)
REM options -cpp -mtune=generic -march=x86-64 -g -O0 -fpre-include=/usr/include/finclude/math-vector-fortran.h
REM seed 566957161 489966669 1572377266 -1865147306 -1617386053 1313116418 264700045 207400672 -1987022435 -314237689 1146877524 -1998172362 2142718515 -1632386274 -1139619930 -20804539 -946293792 -974564906 615020434 -1530883848 1886742255 1908303758 979570008 -789841700 -1646419457 43252050 1530262195 -2126831109 -1628494472 2081065121 1022631538 183086484 974789643
REM
CELL 1.54180   50.00000   50.00000   50.00000   90.00000   90.00000   90.00000
LATT -1
SFAC C  
C      1  0.5149600000000  0.5594710000000  0.5403690000000 1.0
C      1  0.4826220000000  0.5380740000000  0.4222120000000 1.0
C      1  0.5169570000000  0.5560700000000  0.5882140000000 1.0
C      1  0.4894870000000  0.5780360000000  0.5833800000000 1.0
C      1  0.5218040000000  0.4531800000000  0.6000140000000 1.0
C      1  0.5536890000000  0.4701100000000  0.5393340000000 1.0
C      1  0.4285650000000  0.5913560000000  0.4453400000000 1.0
C      1  0.5918960000000  0.5452820000000  0.4611200000000 1.0
C      1  0.5615790000000  0.5195390000000  0.5331840000000 1.0
C      1  0.5545830000000  0.4925860000000  0.5229200000000 1.0
C      1  0.4656420000000  0.4139910000000  0.5594670000000 1.0
C      1  0.4313100000000  0.4150950000000  0.5063070000000 1.0
C      1  0.5152090000000  0.6158170000000  0.5067330000000 1.0
C      1  0.5090510000000  0.4600640000000  0.5534790000000 1.0
C      1  0.5106430000000  0.5875090000000  0.5403610000000 1.0
C      1  0.4276590000000  0.5226720000000  0.5814190000000 1.0
C      1  0.4580230000000  0.4930720000000  0.3869870000000 1.0
C      1  0.3972320000000  0.5549630000000  0.5505740000000 1.0
C      1  0.5474280000000  0.4999610000000  0.4441660000000 1.0
C      1  0.3872240000000  0.5298250000000  0.5421820000000 1.0
C      1  0.5664600000000  0.4143730000000  0.4863980000000 1.0
C      1  0.6031980000000  0.4559510000000  0.4926500000000 1.0
C      1  0.5185580000000  0.5690450000000  0.4015810000000 1.0
C      1  0.5460330000000  0.4774380000000  0.4797060000000 1.0
C      1  0.4136030000000  0.5788300000000  0.5391170000000 1.0
C      1  0.4218550000000  0.5122780000000  0.5313600000000 1.0
C      1  0.4818440000000  0.5611660000000  0.4686030000000 1.0
C      1  0.4834270000000  0.4248880000000  0.5810860000000 1.0
C      1  0.5873930000000  0.4576150000000  0.5709000000000 1.0
C      1  0.5033380000000  0.4830270000000  0.4324790000000 1.0
C      1  0.5064770000000  0.5032280000000  0.3898780000000 1.0
C      1  0.4741480000000  0.6107030000000  0.5431860000000 1.0
C      1  0.5721810000000  0.5579840000000  0.4447640000000 1.0
C      1  0.4858780000000  0.5786440000000  0.4468070000000 1.0
C      1  0.4748210000000  0.4283550000000  0.4832180000000 1.0
C      1  0.5438450000000  0.5640330000000  0.5759050000000 1.0
C      1  0.4751490000000  0.5472230000000  0.5136360000000 1.0
C      1  0.5969340000000  0.5370990000000  0.4946660000000 1.0
C      1  0.3923920000000  0.4769720000000  0.4536540000000 1.0
C      1  0.5257340000000  0.4723290000000  0.5003440000000 1.0
C      1  0.4510220000000  0.4927490000000  0.5012000000000 1.0
C      1  0.6010810000000  0.4936710000000  0.5374880000000 1.0
C      1  0.4958340000000  0.4619260000000  0.6102490000000 1.0
C      1  0.4887720000000  0.4774000000000  0.5620190000000 1.0
C      1  0.5187830000000  0.5302220000000  0.6051650000000 1.0
C      1  0.5551420000000  0.4014260000000  0.5107490000000 1.0
C      1  0.5522310000000  0.4461760000000  0.5238880000000 1.0
C      1  0.4658910000000  0.6197510000000  0.4961300000000 1.0
C      1  0.5268710000000  0.4133050000000  0.5642950000000 1.0
C      1  0.5878920000000  0.4480550000000  0.4529570000000 1.0
C      1  0.5999630000000  0.5508370000000  0.5227080000000 1.0
C      1  0.4595690000000  0.4466520000000  0.4005340000000 1.0
C      1  0.5433520000000  0.4082160000000  0.4376320000000 1.0
C      1  0.4426660000000  0.5487190000000  0.5759330000000 1.0
C      1  0.4637640000000  0.5673000000000  0.5889350000000 1.0
C      1  0.5614100000000  0.5492730000000  0.4184260000000 1.0
C      1  0.5089540000000  0.5657700000000  0.4898470000000 1.0
C      1  0.5722850000000  0.4769990000000  0.5887580000000 1.0
C      1  0.5583720000000  0.5789370000000  0.5307260000000 1.0
C      1  0.4834940000000  0.4876620000000  0.6163870000000 1.0
C      1  0.4865410000000  0.4544330000000  0.3915860000000 1.0
C      1  0.5211900000000  0.4947660000000  0.4533710000000 1.0
C      1  0.5783850000000  0.4336510000000  0.5215470000000 1.0
C      1  0.4146720000000  0.4495150000000  0.5238080000000 1.0
C      1  0.4577480000000  0.5909200000000  0.4932150000000 1.0
C      1  0.5617760000000  0.5720880000000  0.5030960000000 1.0
C      1  0.5067590000000  0.5427700000000  0.4057380000000 1.0
C      1  0.4251490000000  0.5084270000000  0.4177260000000 1.0
C      1  0.5303240000000  0.5564110000000  0.4727680000000 1.0
C      1  0.4155040000000  0.5049780000000  0.5596530000000 1.0
C      1  0.5081810000000  0.4404100000000  0.4035450000000 1.0
C      1  0.4964150000000  0.4376070000000  0.4336020000000 1.0
C      1  0.5407160000000  0.4546120000000  0.4601780000000 1.0
C      1  0.5900050000000  0.4961450000000  0.4331930000000 1.0
C      1  0.4245680000000  0.5356100000000  0.5115800000000 1.0
C      1  0.5622950000000  0.5167570000000  0.4602920000000 1.0
C      1  0.5486530000000  0.4016150000000  0.4644530000000 1.0
C      1  0.3898130000000  0.5052210000000  0.4454800000000 1.0
C      1  0.4741790000000  0.4444220000000  0.6000310000000 1.0
C      1  0.4814260000000  0.3993260000000  0.5394440000000 1.0
C      1  0.5130670000000  0.5206080000000  0.4830840000000 1.0
C      1  0.4669620000000  0.4759190000000  0.5459080000000 1.0
C      1  0.4247900000000  0.4316900000000  0.4799140000000 1.0
C      1  0.4319040000000  0.5777300000000  0.4882760000000 1.0
C      1  0.4775310000000  0.5994000000000  0.4291130000000 1.0
C      1  0.4121090000000  0.4257620000000  0.4555570000000 1.0
C      1  0.4239690000000  0.4916220000000  0.5109860000000 1.0
C      1  0.4928070000000  0.5050410000000  0.5683480000000 1.0
C      1  0.4511090000000  0.4287580000000  0.4221760000000 1.0
C      1  0.5383730000000  0.5164800000000  0.5509130000000 1.0
C      1  0.4450660000000  0.5165330000000  0.3986040000000 1.0
C      1  0.5053840000000  0.5481040000000  0.5125010000000 1.0
C      1  0.5338230000000  0.6130910000000  0.4822560000000 1.0
C      1  0.5536920000000  0.5231240000000  0.4080030000000 1.0
C      1  0.4080990000000  0.5286610000000  0.4860320000000 1.0
C      1  0.4677420000000  0.5751190000000  0.5144170000000 1.0
C      1  0.4912640000000  0.4871590000000  0.5133420000000 1.0
C      1  0.4696830000000  0.4513640000000  0.5310760000000 1.0
C      1  0.4127900000000  0.5240900000000  0.4399650000000 1.0
C      1  0.4106620000000  0.4612690000000  0.4344690000000 1.0
C      1  0.5700870000000  0.4090410000000  0.5351980000000 1.0
C      1  0.4474650000000  0.5557860000000  0.4738600000000 1.0
C      1  0.5680320000000  0.5296920000000  0.5897840000000 1.0
C      1  0.4765890000000  0.5189730000000  0.5886940000000 1.0
C      1  0.4865080000000  0.4847850000000  0.3842580000000 1.0
C      1  0.5416230000000  0.5641980000000  0.5479640000000 1.0
C      1  0.5250250000000  0.4459410000000  0.5128670000000 1.0
C      1  0.5624870000000  0.4960390000000  0.4184510000000 1.0
C      1  0.5652740000000  0.5410420000000  0.5032330000000 1.0
C      1  0.4485870000000  0.4575530000000  0.5966920000000 1.0
C      1  0.5503820000000  0.5366150000000  0.4785150000000 1.0
C      1  0.5524490000000  0.4266730000000  0.4189630000000 1.0
C      1  0.5460260000000  0.5710960000000  0.4059440000000 1.0
C      1  0.5110220000000  0.4076830000000  0.5385950000000 1.0
C      1  0.4820220000000  0.5346220000000  0.4548630000000 1.0
C      1  0.4937320000000  0.5975800000000  0.5611170000000 1.0
C      1  0.4093270000000  0.5857920000000  0.4634010000000 1.0
C      1  0.4552920000000  0.4834960000000  0.6080610000000 1.0
C      1  0.4551660000000  0.5385010000000  0.5540760000000 1.0
C      1  0.4428120000000  0.4500570000000  0.4670230000000 1.0
C      1  0.4605940000000  0.4677170000000  0.4548340000000 1.0
C      1  0.5367610000000  0.4422520000000  0.3981180000000 1.0
C      1  0.5028500000000  0.4410780000000  0.5318230000000 1.0
C      1  0.6029220000000  0.4502480000000  0.5215640000000 1.0
C      1  0.4188510000000  0.4758310000000  0.5645910000000 1.0
C      1  0.4226930000000  0.4793970000000  0.4155310000000 1.0
C      1  0.4609480000000  0.5879130000000  0.5377140000000 1.0
C      1  0.4317860000000  0.4513460000000  0.5726700000000 1.0
C      1  0.5440440000000  0.4707430000000  0.4029090000000 1.0
C      1  0.3884110000000  0.4808940000000  0.4828120000000 1.0
C      1  0.4512070000000  0.5955460000000  0.4347370000000 1.0
C      1  0.5425790000000  0.5155700000000  0.5971190000000 1.0
C      1  0.5844040000000  0.5116690000000  0.5518350000000 1.0
C      1  0.4952550000000  0.4486180000000  0.4806510000000 1.0
C      1  0.4641580000000  0.4897290000000  0.4755930000000 1.0
C      1  0.5477830000000  0.5761920000000  0.4574460000000 1.0
C      1  0.5177060000000  0.5221060000000  0.5070210000000 1.0
C      1  0.5376340000000  0.4979350000000  0.5729150000000 1.0
C      1  0.5125380000000  0.4286170000000  0.5830940000000 1.0
C      1  0.4589700000000  0.5429600000000  0.4057400000000 1.0
C      1  0.4547470000000  0.5357390000000  0.4935570000000 1.0
C      1  0.4379660000000  0.5912570000000  0.5428030000000 1.0
C      1  0.6028500000000  0.4662830000000  0.5459620000000 1.0
C      1  0.4430190000000  0.4703790000000  0.3964150000000 1.0
C      1  0.4432510000000  0.4546960000000  0.5211900000000 1.0
C      1  0.5042860000000  0.5466500000000  0.5626960000000 1.0
C      1  0.3853870000000  0.5096460000000  0.4911530000000 1.0
C      1  0.5270830000000  0.3957790000000  0.5159720000000 1.0
C      1  0.3812260000000  0.5178070000000  0.5176930000000 1.0
C      1  0.5721800000000  0.4351180000000  0.5678740000000 1.0
C      1  0.5301230000000  0.5975520000000  0.4437440000000 1.0
C      1  0.4733180000000  0.3931200000000  0.5122830000000 1.0
C      1  0.5216530000000  0.5885970000000  0.5136330000000 1.0
C      1  0.5699810000000  0.5535430000000  0.5728540000000 1.0
C      1  0.5802960000000  0.5608050000000  0.5423430000000 1.0
C      1  0.4062580000000  0.4692280000000  0.5029480000000 1.0
C      1  0.5555520000000  0.5916070000000  0.4827440000000 1.0
C      1  0.5803860000000  0.5051790000000  0.5802340000000 1.0
C      1  0.5907660000000  0.5176520000000  0.4523900000000 1.0
C      1  0.5018090000000  0.6009260000000  0.4457920000000 1.0
C      1  0.4732760000000  0.4061720000000  0.4646730000000 1.0
C      1  0.4853360000000  0.4749170000000  0.4892440000000 1.0
C      1  0.5080810000000  0.5201540000000  0.4594800000000 1.0
C      1  0.4650210000000  0.5180940000000  0.4729560000000 1.0
C      1  0.6093630000000  0.5083940000000  0.4898290000000 1.0
C      1  0.4385420000000  0.4257470000000  0.5566500000000 1.0
C      1  0.4490540000000  0.5089100000000  0.5948600000000 1.0
C      1  0.4209880000000  0.5653980000000  0.5147900000000 1.0
C      1  0.4829020000000  0.4636730000000  0.4378740000000 1.0
C      1  0.5910280000000  0.4969660000000  0.5086430000000 1.0
C      1  0.5468730000000  0.4681090000000  0.5996630000000 1.0
C      1  0.5866260000000  0.4348700000000  0.4793940000000 1.0
C      1  0.5611760000000  0.4460210000000  0.4407770000000 1.0
C      1  0.5102420000000  0.5213530000000  0.5529350000000 1.0
C      1  0.5264460000000  0.5221080000000  0.3957620000000 1.0
C      1  0.4237470000000  0.5366720000000  0.4640710000000 1.0
C      1  0.4667430000000  0.5277370000000  0.5340920000000 1.0
C      1  0.5140850000000  0.4442740000000  0.4591730000000 1.0
C      1  0.6109890000000  0.4810560000000  0.4771350000000 1.0
C      1  0.5664470000000  0.4857850000000  0.4989430000000 1.0
C      1  0.5348970000000  0.4710060000000  0.5610090000000 1.0
C      1  0.4209750000000  0.4211850000000  0.5330460000000 1.0
C      1  0.5129270000000  0.3865750000000  0.4921370000000 1.0
C      1  0.4216610000000  0.4339620000000  0.4304060000000 1.0
C      1  0.4726870000000  0.4175230000000  0.4376950000000 1.0
C      1  0.4945180000000  0.5153970000000  0.6115330000000 1.0
C      1  0.4855600000000  0.3881850000000  0.4856790000000 1.0
C      1  0.6000950000000  0.4752760000000  0.4502170000000 1.0
C      1  0.4604300000000  0.4192350000000  0.5071350000000 1.0
C      1  0.4678850000000  0.4975820000000  0.5261150000000 1.0
C      1  0.4866910000000  0.6219810000000  0.5172740000000 1.0
C      1  0.5244820000000  0.4766580000000  0.4171210000000 1.0
C      1  0.5567350000000  0.4127490000000  0.5620530000000 1.0
C      1  0.5174310000000  0.4943540000000  0.5175450000000 1.0
C      1  0.5283480000000  0.5912520000000  0.4163870000000 1.0
C      1  0.5222670000000  0.3934740000000  0.4681730000000 1.0
END
