TITL C-883731-9874-358 1.14945861598767 125000 -12271.5149173967 0 0 83 (C1) n - 1
REM
REM in /home/nfs/bkarasulu/CARBON/AIRSS/Generating-Clusters/ReaxFF-fromJPCA2015/Units_Real/with-SteepDescent/Only-C1/SD-CG/Try1-3A/FIRE-CG
REM
REM
REM
REM
REM
REM ./C.cell (11c1c37f851c82e70ff6c80c92926a4b)
REM
REM compiler GCC version 9.2.1 20190827 (Red Hat 9.2.1-1)
REM options -cpp -mtune=generic -march=x86-64 -g -O0 -fpre-include=/usr/include/finclude/math-vector-fortran.h
REM seed -1494074744 -2064633245 785968194 1374237411 1260369371 -781130876 1705872757 -2125509211 -1954583280 1512074409 -891040702 1705758807 1943346166 -607051899 -930711793 1743876625 -1637937631 174581319 1949225087 1734381743 -1159137910 243433346 -1738891520 1465875180 -660847832 -2032454164 -889695366 -950859762 -2086561051 1702954172 -1938791532 976340684 1030227146
REM
CELL 1.54180   50.00000   50.00000   50.00000   90.00000   90.00000   90.00000
LATT -1
SFAC C  
C      1  0.4789640000000  0.5495300000000  0.4839540000000 1.0
C      1  0.5571310000000  0.5482960000000  0.4652500000000 1.0
C      1  0.4930340000000  0.5215260000000  0.5598180000000 1.0
C      1  0.4959160000000  0.5027730000000  0.5375010000000 1.0
C      1  0.4251290000000  0.5181680000000  0.5420840000000 1.0
C      1  0.4578600000000  0.4527760000000  0.5382350000000 1.0
C      1  0.4830870000000  0.4885920000000  0.5863850000000 1.0
C      1  0.5198520000000  0.5285000000000  0.5001530000000 1.0
C      1  0.4925620000000  0.4778790000000  0.4615390000000 1.0
C      1  0.4966730000000  0.4670780000000  0.5760620000000 1.0
C      1  0.5600280000000  0.5483450000000  0.5145990000000 1.0
C      1  0.5798180000000  0.4892460000000  0.5123930000000 1.0
C      1  0.4865510000000  0.5110560000000  0.4065810000000 1.0
C      1  0.5465940000000  0.5293320000000  0.5765960000000 1.0
C      1  0.4764630000000  0.5452350000000  0.5556120000000 1.0
C      1  0.5664290000000  0.4423870000000  0.5062100000000 1.0
C      1  0.4697660000000  0.4426920000000  0.4387480000000 1.0
C      1  0.4186120000000  0.4872620000000  0.5077930000000 1.0
C      1  0.5557660000000  0.4770810000000  0.4719360000000 1.0
C      1  0.4710890000000  0.5284810000000  0.4261120000000 1.0
C      1  0.5844830000000  0.5170740000000  0.5034700000000 1.0
C      1  0.5165940000000  0.5529490000000  0.4408120000000 1.0
C      1  0.5150740000000  0.4675050000000  0.4932350000000 1.0
C      1  0.4658460000000  0.4423620000000  0.4892850000000 1.0
C      1  0.4422950000000  0.5126930000000  0.4714210000000 1.0
C      1  0.5712910000000  0.5402560000000  0.4893170000000 1.0
C      1  0.5249100000000  0.4391580000000  0.5017010000000 1.0
C      1  0.5093070000000  0.4157020000000  0.4888130000000 1.0
C      1  0.4759430000000  0.5780840000000  0.4819070000000 1.0
C      1  0.4593270000000  0.5410460000000  0.5306160000000 1.0
C      1  0.5432340000000  0.4321520000000  0.4583360000000 1.0
C      1  0.5076520000000  0.5093420000000  0.5144580000000 1.0
C      1  0.4784280000000  0.5564000000000  0.5150470000000 1.0
C      1  0.4468260000000  0.4477430000000  0.5117180000000 1.0
C      1  0.5100260000000  0.4495780000000  0.5601920000000 1.0
C      1  0.4244680000000  0.5333760000000  0.5153490000000 1.0
C      1  0.5445130000000  0.4416680000000  0.5257440000000 1.0
C      1  0.4932340000000  0.5426810000000  0.4332750000000 1.0
C      1  0.4818900000000  0.4164830000000  0.4976400000000 1.0
C      1  0.5454390000000  0.4856780000000  0.5531740000000 1.0
C      1  0.5313130000000  0.5553300000000  0.5124080000000 1.0
C      1  0.5215350000000  0.5632530000000  0.5411970000000 1.0
C      1  0.4511210000000  0.4402880000000  0.4622540000000 1.0
C      1  0.5194210000000  0.5799910000000  0.4525320000000 1.0
C      1  0.5154660000000  0.4200700000000  0.4596870000000 1.0
C      1  0.5412750000000  0.4800560000000  0.4331800000000 1.0
C      1  0.4577200000000  0.5773390000000  0.5053330000000 1.0
C      1  0.4251670000000  0.4530240000000  0.4676420000000 1.0
C      1  0.4445400000000  0.4749200000000  0.5516880000000 1.0
C      1  0.5340060000000  0.5025560000000  0.5744040000000 1.0
C      1  0.4248610000000  0.4605540000000  0.4973710000000 1.0
C      1  0.5288500000000  0.4863050000000  0.4777500000000 1.0
C      1  0.5264560000000  0.5151950000000  0.4766310000000 1.0
C      1  0.4238610000000  0.4894980000000  0.5365360000000 1.0
C      1  0.5055680000000  0.5076820000000  0.5824410000000 1.0
C      1  0.4388530000000  0.5586230000000  0.5172540000000 1.0
C      1  0.4448950000000  0.5201390000000  0.5659200000000 1.0
C      1  0.4867780000000  0.4247860000000  0.5233100000000 1.0
C      1  0.5043080000000  0.5869580000000  0.4774590000000 1.0
C      1  0.4246430000000  0.5124340000000  0.4943000000000 1.0
C      1  0.4861040000000  0.4704440000000  0.4885970000000 1.0
C      1  0.5711900000000  0.5258580000000  0.5270680000000 1.0
C      1  0.5731820000000  0.4680140000000  0.4937750000000 1.0
C      1  0.4933590000000  0.5634550000000  0.5409670000000 1.0
C      1  0.5507830000000  0.4282680000000  0.4858830000000 1.0
C      1  0.4497970000000  0.5251670000000  0.4467500000000 1.0
C      1  0.5280960000000  0.5796140000000  0.4926810000000 1.0
C      1  0.4560980000000  0.4930640000000  0.5720620000000 1.0
C      1  0.5359800000000  0.4584610000000  0.5478020000000 1.0
C      1  0.4839620000000  0.4387100000000  0.5463400000000 1.0
C      1  0.5439460000000  0.5745300000000  0.4684820000000 1.0
C      1  0.5355660000000  0.5058510000000  0.4294490000000 1.0
C      1  0.5375540000000  0.5550070000000  0.5643860000000 1.0
C      1  0.4604570000000  0.5155490000000  0.5213750000000 1.0
C      1  0.5368100000000  0.5300160000000  0.4524620000000 1.0
C      1  0.4924480000000  0.4310630000000  0.4479160000000 1.0
C      1  0.4922380000000  0.4832080000000  0.4108670000000 1.0
C      1  0.4807730000000  0.4983400000000  0.5118730000000 1.0
C      1  0.5638860000000  0.4989130000000  0.5347070000000 1.0
C      1  0.4817970000000  0.4712340000000  0.4360830000000 1.0
C      1  0.5521240000000  0.4590150000000  0.4487390000000 1.0
C      1  0.5151580000000  0.5018480000000  0.4086920000000 1.0
C      1  0.4559500000000  0.5372020000000  0.4706740000000 1.0
END
