TITL C-883741-3679-322 8.72123240750557 125000 -10952.5937890655 0 0 74 (C1) n - 1
REM
REM in /home/nfs/bkarasulu/CARBON/AIRSS/Generating-Clusters/ReaxFF-fromJPCA2015/Units_Real/with-SteepDescent/Only-C1/SD-CG/Try1-3A/FIRE-CG
REM
REM
REM
REM
REM
REM ./C.cell (11c1c37f851c82e70ff6c80c92926a4b)
REM
REM compiler GCC version 9.2.1 20190827 (Red Hat 9.2.1-1)
REM options -cpp -mtune=generic -march=x86-64 -g -O0 -fpre-include=/usr/include/finclude/math-vector-fortran.h
REM seed -39344939 1939362855 -145041102 1253979083 621030626 855218001 -1336211271 -1275724730 -1955595452 1235862519 1254359840 -1633656855 1134539470 -906957155 1244293230 -1939601802 603275215 -2100160101 2096941979 -1028072594 1741016851 1819162358 1754819871 -369208197 -1082506415 1204546145 1181140015 -781539665 -446071714 -979901268 -1438189162 -1015512360 991319627
REM
CELL 1.54180   50.00000   50.00000   50.00000   90.00000   90.00000   90.00000
LATT -1
SFAC C  
C      1  0.5009090000000  0.5801440000000  0.4846570000000 1.0
C      1  0.4808760000000  0.4816560000000  0.5125580000000 1.0
C      1  0.4730770000000  0.5646610000000  0.5224450000000 1.0
C      1  0.5135580000000  0.4273920000000  0.4958740000000 1.0
C      1  0.5284380000000  0.5112280000000  0.5127470000000 1.0
C      1  0.5111170000000  0.4867030000000  0.4861070000000 1.0
C      1  0.5128120000000  0.5115050000000  0.5360930000000 1.0
C      1  0.5822930000000  0.4628630000000  0.5179970000000 1.0
C      1  0.5455400000000  0.4501410000000  0.4723150000000 1.0
C      1  0.4957720000000  0.5587530000000  0.5363560000000 1.0
C      1  0.5493360000000  0.4738360000000  0.4608440000000 1.0
C      1  0.4330850000000  0.5289870000000  0.5348080000000 1.0
C      1  0.4906590000000  0.4391550000000  0.5387780000000 1.0
C      1  0.5619830000000  0.5234040000000  0.4851040000000 1.0
C      1  0.5436360000000  0.5064620000000  0.5692040000000 1.0
C      1  0.4185760000000  0.4815890000000  0.4809360000000 1.0
C      1  0.5801180000000  0.4863190000000  0.5005740000000 1.0
C      1  0.5606550000000  0.4872460000000  0.5536570000000 1.0
C      1  0.5514000000000  0.5457300000000  0.4677070000000 1.0
C      1  0.5012980000000  0.4554630000000  0.4498350000000 1.0
C      1  0.4504450000000  0.4417300000000  0.5060080000000 1.0
C      1  0.4933940000000  0.4907590000000  0.5364530000000 1.0
C      1  0.5298910000000  0.5279870000000  0.5538380000000 1.0
C      1  0.5404720000000  0.4659920000000  0.5581300000000 1.0
C      1  0.4473330000000  0.5005470000000  0.4410770000000 1.0
C      1  0.5528600000000  0.5264310000000  0.5129940000000 1.0
C      1  0.4735150000000  0.5734440000000  0.4931260000000 1.0
C      1  0.4742440000000  0.5354370000000  0.5618020000000 1.0
C      1  0.5625960000000  0.4172310000000  0.5047340000000 1.0
C      1  0.4321360000000  0.4900250000000  0.5062540000000 1.0
C      1  0.4929080000000  0.5060140000000  0.4135460000000 1.0
C      1  0.4967960000000  0.4698210000000  0.4931190000000 1.0
C      1  0.4349190000000  0.4779580000000  0.4562730000000 1.0
C      1  0.4454010000000  0.4525730000000  0.5330970000000 1.0
C      1  0.4558750000000  0.5610190000000  0.4729650000000 1.0
C      1  0.4543730000000  0.4557530000000  0.4566440000000 1.0
C      1  0.5384080000000  0.4445160000000  0.5386670000000 1.0
C      1  0.5795270000000  0.4878450000000  0.5313900000000 1.0
C      1  0.5141770000000  0.5147380000000  0.4890580000000 1.0
C      1  0.4709440000000  0.4910290000000  0.4268000000000 1.0
C      1  0.5452320000000  0.5440560000000  0.5347520000000 1.0
C      1  0.5634310000000  0.4393590000000  0.5240860000000 1.0
C      1  0.4994630000000  0.5569450000000  0.4661280000000 1.0
C      1  0.5126400000000  0.5167790000000  0.4486200000000 1.0
C      1  0.5229900000000  0.5631380000000  0.5306300000000 1.0
C      1  0.4604190000000  0.4986760000000  0.5024250000000 1.0
C      1  0.4921020000000  0.5358810000000  0.4194560000000 1.0
C      1  0.5246990000000  0.5778490000000  0.5030190000000 1.0
C      1  0.4554420000000  0.5145190000000  0.5703490000000 1.0
C      1  0.4661040000000  0.5234440000000  0.4909950000000 1.0
C      1  0.5098350000000  0.5550550000000  0.4368640000000 1.0
C      1  0.5256660000000  0.4845850000000  0.5772100000000 1.0
C      1  0.4418280000000  0.5363060000000  0.4795590000000 1.0
C      1  0.5644080000000  0.4950520000000  0.4778570000000 1.0
C      1  0.4944820000000  0.4423520000000  0.4778090000000 1.0
C      1  0.5322310000000  0.5386070000000  0.4454720000000 1.0
C      1  0.4626980000000  0.4401830000000  0.4798880000000 1.0
C      1  0.4844370000000  0.5265560000000  0.4458380000000 1.0
C      1  0.4762450000000  0.4643320000000  0.4390700000000 1.0
C      1  0.5240800000000  0.4715360000000  0.4428930000000 1.0
C      1  0.5166060000000  0.4961660000000  0.4282360000000 1.0
C      1  0.4691090000000  0.4493780000000  0.5518860000000 1.0
C      1  0.4640760000000  0.5476130000000  0.4469770000000 1.0
C      1  0.5395730000000  0.5639830000000  0.4850380000000 1.0
C      1  0.4833980000000  0.4753280000000  0.5586780000000 1.0
C      1  0.4929980000000  0.5336270000000  0.4836940000000 1.0
C      1  0.5403120000000  0.4251420000000  0.4846830000000 1.0
C      1  0.5140180000000  0.4317000000000  0.5254280000000 1.0
C      1  0.4319430000000  0.4783800000000  0.5334130000000 1.0
C      1  0.4566230000000  0.5472400000000  0.5411900000000 1.0
C      1  0.4429540000000  0.5279490000000  0.4510040000000 1.0
C      1  0.4365030000000  0.5033220000000  0.5492040000000 1.0
C      1  0.4813690000000  0.5129870000000  0.5815590000000 1.0
C      1  0.4967380000000  0.4878860000000  0.5815230000000 1.0
END
