TITL C-884128-4793-224 -0.727298156014736 125000 -14870.773515867 0 0 98 (C1) n - 1
REM
REM in /home/nfs/bkarasulu/CARBON/AIRSS/Generating-Clusters/ReaxFF-fromJPCA2015/Units_Real/with-SteepDescent/Only-C1/SD-CG/Try1-3A/FIRE-CG
REM
REM
REM
REM
REM
REM ./C.cell (11c1c37f851c82e70ff6c80c92926a4b)
REM
REM compiler GCC version 9.2.1 20190827 (Red Hat 9.2.1-1)
REM options -cpp -mtune=generic -march=x86-64 -g -O0 -fpre-include=/usr/include/finclude/math-vector-fortran.h
REM seed 1696458792 -1891377215 -1474093073 260420698 -1848784442 -408685813 2002754250 2114200114 -529612365 2006322516 -262850392 706392920 -1769160794 -504134278 1864705422 1603551605 648220407 508643050 -647105224 1244392611 312422037 933412232 1337730439 1033669320 -1841509384 592971246 1722030022 -1070494525 -776811826 1800397340 -1954286190 938142234 -58794436
REM
CELL 1.54180   50.00000   50.00000   50.00000   90.00000   90.00000   90.00000
LATT -1
SFAC C  
C      1  0.5845380000000  0.4953210000000  0.5014340000000 1.0
C      1  0.5023050000000  0.5078410000000  0.4812610000000 1.0
C      1  0.4767170000000  0.5944200000000  0.5348920000000 1.0
C      1  0.4607230000000  0.5708840000000  0.5469270000000 1.0
C      1  0.5368230000000  0.4221460000000  0.4646660000000 1.0
C      1  0.5409880000000  0.4852390000000  0.4276700000000 1.0
C      1  0.4543750000000  0.5275960000000  0.5260460000000 1.0
C      1  0.4772040000000  0.4262290000000  0.4493420000000 1.0
C      1  0.5680680000000  0.4589050000000  0.4635440000000 1.0
C      1  0.4367030000000  0.4801340000000  0.4352690000000 1.0
C      1  0.5522600000000  0.4601210000000  0.5506780000000 1.0
C      1  0.5615210000000  0.4601110000000  0.5217730000000 1.0
C      1  0.4386250000000  0.5062750000000  0.5670250000000 1.0
C      1  0.4794710000000  0.5192820000000  0.5491010000000 1.0
C      1  0.4599150000000  0.5258890000000  0.5722840000000 1.0
C      1  0.5174730000000  0.4053700000000  0.4805440000000 1.0
C      1  0.5092300000000  0.5423910000000  0.5134730000000 1.0
C      1  0.5466610000000  0.5800860000000  0.4736490000000 1.0
C      1  0.4702200000000  0.5534850000000  0.5690340000000 1.0
C      1  0.5310490000000  0.5100390000000  0.4180130000000 1.0
C      1  0.5350450000000  0.4236710000000  0.5245020000000 1.0
C      1  0.5485480000000  0.4607280000000  0.4394530000000 1.0
C      1  0.4927840000000  0.5395940000000  0.4162450000000 1.0
C      1  0.5502090000000  0.5723300000000  0.4494890000000 1.0
C      1  0.5503810000000  0.5536320000000  0.5367210000000 1.0
C      1  0.5317310000000  0.4396040000000  0.5495250000000 1.0
C      1  0.5388270000000  0.4834990000000  0.5818790000000 1.0
C      1  0.4568450000000  0.5153160000000  0.4988710000000 1.0
C      1  0.4889210000000  0.4577660000000  0.4945270000000 1.0
C      1  0.5569960000000  0.4336870000000  0.5081970000000 1.0
C      1  0.4868700000000  0.4133070000000  0.5181460000000 1.0
C      1  0.4993030000000  0.5960080000000  0.5177170000000 1.0
C      1  0.5464510000000  0.4930130000000  0.4676760000000 1.0
C      1  0.5297260000000  0.5159470000000  0.4704050000000 1.0
C      1  0.4160770000000  0.5280450000000  0.4782330000000 1.0
C      1  0.5462710000000  0.5329500000000  0.5567070000000 1.0
C      1  0.4992850000000  0.4434750000000  0.4368930000000 1.0
C      1  0.4874150000000  0.4927620000000  0.5514730000000 1.0
C      1  0.4832800000000  0.4922940000000  0.4259300000000 1.0
C      1  0.4996820000000  0.4747180000000  0.4734740000000 1.0
C      1  0.5197730000000  0.5056710000000  0.5837210000000 1.0
C      1  0.5141010000000  0.5550230000000  0.4276840000000 1.0
C      1  0.4727890000000  0.5691220000000  0.4579320000000 1.0
C      1  0.5424020000000  0.5661870000000  0.4244400000000 1.0
C      1  0.4772690000000  0.5252070000000  0.4820450000000 1.0
C      1  0.4272130000000  0.4719980000000  0.4836920000000 1.0
C      1  0.4242270000000  0.4926600000000  0.5212480000000 1.0
C      1  0.5587660000000  0.4354710000000  0.4792640000000 1.0
C      1  0.4104650000000  0.5510660000000  0.4957380000000 1.0
C      1  0.5121660000000  0.5144740000000  0.5085810000000 1.0
C      1  0.5436370000000  0.5399570000000  0.4728550000000 1.0
C      1  0.4470380000000  0.5638740000000  0.4713750000000 1.0
C      1  0.4472200000000  0.4325830000000  0.4910350000000 1.0
C      1  0.5246750000000  0.5638080000000  0.5264970000000 1.0
C      1  0.4932420000000  0.4708340000000  0.5183400000000 1.0
C      1  0.5252370000000  0.5897930000000  0.5118850000000 1.0
C      1  0.5728050000000  0.5171370000000  0.5205700000000 1.0
C      1  0.4727730000000  0.4760980000000  0.5340810000000 1.0
C      1  0.5377770000000  0.5376730000000  0.4286200000000 1.0
C      1  0.4514100000000  0.4360360000000  0.4623410000000 1.0
C      1  0.5566090000000  0.4856020000000  0.5600320000000 1.0
C      1  0.5102490000000  0.4409630000000  0.5691590000000 1.0
C      1  0.5212110000000  0.5882800000000  0.4827620000000 1.0
C      1  0.4292600000000  0.5023850000000  0.4921910000000 1.0
C      1  0.5601830000000  0.5571840000000  0.4868150000000 1.0
C      1  0.5015460000000  0.5115600000000  0.4147710000000 1.0
C      1  0.5281480000000  0.4392310000000  0.4428260000000 1.0
C      1  0.4927710000000  0.4709460000000  0.4434430000000 1.0
C      1  0.4349990000000  0.4602720000000  0.4575830000000 1.0
C      1  0.4429200000000  0.4705570000000  0.5310940000000 1.0
C      1  0.4569380000000  0.4565660000000  0.5742220000000 1.0
C      1  0.4300770000000  0.5132850000000  0.5402610000000 1.0
C      1  0.4331210000000  0.5413690000000  0.4584810000000 1.0
C      1  0.5212520000000  0.5307900000000  0.5715160000000 1.0
C      1  0.4334430000000  0.4545630000000  0.5048970000000 1.0
C      1  0.5917870000000  0.4726250000000  0.5166980000000 1.0
C      1  0.5286500000000  0.4750860000000  0.4816460000000 1.0
C      1  0.4981590000000  0.4884550000000  0.5781490000000 1.0
C      1  0.4963210000000  0.5419200000000  0.5609790000000 1.0
C      1  0.5148310000000  0.4089240000000  0.5100120000000 1.0
C      1  0.5738520000000  0.4851640000000  0.4745120000000 1.0
C      1  0.4957230000000  0.5733600000000  0.4755110000000 1.0
C      1  0.5366260000000  0.4755750000000  0.5087720000000 1.0
C      1  0.4759150000000  0.4318680000000  0.4966330000000 1.0
C      1  0.4496690000000  0.5577290000000  0.5240870000000 1.0
C      1  0.4501650000000  0.5307900000000  0.4373620000000 1.0
C      1  0.5148510000000  0.4650830000000  0.5844480000000 1.0
C      1  0.5667940000000  0.5442750000000  0.5147120000000 1.0
C      1  0.4817420000000  0.4243720000000  0.5432600000000 1.0
C      1  0.4402420000000  0.4762030000000  0.5634520000000 1.0
C      1  0.4904230000000  0.5502530000000  0.4917470000000 1.0
C      1  0.5158700000000  0.4895990000000  0.5234970000000 1.0
C      1  0.4722480000000  0.5494470000000  0.4347750000000 1.0
C      1  0.4547900000000  0.5023730000000  0.4291450000000 1.0
C      1  0.4959190000000  0.4110310000000  0.4632320000000 1.0
C      1  0.4797490000000  0.4365370000000  0.5669150000000 1.0
C      1  0.4367750000000  0.5664790000000  0.4990120000000 1.0
C      1  0.5616690000000  0.5105130000000  0.5467590000000 1.0
END
