TITL C-884134-5972-26 -3378812.95260971 125000 -22927.4723821192 0 0 153 (C1) n - 1
REM
REM in /home/nfs/bkarasulu/CARBON/AIRSS/Generating-Clusters/ReaxFF-fromJPCA2015/Units_Real/with-SteepDescent/Only-C1/SD-CG/Try1-3A/FIRE-CG
REM
REM
REM
REM
REM
REM ./C.cell (11c1c37f851c82e70ff6c80c92926a4b)
REM
REM compiler GCC version 9.2.1 20190827 (Red Hat 9.2.1-1)
REM options -cpp -mtune=generic -march=x86-64 -g -O0 -fpre-include=/usr/include/finclude/math-vector-fortran.h
REM seed -19337297 919216095 243661360 1084875193 -50034259 -1765526753 1955809933 1962408132 2035868269 1490405585 1414830654 -1765099605 -170215714 -876443361 -1931966607 30460732 -945686836 1293630744 51692003 -376841390 -1586969927 -1344138700 -1333934164 651563839 -1665013135 -248370980 830650804 -1966169147 1159821744 1948914990 -1508974439 -1344995003 -2008182591
REM
CELL 1.54180   50.00000   50.00000   50.00000   90.00000   90.00000   90.00000
LATT -1
SFAC C  
C      1  0.3972940000000  0.5232130000000  0.5257810000000 1.0
C      1  0.4247670000000  0.5566610000000  0.4458510000000 1.0
C      1  0.4803870000000  0.4614060000000  0.5877200000000 1.0
C      1  0.5393170000000  0.4888660000000  0.4065550000000 1.0
C      1  0.5788440000000  0.5095490000000  0.5585100000000 1.0
C      1  0.4912360000000  0.5611780000000  0.4742160000000 1.0
C      1  0.5073430000000  0.5249980000000  0.5496560000000 1.0
C      1  0.4983160000000  0.5700940000000  0.5677660000000 1.0
C      1  0.4554590000000  0.4057160000000  0.5054350000000 1.0
C      1  0.5544800000000  0.5101330000000  0.5933980000000 1.0
C      1  0.4404200000000  0.4271670000000  0.4623040000000 1.0
C      1  0.5133330000000  0.5398230000000  0.5941630000000 1.0
C      1  0.4986800000000  0.5978520000000  0.5242400000000 1.0
C      1  0.4772560000000  0.4940640000000  0.5276360000000 1.0
C      1  0.5217780000000  0.4905020000000  0.5197970000000 1.0
C      1  0.5012100000000  0.5382250000000  0.3982430000000 1.0
C      1  0.4206100000000  0.4913800000000  0.5610260000000 1.0
C      1  0.5528020000000  0.5494130000000  0.5662560000000 1.0
C      1  0.3903450000000  0.5312840000000  0.4751530000000 1.0
C      1  0.4379910000000  0.4661280000000  0.4314130000000 1.0
C      1  0.5475530000000  0.4913900000000  0.4758190000000 1.0
C      1  0.4325950000000  0.4141610000000  0.4885340000000 1.0
C      1  0.5800220000000  0.5105230000000  0.4293600000000 1.0
C      1  0.5792970000000  0.5466630000000  0.4636180000000 1.0
C      1  0.5467940000000  0.4466380000000  0.5186210000000 1.0
C      1  0.4778050000000  0.6030270000000  0.4825770000000 1.0
C      1  0.5704460000000  0.5290090000000  0.5784900000000 1.0
C      1  0.5651910000000  0.4752030000000  0.4943740000000 1.0
C      1  0.4879100000000  0.5779290000000  0.4516100000000 1.0
C      1  0.5883530000000  0.4572810000000  0.5427760000000 1.0
C      1  0.4640160000000  0.4202400000000  0.5297350000000 1.0
C      1  0.4725350000000  0.5599360000000  0.4953690000000 1.0
C      1  0.5184820000000  0.6031050000000  0.5035170000000 1.0
C      1  0.4813170000000  0.3981750000000  0.4937210000000 1.0
C      1  0.4078680000000  0.5538970000000  0.4703140000000 1.0
C      1  0.4506250000000  0.4945880000000  0.5592440000000 1.0
C      1  0.5940440000000  0.4800640000000  0.4963080000000 1.0
C      1  0.4786260000000  0.4515490000000  0.4633090000000 1.0
C      1  0.4569460000000  0.4684720000000  0.5507650000000 1.0
C      1  0.5104980000000  0.4923540000000  0.4126480000000 1.0
C      1  0.4720000000000  0.5942860000000  0.5119390000000 1.0
C      1  0.5916180000000  0.5088880000000  0.5321910000000 1.0
C      1  0.5608250000000  0.4419140000000  0.5700020000000 1.0
C      1  0.5150100000000  0.5903500000000  0.4509440000000 1.0
C      1  0.4776880000000  0.5480270000000  0.4082930000000 1.0
C      1  0.4854010000000  0.4515550000000  0.4104660000000 1.0
C      1  0.4791160000000  0.5400160000000  0.5173770000000 1.0
C      1  0.5681340000000  0.5728600000000  0.4713770000000 1.0
C      1  0.5692410000000  0.4092150000000  0.5362170000000 1.0
C      1  0.3946990000000  0.4922220000000  0.5131380000000 1.0
C      1  0.5218560000000  0.3998590000000  0.5265090000000 1.0
C      1  0.5964030000000  0.4810790000000  0.5253600000000 1.0
C      1  0.5176870000000  0.4049570000000  0.4575560000000 1.0
C      1  0.4693440000000  0.5132350000000  0.5075980000000 1.0
C      1  0.4157880000000  0.5431270000000  0.5395870000000 1.0
C      1  0.5913400000000  0.5311480000000  0.5118350000000 1.0
C      1  0.5598860000000  0.5100550000000  0.4088470000000 1.0
C      1  0.5863810000000  0.4311470000000  0.5282760000000 1.0
C      1  0.4784940000000  0.4801500000000  0.4567010000000 1.0
C      1  0.5379450000000  0.4189770000000  0.4740040000000 1.0
C      1  0.5071070000000  0.5284280000000  0.5213230000000 1.0
C      1  0.4339650000000  0.5064300000000  0.5395140000000 1.0
C      1  0.4885880000000  0.4992740000000  0.4816000000000 1.0
C      1  0.5607760000000  0.5661860000000  0.5445400000000 1.0
C      1  0.4869900000000  0.5517620000000  0.5857890000000 1.0
C      1  0.4821590000000  0.4871800000000  0.6002750000000 1.0
C      1  0.4816680000000  0.4427740000000  0.5223840000000 1.0
C      1  0.5019510000000  0.4100200000000  0.5092920000000 1.0
C      1  0.4365710000000  0.4932580000000  0.4908140000000 1.0
C      1  0.5129130000000  0.4834490000000  0.5470170000000 1.0
C      1  0.4067180000000  0.4565180000000  0.4744090000000 1.0
C      1  0.5467120000000  0.5150300000000  0.4909630000000 1.0
C      1  0.5323740000000  0.4765720000000  0.5665990000000 1.0
C      1  0.4660680000000  0.4682810000000  0.5229410000000 1.0
C      1  0.5740640000000  0.5376790000000  0.4367140000000 1.0
C      1  0.4405830000000  0.5329690000000  0.4365330000000 1.0
C      1  0.4605170000000  0.5359690000000  0.5795120000000 1.0
C      1  0.5190940000000  0.4659630000000  0.6039140000000 1.0
C      1  0.5505490000000  0.5353870000000  0.5058790000000 1.0
C      1  0.5278600000000  0.5154630000000  0.6035970000000 1.0
C      1  0.4377780000000  0.4486300000000  0.5596480000000 1.0
C      1  0.5215850000000  0.5594960000000  0.4386770000000 1.0
C      1  0.4565660000000  0.4487970000000  0.4797500000000 1.0
C      1  0.4013060000000  0.4728710000000  0.5305910000000 1.0
C      1  0.5749270000000  0.5558880000000  0.5183780000000 1.0
C      1  0.4244180000000  0.5660900000000  0.5235670000000 1.0
C      1  0.5617290000000  0.4871670000000  0.5709440000000 1.0
C      1  0.5286880000000  0.4443730000000  0.4897460000000 1.0
C      1  0.5856910000000  0.4902370000000  0.4478560000000 1.0
C      1  0.4559370000000  0.4264270000000  0.5569950000000 1.0
C      1  0.4798120000000  0.4359510000000  0.5743340000000 1.0
C      1  0.4118910000000  0.4635530000000  0.5546160000000 1.0
C      1  0.5527550000000  0.5375820000000  0.4149620000000 1.0
C      1  0.4652670000000  0.4971560000000  0.4041030000000 1.0
C      1  0.5060140000000  0.4792550000000  0.4963260000000 1.0
C      1  0.5169210000000  0.5534750000000  0.4819370000000 1.0
C      1  0.5708240000000  0.4358730000000  0.5039810000000 1.0
C      1  0.4244820000000  0.4495780000000  0.4510260000000 1.0
C      1  0.5579910000000  0.4108300000000  0.4929980000000 1.0
C      1  0.4460140000000  0.5636190000000  0.4837220000000 1.0
C      1  0.5950480000000  0.4993330000000  0.4739370000000 1.0
C      1  0.4006220000000  0.5052080000000  0.4674190000000 1.0
C      1  0.4477890000000  0.4693200000000  0.4977780000000 1.0
C      1  0.4617820000000  0.4693180000000  0.4123660000000 1.0
C      1  0.5662210000000  0.5780750000000  0.4994560000000 1.0
C      1  0.5019930000000  0.4382440000000  0.5035420000000 1.0
C      1  0.5686430000000  0.4659450000000  0.4392190000000 1.0
C      1  0.4630420000000  0.5551320000000  0.5411740000000 1.0
C      1  0.5475850000000  0.4758370000000  0.5183310000000 1.0
C      1  0.5302140000000  0.4495380000000  0.5815890000000 1.0
C      1  0.5110610000000  0.5867800000000  0.5486530000000 1.0
C      1  0.5227650000000  0.4133900000000  0.5520540000000 1.0
C      1  0.4517140000000  0.5780940000000  0.5280030000000 1.0
C      1  0.5189990000000  0.4456740000000  0.4191810000000 1.0
C      1  0.4736010000000  0.4220480000000  0.4507930000000 1.0
C      1  0.4895820000000  0.5012820000000  0.5527870000000 1.0
C      1  0.4201830000000  0.5652640000000  0.4944290000000 1.0
C      1  0.5836690000000  0.4491070000000  0.4501710000000 1.0
C      1  0.4301900000000  0.5047240000000  0.4654930000000 1.0
C      1  0.3952010000000  0.4825650000000  0.4848160000000 1.0
C      1  0.5061420000000  0.6041380000000  0.4771980000000 1.0
C      1  0.5406020000000  0.5855930000000  0.5393730000000 1.0
C      1  0.4409490000000  0.5435660000000  0.5556580000000 1.0
C      1  0.5499600000000  0.3977190000000  0.5178800000000 1.0
C      1  0.5915070000000  0.5271300000000  0.4827730000000 1.0
C      1  0.4569670000000  0.5492550000000  0.4220950000000 1.0
C      1  0.5770130000000  0.4624890000000  0.5670270000000 1.0
C      1  0.4100190000000  0.4331840000000  0.4928520000000 1.0
C      1  0.5209230000000  0.5382410000000  0.4578010000000 1.0
C      1  0.5417050000000  0.4640980000000  0.4200830000000 1.0
C      1  0.4644640000000  0.5942310000000  0.4581360000000 1.0
C      1  0.5254810000000  0.4713190000000  0.4767880000000 1.0
C      1  0.4828040000000  0.4277130000000  0.4235610000000 1.0
C      1  0.4437420000000  0.5064130000000  0.4211190000000 1.0
C      1  0.4895370000000  0.4020890000000  0.4665300000000 1.0
C      1  0.5019530000000  0.4926530000000  0.4413870000000 1.0
C      1  0.5253780000000  0.5378870000000  0.5676760000000 1.0
C      1  0.5454500000000  0.5942840000000  0.5121470000000 1.0
C      1  0.4398810000000  0.5781360000000  0.4594570000000 1.0
C      1  0.5503250000000  0.4265630000000  0.5485850000000 1.0
C      1  0.5261690000000  0.5492860000000  0.4122810000000 1.0
C      1  0.5210010000000  0.4221660000000  0.4349230000000 1.0
C      1  0.5248110000000  0.5445290000000  0.5070900000000 1.0
C      1  0.5078310000000  0.4296080000000  0.5693000000000 1.0
C      1  0.4916860000000  0.5100400000000  0.3983410000000 1.0
C      1  0.4700680000000  0.5124680000000  0.5901430000000 1.0
C      1  0.4462730000000  0.4899600000000  0.4457140000000 1.0
C      1  0.5486570000000  0.5899140000000  0.4541380000000 1.0
C      1  0.4396020000000  0.5116400000000  0.5117370000000 1.0
C      1  0.5109360000000  0.4917390000000  0.6115410000000 1.0
C      1  0.3794960000000  0.5316340000000  0.5041040000000 1.0
C      1  0.5658460000000  0.6008600000000  0.4400330000000 1.0
C      1  0.5034490000000  0.5142150000000  0.4595270000000 1.0
END
