TITL C-884137-4758-350 15.5592497293222 125000 -22462.1077893316 0 0 149 (C1) n - 1
REM
REM in /home/nfs/bkarasulu/CARBON/AIRSS/Generating-Clusters/ReaxFF-fromJPCA2015/Units_Real/with-SteepDescent/Only-C1/SD-CG/Try1-3A/FIRE-CG
REM
REM
REM
REM
REM
REM ./C.cell (11c1c37f851c82e70ff6c80c92926a4b)
REM
REM compiler GCC version 9.2.1 20190827 (Red Hat 9.2.1-1)
REM options -cpp -mtune=generic -march=x86-64 -g -O0 -fpre-include=/usr/include/finclude/math-vector-fortran.h
REM seed -38182498 -803471941 -987686659 -340959435 240005511 -1997229567 463757997 1129694250 912677480 -1782404364 311566412 -129019427 273138311 -648068605 -355526395 1509887061 -1035886645 1158710365 -1279939451 1216721853 71409535 1794532651 -937774158 704653456 -619766614 1294601620 -710336523 -1726563046 797163593 562181750 1841219307 -1214301186 -2118858521
REM
CELL 1.54180   50.00000   50.00000   50.00000   90.00000   90.00000   90.00000
LATT -1
SFAC C  
C      1  0.5489630000000  0.4841850000000  0.5271020000000 1.0
C      1  0.4767130000000  0.4770730000000  0.5442800000000 1.0
C      1  0.3989790000000  0.5243790000000  0.5279420000000 1.0
C      1  0.5317920000000  0.4661290000000  0.5894890000000 1.0
C      1  0.4163420000000  0.5179910000000  0.4750100000000 1.0
C      1  0.5792390000000  0.4324400000000  0.4770480000000 1.0
C      1  0.5403430000000  0.4574420000000  0.5323770000000 1.0
C      1  0.4447480000000  0.4280660000000  0.5452100000000 1.0
C      1  0.5288820000000  0.5009780000000  0.4111290000000 1.0
C      1  0.4664740000000  0.5677170000000  0.5567040000000 1.0
C      1  0.5708040000000  0.5511310000000  0.5517230000000 1.0
C      1  0.4676260000000  0.5129510000000  0.5715860000000 1.0
C      1  0.4712290000000  0.4822740000000  0.4145440000000 1.0
C      1  0.5166980000000  0.3915280000000  0.4807770000000 1.0
C      1  0.5614920000000  0.5721890000000  0.5318030000000 1.0
C      1  0.3860130000000  0.5451050000000  0.4827890000000 1.0
C      1  0.4533350000000  0.4277080000000  0.4933650000000 1.0
C      1  0.4754850000000  0.4478140000000  0.5836390000000 1.0
C      1  0.5078480000000  0.5031710000000  0.3873480000000 1.0
C      1  0.4646690000000  0.5824590000000  0.4601170000000 1.0
C      1  0.5976790000000  0.5543880000000  0.5179150000000 1.0
C      1  0.3958700000000  0.4969720000000  0.5159540000000 1.0
C      1  0.4659060000000  0.5373270000000  0.4888410000000 1.0
C      1  0.4282880000000  0.4604390000000  0.4310210000000 1.0
C      1  0.5809400000000  0.5765650000000  0.5098110000000 1.0
C      1  0.4699350000000  0.3995080000000  0.5206440000000 1.0
C      1  0.5786350000000  0.4434790000000  0.5503930000000 1.0
C      1  0.5567350000000  0.4050800000000  0.5122590000000 1.0
C      1  0.4894480000000  0.3916690000000  0.4736660000000 1.0
C      1  0.5202120000000  0.5162350000000  0.4537830000000 1.0
C      1  0.5206080000000  0.5227220000000  0.4272170000000 1.0
C      1  0.4531180000000  0.4585600000000  0.4128970000000 1.0
C      1  0.4927830000000  0.5198700000000  0.5566980000000 1.0
C      1  0.5474920000000  0.4362560000000  0.5524120000000 1.0
C      1  0.4985630000000  0.5975810000000  0.5391680000000 1.0
C      1  0.4894070000000  0.4758830000000  0.4355290000000 1.0
C      1  0.4135010000000  0.4496640000000  0.5083840000000 1.0
C      1  0.6041440000000  0.5113130000000  0.4902250000000 1.0
C      1  0.4820000000000  0.4601620000000  0.4584790000000 1.0
C      1  0.5329660000000  0.5937630000000  0.4669910000000 1.0
C      1  0.5112580000000  0.4321980000000  0.4710790000000 1.0
C      1  0.5330390000000  0.5455370000000  0.5026930000000 1.0
C      1  0.5348170000000  0.4672990000000  0.4542630000000 1.0
C      1  0.4674870000000  0.5199790000000  0.5103570000000 1.0
C      1  0.4596440000000  0.4683700000000  0.5014370000000 1.0
C      1  0.4020420000000  0.4777810000000  0.4667960000000 1.0
C      1  0.5505440000000  0.5338070000000  0.5642680000000 1.0
C      1  0.4261580000000  0.5118800000000  0.4326930000000 1.0
C      1  0.4208570000000  0.4419020000000  0.4530410000000 1.0
C      1  0.4611750000000  0.5499380000000  0.4231390000000 1.0
C      1  0.4367790000000  0.4718280000000  0.5707740000000 1.0
C      1  0.3923700000000  0.5480100000000  0.5100330000000 1.0
C      1  0.4974090000000  0.5159180000000  0.4705520000000 1.0
C      1  0.4606340000000  0.4521730000000  0.4779430000000 1.0
C      1  0.5442230000000  0.5129710000000  0.4706350000000 1.0
C      1  0.5881360000000  0.5334840000000  0.4499250000000 1.0
C      1  0.4904560000000  0.4198120000000  0.4264330000000 1.0
C      1  0.4322060000000  0.5744060000000  0.5248550000000 1.0
C      1  0.5436960000000  0.3993210000000  0.4840660000000 1.0
C      1  0.5057720000000  0.5673200000000  0.4328910000000 1.0
C      1  0.5561320000000  0.4185250000000  0.4659480000000 1.0
C      1  0.4492930000000  0.4969600000000  0.5041870000000 1.0
C      1  0.4164950000000  0.4860600000000  0.4400660000000 1.0
C      1  0.4673640000000  0.4009730000000  0.4933710000000 1.0
C      1  0.5348310000000  0.4342470000000  0.4516720000000 1.0
C      1  0.5202680000000  0.5998810000000  0.4906260000000 1.0
C      1  0.4184130000000  0.5354950000000  0.5477780000000 1.0
C      1  0.3972600000000  0.4984730000000  0.4863170000000 1.0
C      1  0.4500590000000  0.4462620000000  0.5680280000000 1.0
C      1  0.4832590000000  0.5722020000000  0.5122690000000 1.0
C      1  0.5037380000000  0.4776840000000  0.5524530000000 1.0
C      1  0.4995450000000  0.4340710000000  0.5746810000000 1.0
C      1  0.4347100000000  0.5405120000000  0.4333800000000 1.0
C      1  0.4677800000000  0.5209980000000  0.4663640000000 1.0
C      1  0.5922300000000  0.4800500000000  0.4534280000000 1.0
C      1  0.5989740000000  0.5073180000000  0.4618140000000 1.0
C      1  0.4598720000000  0.4996690000000  0.5468640000000 1.0
C      1  0.5162570000000  0.5022670000000  0.5602420000000 1.0
C      1  0.4659970000000  0.4074270000000  0.5471080000000 1.0
C      1  0.5906360000000  0.4683190000000  0.5037340000000 1.0
C      1  0.5491330000000  0.4844150000000  0.4743400000000 1.0
C      1  0.5633800000000  0.5374760000000  0.4355210000000 1.0
C      1  0.5340410000000  0.4892950000000  0.6001380000000 1.0
C      1  0.5542520000000  0.5305590000000  0.4916380000000 1.0
C      1  0.5901910000000  0.4593530000000  0.4744600000000 1.0
C      1  0.4566730000000  0.5896840000000  0.5161640000000 1.0
C      1  0.6032380000000  0.4948130000000  0.5133570000000 1.0
C      1  0.5112270000000  0.5593710000000  0.5775160000000 1.0
C      1  0.4193900000000  0.4819960000000  0.5479360000000 1.0
C      1  0.5833250000000  0.4700810000000  0.5548720000000 1.0
C      1  0.5586810000000  0.5818480000000  0.4602050000000 1.0
C      1  0.5603070000000  0.4795350000000  0.5011150000000 1.0
C      1  0.4358950000000  0.4989710000000  0.5318220000000 1.0
C      1  0.4844710000000  0.5625200000000  0.5841570000000 1.0
C      1  0.5346060000000  0.5636040000000  0.5257700000000 1.0
C      1  0.5120730000000  0.5699250000000  0.5458120000000 1.0
C      1  0.4704590000000  0.5944440000000  0.5428040000000 1.0
C      1  0.5933760000000  0.5532700000000  0.4703290000000 1.0
C      1  0.4358920000000  0.5590030000000  0.5486030000000 1.0
C      1  0.4271670000000  0.5740700000000  0.4769790000000 1.0
C      1  0.5451900000000  0.5070400000000  0.5521090000000 1.0
C      1  0.5086260000000  0.4626490000000  0.4730150000000 1.0
C      1  0.5275570000000  0.4423710000000  0.5776560000000 1.0
C      1  0.4809500000000  0.5059030000000  0.3968990000000 1.0
C      1  0.5199310000000  0.4753460000000  0.4277620000000 1.0
C      1  0.5052180000000  0.5436860000000  0.4163140000000 1.0
C      1  0.4081380000000  0.4522800000000  0.4787050000000 1.0
C      1  0.4550350000000  0.4898310000000  0.5851590000000 1.0
C      1  0.5016500000000  0.5146680000000  0.6239590000000 1.0
C      1  0.5266440000000  0.5164390000000  0.6043790000000 1.0
C      1  0.4845250000000  0.5567220000000  0.4901420000000 1.0
C      1  0.4793110000000  0.5346190000000  0.4074210000000 1.0
C      1  0.5894500000000  0.4429390000000  0.5235010000000 1.0
C      1  0.4031080000000  0.4705280000000  0.5261640000000 1.0
C      1  0.5314530000000  0.5391720000000  0.5858450000000 1.0
C      1  0.5247780000000  0.4505710000000  0.4077410000000 1.0
C      1  0.4209480000000  0.5587370000000  0.4522780000000 1.0
C      1  0.5756040000000  0.4901890000000  0.4303390000000 1.0
C      1  0.5026950000000  0.5998070000000  0.5105360000000 1.0
C      1  0.4357180000000  0.4332090000000  0.5172190000000 1.0
C      1  0.5034710000000  0.4908680000000  0.4879960000000 1.0
C      1  0.4866370000000  0.5554930000000  0.5372980000000 1.0
C      1  0.5463350000000  0.5619870000000  0.4423860000000 1.0
C      1  0.5036450000000  0.4923210000000  0.5136050000000 1.0
C      1  0.4002200000000  0.5394190000000  0.4588510000000 1.0
C      1  0.5796910000000  0.4233580000000  0.5053270000000 1.0
C      1  0.4919360000000  0.4154200000000  0.4565100000000 1.0
C      1  0.4952360000000  0.4896990000000  0.6110690000000 1.0
C      1  0.5438670000000  0.4085200000000  0.5371850000000 1.0
C      1  0.4141570000000  0.5675040000000  0.5034640000000 1.0
C      1  0.5943770000000  0.5376190000000  0.5414410000000 1.0
C      1  0.5195160000000  0.4277350000000  0.4236960000000 1.0
C      1  0.5101570000000  0.5459830000000  0.4819760000000 1.0
C      1  0.4916250000000  0.5172470000000  0.5261780000000 1.0
C      1  0.4759480000000  0.5717650000000  0.4368620000000 1.0
C      1  0.5863980000000  0.5360470000000  0.4946290000000 1.0
C      1  0.4942590000000  0.4394300000000  0.5274920000000 1.0
C      1  0.4433940000000  0.5080690000000  0.4742010000000 1.0
C      1  0.4721320000000  0.4577220000000  0.5243610000000 1.0
C      1  0.5211560000000  0.5656040000000  0.4567920000000 1.0
C      1  0.5762280000000  0.4965060000000  0.5574040000000 1.0
C      1  0.4930810000000  0.4204460000000  0.5491070000000 1.0
C      1  0.4510110000000  0.5892500000000  0.4823520000000 1.0
C      1  0.5589850000000  0.5122240000000  0.4207700000000 1.0
C      1  0.5963980000000  0.5077480000000  0.5390110000000 1.0
C      1  0.5798620000000  0.5770060000000  0.4797090000000 1.0
C      1  0.4707710000000  0.4377940000000  0.4181840000000 1.0
C      1  0.5125420000000  0.4617040000000  0.5280800000000 1.0
C      1  0.4749380000000  0.4730800000000  0.5989160000000 1.0
END
