TITL C-884132-5695-79 -13.5296537364416 125000 -25053.3668010218 0 0 167 (C1) n - 1
REM
REM in /home/nfs/bkarasulu/CARBON/AIRSS/Generating-Clusters/ReaxFF-fromJPCA2015/Units_Real/with-SteepDescent/Only-C1/SD-CG/Try1-3A/FIRE-CG
REM
REM
REM
REM
REM
REM ./C.cell (11c1c37f851c82e70ff6c80c92926a4b)
REM
REM compiler GCC version 9.2.1 20190827 (Red Hat 9.2.1-1)
REM options -cpp -mtune=generic -march=x86-64 -g -O0 -fpre-include=/usr/include/finclude/math-vector-fortran.h
REM seed -1511969478 -1596942404 -566996963 -1987976386 -1905367139 880601979 -2102095778 1538256147 -1015459723 -218773662 914624917 679453479 898117214 1714757259 1941172658 -1159928465 672440016 -1753623664 1079152619 132803168 2112794494 -1458943542 -1663983583 944009338 880353831 1832203030 -683252673 -1036327266 -823169929 713294439 -1296234134 1299120391 188064675
REM
CELL 1.54180   50.00000   50.00000   50.00000   90.00000   90.00000   90.00000
LATT -1
SFAC C  
C      1  0.4890790000000  0.4393520000000  0.5041820000000 1.0
C      1  0.5098820000000  0.4340070000000  0.4199180000000 1.0
C      1  0.5266650000000  0.4531470000000  0.5789120000000 1.0
C      1  0.4925820000000  0.5867600000000  0.4452280000000 1.0
C      1  0.4683040000000  0.5097180000000  0.4906650000000 1.0
C      1  0.5385550000000  0.4225080000000  0.4616750000000 1.0
C      1  0.4039010000000  0.5148790000000  0.4563290000000 1.0
C      1  0.5129710000000  0.4936660000000  0.5562350000000 1.0
C      1  0.5595440000000  0.5142150000000  0.4792300000000 1.0
C      1  0.4989630000000  0.4199020000000  0.5734140000000 1.0
C      1  0.5626870000000  0.5103210000000  0.4085660000000 1.0
C      1  0.4377840000000  0.5044900000000  0.4014740000000 1.0
C      1  0.5050130000000  0.5085770000000  0.3964950000000 1.0
C      1  0.5385960000000  0.4683200000000  0.4672220000000 1.0
C      1  0.4303050000000  0.4854030000000  0.5426230000000 1.0
C      1  0.5150010000000  0.6048640000000  0.5439010000000 1.0
C      1  0.5471610000000  0.5876190000000  0.4757980000000 1.0
C      1  0.5534130000000  0.5312710000000  0.5893180000000 1.0
C      1  0.4650280000000  0.5857460000000  0.5407010000000 1.0
C      1  0.5365830000000  0.5594630000000  0.4818400000000 1.0
C      1  0.5320610000000  0.5932360000000  0.5663150000000 1.0
C      1  0.5629010000000  0.4213920000000  0.4847880000000 1.0
C      1  0.4610830000000  0.5343080000000  0.4816510000000 1.0
C      1  0.4280560000000  0.5650930000000  0.4878890000000 1.0
C      1  0.5942220000000  0.4558080000000  0.4995010000000 1.0
C      1  0.4583540000000  0.5262370000000  0.4017920000000 1.0
C      1  0.5025950000000  0.5292060000000  0.5856560000000 1.0
C      1  0.5105130000000  0.5459660000000  0.4719200000000 1.0
C      1  0.5187190000000  0.4665730000000  0.6034220000000 1.0
C      1  0.4645760000000  0.5581020000000  0.5840370000000 1.0
C      1  0.5211150000000  0.5701520000000  0.3944960000000 1.0
C      1  0.4025840000000  0.4404210000000  0.5022300000000 1.0
C      1  0.5297410000000  0.4938790000000  0.6063300000000 1.0
C      1  0.5698620000000  0.5507270000000  0.5731970000000 1.0
C      1  0.4538700000000  0.5334650000000  0.4505070000000 1.0
C      1  0.4697710000000  0.4892540000000  0.5797290000000 1.0
C      1  0.4767230000000  0.5789680000000  0.5657260000000 1.0
C      1  0.5197400000000  0.5059540000000  0.4425290000000 1.0
C      1  0.6067580000000  0.5093790000000  0.4936850000000 1.0
C      1  0.4813710000000  0.5139710000000  0.6168000000000 1.0
C      1  0.5572120000000  0.4299670000000  0.4387680000000 1.0
C      1  0.5252470000000  0.6058840000000  0.4789490000000 1.0
C      1  0.4687990000000  0.5445640000000  0.5244310000000 1.0
C      1  0.5495720000000  0.4966640000000  0.5377880000000 1.0
C      1  0.4315420000000  0.4491630000000  0.4604170000000 1.0
C      1  0.5803600000000  0.4694970000000  0.5540940000000 1.0
C      1  0.5083360000000  0.4258940000000  0.5239080000000 1.0
C      1  0.5118000000000  0.5125560000000  0.4695120000000 1.0
C      1  0.4198940000000  0.5360330000000  0.5277460000000 1.0
C      1  0.4309980000000  0.4844760000000  0.4220520000000 1.0
C      1  0.4674790000000  0.4581840000000  0.5720750000000 1.0
C      1  0.4670990000000  0.4484770000000  0.5223130000000 1.0
C      1  0.3960000000000  0.5142720000000  0.4840390000000 1.0
C      1  0.4124680000000  0.4169320000000  0.4883320000000 1.0
C      1  0.4500260000000  0.4203800000000  0.5224420000000 1.0
C      1  0.4816400000000  0.4551680000000  0.5476160000000 1.0
C      1  0.4865420000000  0.4975230000000  0.4732640000000 1.0
C      1  0.4977900000000  0.5465390000000  0.5179660000000 1.0
C      1  0.5387060000000  0.4381050000000  0.4188570000000 1.0
C      1  0.4485320000000  0.4773950000000  0.5203870000000 1.0
C      1  0.5487010000000  0.4223250000000  0.5517870000000 1.0
C      1  0.6059480000000  0.5307900000000  0.5140270000000 1.0
C      1  0.5145690000000  0.4036800000000  0.4606340000000 1.0
C      1  0.3896820000000  0.5418490000000  0.4944010000000 1.0
C      1  0.4363960000000  0.5561080000000  0.4467700000000 1.0
C      1  0.4824190000000  0.4401540000000  0.5890220000000 1.0
C      1  0.5329580000000  0.5100300000000  0.4909670000000 1.0
C      1  0.5620890000000  0.3924650000000  0.4958270000000 1.0
C      1  0.4426390000000  0.5776410000000  0.4669040000000 1.0
C      1  0.4927880000000  0.5591020000000  0.4541290000000 1.0
C      1  0.4766930000000  0.4708110000000  0.4717190000000 1.0
C      1  0.5121960000000  0.4637070000000  0.5526000000000 1.0
C      1  0.4029580000000  0.5581370000000  0.4738360000000 1.0
C      1  0.5291060000000  0.5437360000000  0.5798830000000 1.0
C      1  0.4970480000000  0.4165880000000  0.4410440000000 1.0
C      1  0.5193610000000  0.5666240000000  0.5138110000000 1.0
C      1  0.5122820000000  0.5205860000000  0.5147400000000 1.0
C      1  0.5812220000000  0.5382480000000  0.4534800000000 1.0
C      1  0.4790610000000  0.5397150000000  0.6009610000000 1.0
C      1  0.4654460000000  0.5845250000000  0.4850910000000 1.0
C      1  0.5342780000000  0.4112730000000  0.5289990000000 1.0
C      1  0.4172260000000  0.4592390000000  0.5522160000000 1.0
C      1  0.4976490000000  0.4958300000000  0.5170740000000 1.0
C      1  0.4825720000000  0.3961450000000  0.4970660000000 1.0
C      1  0.4009730000000  0.5550710000000  0.5172550000000 1.0
C      1  0.4251640000000  0.5601270000000  0.5501520000000 1.0
C      1  0.4695740000000  0.5232490000000  0.4295250000000 1.0
C      1  0.5362770000000  0.5401060000000  0.5520030000000 1.0
C      1  0.4530390000000  0.4638040000000  0.4263140000000 1.0
C      1  0.5863010000000  0.4390590000000  0.4762920000000 1.0
C      1  0.4064550000000  0.4650560000000  0.4592820000000 1.0
C      1  0.4898080000000  0.4619200000000  0.6081800000000 1.0
C      1  0.5333260000000  0.4808250000000  0.4435960000000 1.0
C      1  0.4736290000000  0.4868300000000  0.6091300000000 1.0
C      1  0.4516600000000  0.5875050000000  0.5165240000000 1.0
C      1  0.4418210000000  0.4104670000000  0.4959060000000 1.0
C      1  0.5919920000000  0.5544130000000  0.5095590000000 1.0
C      1  0.5794540000000  0.4955140000000  0.4646250000000 1.0
C      1  0.5997450000000  0.5171090000000  0.5409960000000 1.0
C      1  0.4476030000000  0.4678790000000  0.4763250000000 1.0
C      1  0.5149860000000  0.4744920000000  0.5122650000000 1.0
C      1  0.5346700000000  0.3928700000000  0.5067010000000 1.0
C      1  0.4902370000000  0.5603120000000  0.3961850000000 1.0
C      1  0.5096520000000  0.3940560000000  0.4873630000000 1.0
C      1  0.4274620000000  0.5244330000000  0.5762850000000 1.0
C      1  0.5817310000000  0.4755590000000  0.4426040000000 1.0
C      1  0.5987150000000  0.5170170000000  0.4658610000000 1.0
C      1  0.5349430000000  0.4796400000000  0.3881720000000 1.0
C      1  0.5239800000000  0.4510630000000  0.5270360000000 1.0
C      1  0.5697350000000  0.5827700000000  0.4926160000000 1.0
C      1  0.5523000000000  0.5020410000000  0.5889340000000 1.0
C      1  0.5725780000000  0.5712450000000  0.5179190000000 1.0
C      1  0.5713710000000  0.4835570000000  0.4170390000000 1.0
C      1  0.5428180000000  0.4879840000000  0.5088990000000 1.0
C      1  0.4854290000000  0.6017180000000  0.4709010000000 1.0
C      1  0.5590650000000  0.4877010000000  0.5632110000000 1.0
C      1  0.4164440000000  0.4382910000000  0.5315260000000 1.0
C      1  0.3963510000000  0.4650870000000  0.4870690000000 1.0
C      1  0.5530290000000  0.4437480000000  0.5074210000000 1.0
C      1  0.5450340000000  0.4683780000000  0.4160900000000 1.0
C      1  0.5287820000000  0.4250230000000  0.5735430000000 1.0
C      1  0.4500140000000  0.4381180000000  0.4404240000000 1.0
C      1  0.4015980000000  0.5157530000000  0.5631090000000 1.0
C      1  0.4265650000000  0.5779640000000  0.5275230000000 1.0
C      1  0.4330720000000  0.4813390000000  0.4973320000000 1.0
C      1  0.4968670000000  0.4573160000000  0.4066900000000 1.0
C      1  0.4726510000000  0.4024500000000  0.5265830000000 1.0
C      1  0.4637490000000  0.5211630000000  0.5401730000000 1.0
C      1  0.5795250000000  0.4464420000000  0.4492240000000 1.0
C      1  0.4943770000000  0.5041560000000  0.5720420000000 1.0
C      1  0.4820760000000  0.5560360000000  0.4800470000000 1.0
C      1  0.4917110000000  0.5021410000000  0.4260430000000 1.0
C      1  0.5100040000000  0.5142790000000  0.6131440000000 1.0
C      1  0.5292260000000  0.5145710000000  0.5418840000000 1.0
C      1  0.5022160000000  0.5939790000000  0.5677000000000 1.0
C      1  0.6010440000000  0.4837010000000  0.5079920000000 1.0
C      1  0.4917690000000  0.4100190000000  0.5470690000000 1.0
C      1  0.4847280000000  0.5318960000000  0.3903940000000 1.0
C      1  0.4696250000000  0.4186610000000  0.4508010000000 1.0
C      1  0.5539520000000  0.5755750000000  0.5605370000000 1.0
C      1  0.5449800000000  0.5628860000000  0.5354090000000 1.0
C      1  0.5373770000000  0.5075210000000  0.3929880000000 1.0
C      1  0.5364930000000  0.5331140000000  0.4331120000000 1.0
C      1  0.4373390000000  0.5522810000000  0.5755740000000 1.0
C      1  0.4639000000000  0.4051700000000  0.4768830000000 1.0
C      1  0.4091100000000  0.5071620000000  0.5355990000000 1.0
C      1  0.5724700000000  0.4411190000000  0.5492710000000 1.0
C      1  0.4800470000000  0.4742120000000  0.4232110000000 1.0
C      1  0.4107560000000  0.4890760000000  0.4436420000000 1.0
C      1  0.5605990000000  0.5417330000000  0.4742270000000 1.0
C      1  0.4690560000000  0.4997690000000  0.5175560000000 1.0
C      1  0.5795820000000  0.4413270000000  0.5214390000000 1.0
C      1  0.4954190000000  0.4491110000000  0.4788820000000 1.0
C      1  0.5219310000000  0.4480220000000  0.4653720000000 1.0
C      1  0.4870430000000  0.5778840000000  0.4185340000000 1.0
C      1  0.4435410000000  0.5455100000000  0.5048020000000 1.0
C      1  0.4479160000000  0.5078310000000  0.5613700000000 1.0
C      1  0.5298230000000  0.5511110000000  0.4144890000000 1.0
C      1  0.4098910000000  0.5433830000000  0.4497270000000 1.0
C      1  0.5062410000000  0.4790720000000  0.3883990000000 1.0
C      1  0.5850040000000  0.5339560000000  0.5570970000000 1.0
C      1  0.5053470000000  0.6099220000000  0.4898020000000 1.0
C      1  0.5961150000000  0.4876530000000  0.5361670000000 1.0
C      1  0.5654120000000  0.5326440000000  0.4288600000000 1.0
C      1  0.5117520000000  0.5948470000000  0.5167930000000 1.0
C      1  0.4045960000000  0.4908490000000  0.5000090000000 1.0
C      1  0.5553990000000  0.4680560000000  0.4909020000000 1.0
END
