TITL C-884127-5181-315 -3.37161124578513 125000 -23731.6374395742 0 0 155 (C1) n - 1
REM
REM in /home/nfs/bkarasulu/CARBON/AIRSS/Generating-Clusters/ReaxFF-fromJPCA2015/Units_Real/with-SteepDescent/Only-C1/SD-CG/Try1-3A/FIRE-CG
REM
REM
REM
REM
REM
REM ./C.cell (11c1c37f851c82e70ff6c80c92926a4b)
REM
REM compiler GCC version 9.2.1 20190827 (Red Hat 9.2.1-1)
REM options -cpp -mtune=generic -march=x86-64 -g -O0 -fpre-include=/usr/include/finclude/math-vector-fortran.h
REM seed 257271884 1464948124 1823981187 -780474959 -341282489 1616306777 1913707283 -896847898 -795212516 1433639214 -127657513 -682734019 333767640 -326318829 1583558021 610153954 -672720700 -368450500 -2029597711 -529549596 -1960870229 -584153710 -1607080734 -1969656973 315981443 1399970786 -1135804026 2076159041 -1678017581 -994669611 1124594332 668857378 909730425
REM
CELL 1.54180   50.00000   50.00000   50.00000   90.00000   90.00000   90.00000
LATT -1
SFAC C  
C      1  0.4837170000000  0.4882290000000  0.5789390000000 1.0
C      1  0.5629550000000  0.5007800000000  0.5324610000000 1.0
C      1  0.5374360000000  0.3918260000000  0.5436130000000 1.0
C      1  0.4692790000000  0.4848780000000  0.3985050000000 1.0
C      1  0.4767430000000  0.4653260000000  0.5198870000000 1.0
C      1  0.5494610000000  0.4658570000000  0.4727160000000 1.0
C      1  0.5482730000000  0.5689590000000  0.4201850000000 1.0
C      1  0.5278550000000  0.4249110000000  0.4437520000000 1.0
C      1  0.4758290000000  0.6021350000000  0.5171390000000 1.0
C      1  0.5077130000000  0.3907410000000  0.5405700000000 1.0
C      1  0.5006010000000  0.6134630000000  0.5302690000000 1.0
C      1  0.5913990000000  0.5049300000000  0.4505930000000 1.0
C      1  0.5412550000000  0.3957860000000  0.4754280000000 1.0
C      1  0.4552900000000  0.5081930000000  0.5124270000000 1.0
C      1  0.4195030000000  0.4939270000000  0.4387200000000 1.0
C      1  0.5421740000000  0.4589790000000  0.4059320000000 1.0
C      1  0.5681260000000  0.4469500000000  0.5532960000000 1.0
C      1  0.4300880000000  0.5810000000000  0.5242540000000 1.0
C      1  0.5922750000000  0.4569100000000  0.5125390000000 1.0
C      1  0.5307320000000  0.5540050000000  0.5595290000000 1.0
C      1  0.4191230000000  0.4221730000000  0.5017450000000 1.0
C      1  0.4217050000000  0.5173630000000  0.5566690000000 1.0
C      1  0.4665780000000  0.4929800000000  0.4448350000000 1.0
C      1  0.5313190000000  0.5047560000000  0.3960030000000 1.0
C      1  0.5960120000000  0.4769500000000  0.4575870000000 1.0
C      1  0.5146370000000  0.4937050000000  0.5364370000000 1.0
C      1  0.4868830000000  0.3942040000000  0.5194440000000 1.0
C      1  0.5227410000000  0.4782410000000  0.4689070000000 1.0
C      1  0.4696590000000  0.5283160000000  0.4719110000000 1.0
C      1  0.5362930000000  0.5099040000000  0.5302210000000 1.0
C      1  0.4433540000000  0.4515600000000  0.4352300000000 1.0
C      1  0.6064850000000  0.5131230000000  0.5449200000000 1.0
C      1  0.5229040000000  0.4773660000000  0.3924970000000 1.0
C      1  0.5686560000000  0.4798740000000  0.4886000000000 1.0
C      1  0.5114140000000  0.5374340000000  0.5436800000000 1.0
C      1  0.5048940000000  0.5737300000000  0.5213650000000 1.0
C      1  0.5265770000000  0.6089860000000  0.5186710000000 1.0
C      1  0.5631280000000  0.4428220000000  0.4599910000000 1.0
C      1  0.5227290000000  0.5493570000000  0.4724610000000 1.0
C      1  0.5313150000000  0.4443120000000  0.5245320000000 1.0
C      1  0.4225020000000  0.5432610000000  0.4560250000000 1.0
C      1  0.5207730000000  0.4035560000000  0.5636920000000 1.0
C      1  0.5756100000000  0.5548800000000  0.5386010000000 1.0
C      1  0.5858440000000  0.4918930000000  0.5487190000000 1.0
C      1  0.5260320000000  0.4496130000000  0.4288900000000 1.0
C      1  0.5488360000000  0.5063570000000  0.5883550000000 1.0
C      1  0.5524410000000  0.4161460000000  0.4557300000000 1.0
C      1  0.5573680000000  0.4057560000000  0.5250860000000 1.0
C      1  0.4884150000000  0.5796350000000  0.5696240000000 1.0
C      1  0.5491130000000  0.5855450000000  0.4929430000000 1.0
C      1  0.4157460000000  0.5639150000000  0.5434340000000 1.0
C      1  0.5000060000000  0.5897580000000  0.4725620000000 1.0
C      1  0.5302380000000  0.5355290000000  0.4505120000000 1.0
C      1  0.4826620000000  0.4427170000000  0.5452520000000 1.0
C      1  0.6168950000000  0.5171050000000  0.5182690000000 1.0
C      1  0.4539530000000  0.5861370000000  0.4529490000000 1.0
C      1  0.4550310000000  0.5323560000000  0.6031100000000 1.0
C      1  0.4807420000000  0.5413120000000  0.5436640000000 1.0
C      1  0.5126320000000  0.4394300000000  0.5455630000000 1.0
C      1  0.5494130000000  0.4007400000000  0.5004830000000 1.0
C      1  0.4074570000000  0.5294860000000  0.5062950000000 1.0
C      1  0.4408070000000  0.5843210000000  0.4767560000000 1.0
C      1  0.5011080000000  0.4500950000000  0.5917080000000 1.0
C      1  0.4819770000000  0.5176970000000  0.4481980000000 1.0
C      1  0.5929420000000  0.5277900000000  0.4687040000000 1.0
C      1  0.4229360000000  0.5207080000000  0.4347760000000 1.0
C      1  0.4353920000000  0.4663240000000  0.5628810000000 1.0
C      1  0.3922020000000  0.4851600000000  0.4814780000000 1.0
C      1  0.5468180000000  0.5904080000000  0.5223570000000 1.0
C      1  0.5831050000000  0.5528080000000  0.5106030000000 1.0
C      1  0.5086370000000  0.5237010000000  0.4367160000000 1.0
C      1  0.5040030000000  0.5058520000000  0.6104980000000 1.0
C      1  0.5258600000000  0.5218720000000  0.5989610000000 1.0
C      1  0.5967630000000  0.4699760000000  0.4873870000000 1.0
C      1  0.4794490000000  0.5447000000000  0.4937890000000 1.0
C      1  0.4690750000000  0.5320600000000  0.5188920000000 1.0
C      1  0.4977530000000  0.5631350000000  0.5921320000000 1.0
C      1  0.4528130000000  0.4816680000000  0.5224020000000 1.0
C      1  0.4859820000000  0.3958470000000  0.4888410000000 1.0
C      1  0.4489210000000  0.5540860000000  0.4156300000000 1.0
C      1  0.4370560000000  0.5635710000000  0.4411050000000 1.0
C      1  0.5049650000000  0.4801740000000  0.5126340000000 1.0
C      1  0.5194260000000  0.4571510000000  0.5030210000000 1.0
C      1  0.5157670000000  0.5483500000000  0.5169530000000 1.0
C      1  0.4838480000000  0.5875960000000  0.4490090000000 1.0
C      1  0.5384150000000  0.5110680000000  0.5022270000000 1.0
C      1  0.4942980000000  0.4698300000000  0.3931310000000 1.0
C      1  0.5267710000000  0.5783160000000  0.4747290000000 1.0
C      1  0.4094090000000  0.4404650000000  0.4836730000000 1.0
C      1  0.4599410000000  0.4371830000000  0.4565760000000 1.0
C      1  0.5709440000000  0.5661790000000  0.4880510000000 1.0
C      1  0.5108350000000  0.3950970000000  0.4731300000000 1.0
C      1  0.4630360000000  0.4101220000000  0.4767770000000 1.0
C      1  0.4585730000000  0.4565480000000  0.4773240000000 1.0
C      1  0.4605320000000  0.4034170000000  0.5248860000000 1.0
C      1  0.5228070000000  0.4361450000000  0.5741270000000 1.0
C      1  0.5084580000000  0.4658290000000  0.4459790000000 1.0
C      1  0.5475220000000  0.4545140000000  0.5727070000000 1.0
C      1  0.5219510000000  0.5741950000000  0.4206450000000 1.0
C      1  0.5902350000000  0.4626730000000  0.5409270000000 1.0
C      1  0.5588090000000  0.5073150000000  0.4083190000000 1.0
C      1  0.4776380000000  0.4456360000000  0.5760990000000 1.0
C      1  0.4877510000000  0.4455380000000  0.4097080000000 1.0
C      1  0.5017600000000  0.4413080000000  0.4876480000000 1.0
C      1  0.4271600000000  0.4689410000000  0.5177650000000 1.0
C      1  0.4556860000000  0.4837570000000  0.4701260000000 1.0
C      1  0.4690490000000  0.5664250000000  0.5521370000000 1.0
C      1  0.5757440000000  0.5502060000000  0.4638060000000 1.0
C      1  0.5074180000000  0.5357810000000  0.4915970000000 1.0
C      1  0.4188040000000  0.4665830000000  0.4414240000000 1.0
C      1  0.5681870000000  0.5204970000000  0.5738340000000 1.0
C      1  0.4175600000000  0.4888360000000  0.5539300000000 1.0
C      1  0.4964610000000  0.4771360000000  0.6030160000000 1.0
C      1  0.4763000000000  0.4502020000000  0.4961090000000 1.0
C      1  0.5364810000000  0.4810140000000  0.5766690000000 1.0
C      1  0.4271320000000  0.5565050000000  0.5681560000000 1.0
C      1  0.4856800000000  0.5329520000000  0.3967570000000 1.0
C      1  0.4559220000000  0.4756870000000  0.4236180000000 1.0
C      1  0.5076750000000  0.4223280000000  0.4650590000000 1.0
C      1  0.5051100000000  0.5895360000000  0.5475060000000 1.0
C      1  0.5099250000000  0.4871470000000  0.5639390000000 1.0
C      1  0.5705510000000  0.4609540000000  0.4142330000000 1.0
C      1  0.4197130000000  0.4409040000000  0.5248540000000 1.0
C      1  0.5110400000000  0.5229070000000  0.4075880000000 1.0
C      1  0.5513770000000  0.5690510000000  0.5446940000000 1.0
C      1  0.4792340000000  0.5215050000000  0.6157370000000 1.0
C      1  0.4860680000000  0.5811410000000  0.4985200000000 1.0
C      1  0.4457120000000  0.4072600000000  0.4985800000000 1.0
C      1  0.5566680000000  0.5435290000000  0.4410440000000 1.0
C      1  0.4558990000000  0.5075620000000  0.4850090000000 1.0
C      1  0.5732200000000  0.5180850000000  0.4306770000000 1.0
C      1  0.4048200000000  0.4848140000000  0.5277550000000 1.0
C      1  0.5659240000000  0.5041260000000  0.5035770000000 1.0
C      1  0.3957620000000  0.5021190000000  0.5051530000000 1.0
C      1  0.4587550000000  0.4235520000000  0.5459870000000 1.0
C      1  0.5931430000000  0.5263150000000  0.4998020000000 1.0
C      1  0.4354410000000  0.5337870000000  0.5796460000000 1.0
C      1  0.4567090000000  0.5869740000000  0.5334570000000 1.0
C      1  0.4126560000000  0.5353600000000  0.5350260000000 1.0
C      1  0.4246310000000  0.5741270000000  0.4955140000000 1.0
C      1  0.4159120000000  0.5466480000000  0.4842580000000 1.0
C      1  0.4604300000000  0.4694740000000  0.5769620000000 1.0
C      1  0.5227760000000  0.5489240000000  0.5877200000000 1.0
C      1  0.5602620000000  0.4365690000000  0.5271100000000 1.0
C      1  0.5150860000000  0.4997860000000  0.4888080000000 1.0
C      1  0.4633440000000  0.5135720000000  0.3974430000000 1.0
C      1  0.4002560000000  0.4607100000000  0.4670100000000 1.0
C      1  0.4410620000000  0.5268450000000  0.4112380000000 1.0
C      1  0.4345370000000  0.4396850000000  0.5499610000000 1.0
C      1  0.4854770000000  0.4478570000000  0.4393150000000 1.0
C      1  0.4768330000000  0.5582190000000  0.4081680000000 1.0
C      1  0.5823050000000  0.4567270000000  0.4413340000000 1.0
C      1  0.5865820000000  0.5335180000000  0.5576410000000 1.0
C      1  0.4940220000000  0.5772890000000  0.4232210000000 1.0
C      1  0.4773890000000  0.5500760000000  0.6091980000000 1.0
END
