TITL C-884130-5973-135 -2.917319160453 125000 -24482.9281738993 0 0 159 (C1) n - 1
REM
REM in /home/nfs/bkarasulu/CARBON/AIRSS/Generating-Clusters/ReaxFF-fromJPCA2015/Units_Real/with-SteepDescent/Only-C1/SD-CG/Try1-3A/FIRE-CG
REM
REM
REM
REM
REM
REM ./C.cell (11c1c37f851c82e70ff6c80c92926a4b)
REM
REM compiler GCC version 9.2.1 20190827 (Red Hat 9.2.1-1)
REM options -cpp -mtune=generic -march=x86-64 -g -O0 -fpre-include=/usr/include/finclude/math-vector-fortran.h
REM seed 1989539442 1263979307 19846248 -1688987815 283520572 1910266920 1800238008 -1080050580 -781655642 -660945635 -592660547 -1048023176 1965188380 2134843157 1787141426 665741825 -243108901 -657729041 -529435034 -224804697 -288989499 272928500 2052503089 -2024140751 -410431992 -1472597613 -1549197666 -2052711283 2058714647 478921278 1387537447 -1886035658 -1320274104
REM
CELL 1.54180   50.00000   50.00000   50.00000   90.00000   90.00000   90.00000
LATT -1
SFAC C  
C      1  0.4962510000000  0.5340310000000  0.4096000000000 1.0
C      1  0.5692300000000  0.4557680000000  0.4910080000000 1.0
C      1  0.5119090000000  0.5326100000000  0.5077310000000 1.0
C      1  0.4719090000000  0.5630350000000  0.5894980000000 1.0
C      1  0.4121420000000  0.4411260000000  0.4590270000000 1.0
C      1  0.5901710000000  0.5371410000000  0.4389790000000 1.0
C      1  0.4434690000000  0.4788320000000  0.4811510000000 1.0
C      1  0.5004390000000  0.4452680000000  0.4939830000000 1.0
C      1  0.5218440000000  0.5482720000000  0.4115550000000 1.0
C      1  0.4743000000000  0.5064290000000  0.4974750000000 1.0
C      1  0.4783570000000  0.4183730000000  0.4413830000000 1.0
C      1  0.5707240000000  0.4898050000000  0.4551750000000 1.0
C      1  0.4912190000000  0.5154130000000  0.5190030000000 1.0
C      1  0.5697000000000  0.5363850000000  0.4198380000000 1.0
C      1  0.5154350000000  0.4570500000000  0.5913640000000 1.0
C      1  0.5939150000000  0.4951650000000  0.5282350000000 1.0
C      1  0.4651390000000  0.4078000000000  0.5383980000000 1.0
C      1  0.5608460000000  0.5238020000000  0.5528990000000 1.0
C      1  0.5449800000000  0.4570950000000  0.5244680000000 1.0
C      1  0.5255520000000  0.4714780000000  0.4564490000000 1.0
C      1  0.5737980000000  0.5003010000000  0.5643150000000 1.0
C      1  0.4226610000000  0.4654320000000  0.4469110000000 1.0
C      1  0.3877090000000  0.4889600000000  0.5068800000000 1.0
C      1  0.5190950000000  0.4614700000000  0.4057210000000 1.0
C      1  0.5945880000000  0.5136090000000  0.4620260000000 1.0
C      1  0.5840530000000  0.4799410000000  0.5480930000000 1.0
C      1  0.4951140000000  0.5205520000000  0.6035250000000 1.0
C      1  0.4656460000000  0.4609930000000  0.4162200000000 1.0
C      1  0.5624680000000  0.4568280000000  0.5842630000000 1.0
C      1  0.4773260000000  0.5457940000000  0.4290340000000 1.0
C      1  0.5316450000000  0.4059250000000  0.4565460000000 1.0
C      1  0.4945180000000  0.4388290000000  0.5213970000000 1.0
C      1  0.5862050000000  0.5412170000000  0.5088790000000 1.0
C      1  0.5174700000000  0.4908830000000  0.3992650000000 1.0
C      1  0.5635620000000  0.4832000000000  0.4830440000000 1.0
C      1  0.5396490000000  0.3949870000000  0.4835260000000 1.0
C      1  0.5064560000000  0.4337560000000  0.4031720000000 1.0
C      1  0.4934270000000  0.5776960000000  0.5763340000000 1.0
C      1  0.4352570000000  0.5264420000000  0.4315060000000 1.0
C      1  0.4456840000000  0.5619540000000  0.5773560000000 1.0
C      1  0.6105840000000  0.4695580000000  0.4596790000000 1.0
C      1  0.5545910000000  0.5974910000000  0.4713210000000 1.0
C      1  0.5491240000000  0.4192340000000  0.4367090000000 1.0
C      1  0.5381000000000  0.5025340000000  0.4159480000000 1.0
C      1  0.5006780000000  0.6110280000000  0.4915850000000 1.0
C      1  0.4934790000000  0.5640240000000  0.5300370000000 1.0
C      1  0.5177580000000  0.5136420000000  0.4633090000000 1.0
C      1  0.5289430000000  0.4216220000000  0.4166820000000 1.0
C      1  0.4560700000000  0.5325770000000  0.4863100000000 1.0
C      1  0.4645090000000  0.4213520000000  0.5645120000000 1.0
C      1  0.6113990000000  0.4671280000000  0.4888230000000 1.0
C      1  0.5228480000000  0.4940600000000  0.5368320000000 1.0
C      1  0.5402580000000  0.4047240000000  0.5346860000000 1.0
C      1  0.4513440000000  0.5016230000000  0.5465240000000 1.0
C      1  0.5314110000000  0.4802730000000  0.5126580000000 1.0
C      1  0.5311190000000  0.4814720000000  0.5942050000000 1.0
C      1  0.5078230000000  0.5209650000000  0.5646910000000 1.0
C      1  0.4270480000000  0.5638660000000  0.4611130000000 1.0
C      1  0.6187700000000  0.4979460000000  0.4533680000000 1.0
C      1  0.5816390000000  0.5608140000000  0.4492770000000 1.0
C      1  0.5171750000000  0.4314790000000  0.5754330000000 1.0
C      1  0.4309820000000  0.4226360000000  0.4713900000000 1.0
C      1  0.5956480000000  0.4453430000000  0.4995130000000 1.0
C      1  0.5844300000000  0.4179860000000  0.4938400000000 1.0
C      1  0.4662050000000  0.5888730000000  0.4390710000000 1.0
C      1  0.4173760000000  0.5586660000000  0.5071010000000 1.0
C      1  0.4490190000000  0.5864740000000  0.5284070000000 1.0
C      1  0.5618340000000  0.5713240000000  0.5392570000000 1.0
C      1  0.4461500000000  0.4904180000000  0.5904870000000 1.0
C      1  0.5384670000000  0.5832140000000  0.5529890000000 1.0
C      1  0.5235930000000  0.6079790000000  0.5099050000000 1.0
C      1  0.5027070000000  0.4113720000000  0.4565100000000 1.0
C      1  0.5139190000000  0.5418610000000  0.4575650000000 1.0
C      1  0.4725290000000  0.5481990000000  0.5421630000000 1.0
C      1  0.5690360000000  0.5854070000000  0.5148420000000 1.0
C      1  0.5325520000000  0.6016110000000  0.4525220000000 1.0
C      1  0.5147050000000  0.5082600000000  0.5905590000000 1.0
C      1  0.5725070000000  0.5442850000000  0.5357950000000 1.0
C      1  0.4980370000000  0.5578060000000  0.5022810000000 1.0
C      1  0.4017170000000  0.4686940000000  0.5242460000000 1.0
C      1  0.4950480000000  0.4182360000000  0.4841120000000 1.0
C      1  0.4511590000000  0.5080580000000  0.4194600000000 1.0
C      1  0.5392260000000  0.4197040000000  0.5592910000000 1.0
C      1  0.4859990000000  0.5506330000000  0.4561440000000 1.0
C      1  0.4511820000000  0.4120170000000  0.5125310000000 1.0
C      1  0.4569350000000  0.4133010000000  0.4614420000000 1.0
C      1  0.5636690000000  0.4362820000000  0.5649740000000 1.0
C      1  0.4329560000000  0.5186340000000  0.5307640000000 1.0
C      1  0.5748110000000  0.4370140000000  0.4440480000000 1.0
C      1  0.4682000000000  0.4900700000000  0.4071100000000 1.0
C      1  0.6066520000000  0.4934700000000  0.5045500000000 1.0
C      1  0.5484200000000  0.4385640000000  0.5026170000000 1.0
C      1  0.5843700000000  0.4649630000000  0.4459350000000 1.0
C      1  0.3945080000000  0.5167140000000  0.4976840000000 1.0
C      1  0.5104520000000  0.4713350000000  0.4835650000000 1.0
C      1  0.4130880000000  0.4861700000000  0.4671720000000 1.0
C      1  0.4741550000000  0.5570730000000  0.4831530000000 1.0
C      1  0.5791830000000  0.4235520000000  0.4669590000000 1.0
C      1  0.5067330000000  0.6104900000000  0.4627570000000 1.0
C      1  0.5211620000000  0.3789280000000  0.4991010000000 1.0
C      1  0.4732850000000  0.6081590000000  0.5017240000000 1.0
C      1  0.5195980000000  0.4583760000000  0.4333860000000 1.0
C      1  0.5160170000000  0.3919220000000  0.5268340000000 1.0
C      1  0.5305990000000  0.5199770000000  0.4879570000000 1.0
C      1  0.5385820000000  0.4970500000000  0.4457400000000 1.0
C      1  0.5840880000000  0.5680600000000  0.4977010000000 1.0
C      1  0.4343320000000  0.4547160000000  0.5468330000000 1.0
C      1  0.5500810000000  0.6020340000000  0.4991640000000 1.0
C      1  0.4517060000000  0.4675660000000  0.4411130000000 1.0
C      1  0.4304730000000  0.5336410000000  0.4627630000000 1.0
C      1  0.5257590000000  0.5571900000000  0.4369900000000 1.0
C      1  0.5193180000000  0.5837600000000  0.4329540000000 1.0
C      1  0.4544960000000  0.5839930000000  0.4976410000000 1.0
C      1  0.5672560000000  0.4559160000000  0.5430800000000 1.0
C      1  0.5778260000000  0.5785000000000  0.4698790000000 1.0
C      1  0.5967790000000  0.5185660000000  0.4938710000000 1.0
C      1  0.4929440000000  0.5062470000000  0.4011710000000 1.0
C      1  0.3939110000000  0.4468280000000  0.4819380000000 1.0
C      1  0.4071890000000  0.5267310000000  0.5400650000000 1.0
C      1  0.4932430000000  0.4103820000000  0.5308480000000 1.0
C      1  0.5556090000000  0.4096400000000  0.5064980000000 1.0
C      1  0.5457770000000  0.4986280000000  0.4976750000000 1.0
C      1  0.4090610000000  0.5155990000000  0.4728560000000 1.0
C      1  0.4921220000000  0.5984870000000  0.4395790000000 1.0
C      1  0.4549790000000  0.4748260000000  0.5320810000000 1.0
C      1  0.4806690000000  0.5191300000000  0.5461600000000 1.0
C      1  0.4800230000000  0.4359600000000  0.4178820000000 1.0
C      1  0.5221800000000  0.5737070000000  0.5773020000000 1.0
C      1  0.4704710000000  0.6054960000000  0.5306890000000 1.0
C      1  0.4934910000000  0.5917050000000  0.5461740000000 1.0
C      1  0.5019100000000  0.4779640000000  0.5513530000000 1.0
C      1  0.4092890000000  0.5226630000000  0.5717360000000 1.0
C      1  0.4672760000000  0.4076280000000  0.4880260000000 1.0
C      1  0.4653270000000  0.4819060000000  0.4632570000000 1.0
C      1  0.4724150000000  0.5368850000000  0.6055260000000 1.0
C      1  0.4481780000000  0.4447080000000  0.5704100000000 1.0
C      1  0.4383030000000  0.5379350000000  0.5091240000000 1.0
C      1  0.4325520000000  0.5378480000000  0.5877610000000 1.0
C      1  0.3875740000000  0.4751260000000  0.4817030000000 1.0
C      1  0.4885460000000  0.4261250000000  0.5812630000000 1.0
C      1  0.4488710000000  0.5502110000000  0.4218120000000 1.0
C      1  0.4550440000000  0.4868340000000  0.5055870000000 1.0
C      1  0.4600590000000  0.4647780000000  0.5890800000000 1.0
C      1  0.4488060000000  0.5642390000000  0.5478370000000 1.0
C      1  0.5315430000000  0.5191290000000  0.5483170000000 1.0
C      1  0.5209420000000  0.6005360000000  0.5378740000000 1.0
C      1  0.5595800000000  0.4846460000000  0.5867640000000 1.0
C      1  0.4491630000000  0.5181980000000  0.6004070000000 1.0
C      1  0.4825010000000  0.4605590000000  0.5379980000000 1.0
C      1  0.4275870000000  0.4949570000000  0.5673560000000 1.0
C      1  0.5459250000000  0.5295580000000  0.4068710000000 1.0
C      1  0.3964330000000  0.5402590000000  0.5164300000000 1.0
C      1  0.4277280000000  0.4248790000000  0.5012440000000 1.0
C      1  0.4126650000000  0.4724730000000  0.5511280000000 1.0
C      1  0.4417610000000  0.5750010000000  0.4376600000000 1.0
C      1  0.4912830000000  0.4931280000000  0.4740160000000 1.0
C      1  0.4059870000000  0.4431770000000  0.5082510000000 1.0
C      1  0.4860480000000  0.4520270000000  0.5954410000000 1.0
C      1  0.4269920000000  0.5771590000000  0.4864730000000 1.0
END
