TITL C-883729-9652-390 33.6411747480361 125000 -28440.2561227088 0 0 188 (C1) n - 1
REM
REM in /home/nfs/bkarasulu/CARBON/AIRSS/Generating-Clusters/ReaxFF-fromJPCA2015/Units_Real/with-SteepDescent/Only-C1/SD-CG/Try1-3A/FIRE-CG
REM
REM
REM
REM
REM
REM ./C.cell (11c1c37f851c82e70ff6c80c92926a4b)
REM
REM compiler GCC version 9.2.1 20190827 (Red Hat 9.2.1-1)
REM options -cpp -mtune=generic -march=x86-64 -g -O0 -fpre-include=/usr/include/finclude/math-vector-fortran.h
REM seed -826521935 1539234748 184865141 -2077374332 -336431115 416797702 -1680122406 -998048272 -1428746650 1329418819 -834080836 340429219 -270831270 41272825 -1575723049 123261529 755442370 1522558712 1734100198 791620260 1003694719 -1853679961 943577787 -1134219739 -1728893224 685731529 1647059716 1625069272 1947008518 1925638989 -1488092942 1047694497 1860915176
REM
CELL 1.54180   50.00000   50.00000   50.00000   90.00000   90.00000   90.00000
LATT -1
SFAC C  
C      1  0.5536500000000  0.5192220000000  0.4973680000000 1.0
C      1  0.5052330000000  0.5522940000000  0.4386820000000 1.0
C      1  0.4531560000000  0.4185700000000  0.5653620000000 1.0
C      1  0.4214280000000  0.4844840000000  0.5969620000000 1.0
C      1  0.5477830000000  0.4171870000000  0.4587020000000 1.0
C      1  0.4492520000000  0.5184960000000  0.5011600000000 1.0
C      1  0.4519950000000  0.5352900000000  0.3977320000000 1.0
C      1  0.4414270000000  0.5793740000000  0.4516470000000 1.0
C      1  0.4408290000000  0.4690000000000  0.5399690000000 1.0
C      1  0.5193040000000  0.5218860000000  0.5944920000000 1.0
C      1  0.4647500000000  0.4689450000000  0.4508100000000 1.0
C      1  0.4555790000000  0.5182850000000  0.4472560000000 1.0
C      1  0.4360500000000  0.4111240000000  0.4661050000000 1.0
C      1  0.5511650000000  0.4420550000000  0.5162530000000 1.0
C      1  0.5602300000000  0.5973930000000  0.5084620000000 1.0
C      1  0.4211440000000  0.4586990000000  0.4533840000000 1.0
C      1  0.4703170000000  0.6051380000000  0.4365540000000 1.0
C      1  0.4767240000000  0.5515810000000  0.4380660000000 1.0
C      1  0.5753930000000  0.5252160000000  0.4513580000000 1.0
C      1  0.4616190000000  0.5985090000000  0.5252670000000 1.0
C      1  0.5494500000000  0.4677280000000  0.4648640000000 1.0
C      1  0.4076720000000  0.5219800000000  0.4499530000000 1.0
C      1  0.4825730000000  0.5574820000000  0.5025850000000 1.0
C      1  0.5011850000000  0.5109440000000  0.6150320000000 1.0
C      1  0.4088210000000  0.4530190000000  0.5091420000000 1.0
C      1  0.3992850000000  0.5259360000000  0.5243900000000 1.0
C      1  0.5102270000000  0.5218830000000  0.4790890000000 1.0
C      1  0.5214250000000  0.5561160000000  0.4143730000000 1.0
C      1  0.4765440000000  0.4252640000000  0.4261580000000 1.0
C      1  0.5879400000000  0.4985130000000  0.4386790000000 1.0
C      1  0.4987810000000  0.5373530000000  0.5180180000000 1.0
C      1  0.5716880000000  0.4226590000000  0.5066810000000 1.0
C      1  0.4221770000000  0.5327150000000  0.4059670000000 1.0
C      1  0.3929830000000  0.4891840000000  0.4820250000000 1.0
C      1  0.4365940000000  0.5913950000000  0.5114800000000 1.0
C      1  0.4851060000000  0.3994230000000  0.5148420000000 1.0
C      1  0.5685400000000  0.5014190000000  0.5790520000000 1.0
C      1  0.5587770000000  0.5712260000000  0.4367610000000 1.0
C      1  0.4646240000000  0.4171430000000  0.4555300000000 1.0
C      1  0.5021010000000  0.4712110000000  0.3913540000000 1.0
C      1  0.5054410000000  0.4773620000000  0.4825120000000 1.0
C      1  0.5721320000000  0.4857910000000  0.5258980000000 1.0
C      1  0.4161100000000  0.5446360000000  0.5414770000000 1.0
C      1  0.5758080000000  0.4517050000000  0.4302570000000 1.0
C      1  0.5013840000000  0.6134360000000  0.4978950000000 1.0
C      1  0.5540640000000  0.4321070000000  0.4325580000000 1.0
C      1  0.4607970000000  0.5469910000000  0.6065300000000 1.0
C      1  0.4190130000000  0.5701920000000  0.5192520000000 1.0
C      1  0.5099930000000  0.4897770000000  0.5240180000000 1.0
C      1  0.4636910000000  0.4967100000000  0.4641340000000 1.0
C      1  0.6126340000000  0.4951430000000  0.4847730000000 1.0
C      1  0.4140960000000  0.5102000000000  0.4222710000000 1.0
C      1  0.4512780000000  0.4023840000000  0.5182880000000 1.0
C      1  0.4740180000000  0.5208980000000  0.6137680000000 1.0
C      1  0.4591690000000  0.5078440000000  0.5917090000000 1.0
C      1  0.5741810000000  0.5823290000000  0.5518410000000 1.0
C      1  0.5487780000000  0.4134600000000  0.5600680000000 1.0
C      1  0.5209090000000  0.5983440000000  0.4482090000000 1.0
C      1  0.4507310000000  0.6027540000000  0.4850180000000 1.0
C      1  0.4926180000000  0.4696870000000  0.4409450000000 1.0
C      1  0.5006100000000  0.4047150000000  0.5630150000000 1.0
C      1  0.6191290000000  0.5507240000000  0.4973410000000 1.0
C      1  0.4318640000000  0.4872230000000  0.4139060000000 1.0
C      1  0.5933530000000  0.5777950000000  0.5329260000000 1.0
C      1  0.4781670000000  0.5746380000000  0.5285390000000 1.0
C      1  0.4522540000000  0.4868780000000  0.3927490000000 1.0
C      1  0.4757810000000  0.4977440000000  0.5706980000000 1.0
C      1  0.5469400000000  0.5463210000000  0.5395840000000 1.0
C      1  0.5261080000000  0.6059180000000  0.5463280000000 1.0
C      1  0.5278670000000  0.4605370000000  0.4016880000000 1.0
C      1  0.4688260000000  0.4458930000000  0.4707320000000 1.0
C      1  0.4001200000000  0.4881340000000  0.5569460000000 1.0
C      1  0.4867510000000  0.5317570000000  0.5429870000000 1.0
C      1  0.5828600000000  0.5747830000000  0.4700890000000 1.0
C      1  0.4683140000000  0.5634040000000  0.3999750000000 1.0
C      1  0.5083540000000  0.4817780000000  0.6167310000000 1.0
C      1  0.5633160000000  0.5546750000000  0.5656460000000 1.0
C      1  0.5010570000000  0.5118980000000  0.5660560000000 1.0
C      1  0.6014320000000  0.5240950000000  0.4942240000000 1.0
C      1  0.4496070000000  0.6042270000000  0.4574500000000 1.0
C      1  0.4535620000000  0.4386300000000  0.5859220000000 1.0
C      1  0.5356000000000  0.5813100000000  0.4282830000000 1.0
C      1  0.5383250000000  0.4910180000000  0.4500010000000 1.0
C      1  0.5456370000000  0.4595190000000  0.5836480000000 1.0
C      1  0.4582050000000  0.5167200000000  0.5299910000000 1.0
C      1  0.4624340000000  0.4460580000000  0.4133930000000 1.0
C      1  0.4149480000000  0.4320440000000  0.4632210000000 1.0
C      1  0.5004420000000  0.4546000000000  0.4651170000000 1.0
C      1  0.5886120000000  0.4448600000000  0.4968830000000 1.0
C      1  0.5596060000000  0.4047460000000  0.4869910000000 1.0
C      1  0.4463110000000  0.4246040000000  0.5377010000000 1.0
C      1  0.5728240000000  0.4794310000000  0.4213120000000 1.0
C      1  0.4192750000000  0.4656810000000  0.5590270000000 1.0
C      1  0.5350700000000  0.5066450000000  0.3975990000000 1.0
C      1  0.4113420000000  0.5599190000000  0.4943430000000 1.0
C      1  0.4169440000000  0.5331160000000  0.5735340000000 1.0
C      1  0.4962250000000  0.6021800000000  0.4419990000000 1.0
C      1  0.5800920000000  0.5581790000000  0.4478850000000 1.0
C      1  0.5441750000000  0.5041950000000  0.5968330000000 1.0
C      1  0.5848320000000  0.4553140000000  0.5504570000000 1.0
C      1  0.4363120000000  0.5570210000000  0.4738680000000 1.0
C      1  0.5297020000000  0.4357680000000  0.4172500000000 1.0
C      1  0.4852690000000  0.4751570000000  0.5279560000000 1.0
C      1  0.4412450000000  0.5327140000000  0.5894360000000 1.0
C      1  0.5356690000000  0.4474410000000  0.5395580000000 1.0
C      1  0.5302400000000  0.4688750000000  0.5589430000000 1.0
C      1  0.5384310000000  0.5617700000000  0.5178270000000 1.0
C      1  0.5240330000000  0.5530900000000  0.6020510000000 1.0
C      1  0.4199590000000  0.4813960000000  0.4723370000000 1.0
C      1  0.3941670000000  0.4978310000000  0.5300300000000 1.0
C      1  0.5047650000000  0.4196200000000  0.4230060000000 1.0
C      1  0.4567510000000  0.5433860000000  0.4897880000000 1.0
C      1  0.4330010000000  0.5332650000000  0.4576050000000 1.0
C      1  0.5952670000000  0.4587420000000  0.4514350000000 1.0
C      1  0.5697460000000  0.4318940000000  0.5569200000000 1.0
C      1  0.4091790000000  0.4289070000000  0.4927950000000 1.0
C      1  0.5317730000000  0.3997750000000  0.5350440000000 1.0
C      1  0.5255180000000  0.4744970000000  0.5033060000000 1.0
C      1  0.5750360000000  0.5242100000000  0.4799130000000 1.0
C      1  0.6141620000000  0.4811600000000  0.5099660000000 1.0
C      1  0.3958560000000  0.5354480000000  0.4972100000000 1.0
C      1  0.5303070000000  0.3931690000000  0.4581800000000 1.0
C      1  0.4995960000000  0.5676650000000  0.4816280000000 1.0
C      1  0.5056330000000  0.3977700000000  0.4426810000000 1.0
C      1  0.5141000000000  0.6113790000000  0.5223000000000 1.0
C      1  0.4445800000000  0.5379270000000  0.5446380000000 1.0
C      1  0.4819280000000  0.5781120000000  0.5699270000000 1.0
C      1  0.5343140000000  0.4280150000000  0.5798400000000 1.0
C      1  0.4956440000000  0.5614580000000  0.3964580000000 1.0
C      1  0.5148360000000  0.5914940000000  0.4800120000000 1.0
C      1  0.5280560000000  0.4445810000000  0.4997880000000 1.0
C      1  0.4927190000000  0.4612310000000  0.6065740000000 1.0
C      1  0.4989130000000  0.4295910000000  0.5133030000000 1.0
C      1  0.5227640000000  0.3832790000000  0.4851520000000 1.0
C      1  0.5769920000000  0.5273430000000  0.5713440000000 1.0
C      1  0.5986580000000  0.4964020000000  0.5321950000000 1.0
C      1  0.5155500000000  0.5176710000000  0.5071670000000 1.0
C      1  0.5117960000000  0.5476370000000  0.4661420000000 1.0
C      1  0.4842060000000  0.3958620000000  0.4630660000000 1.0
C      1  0.4366670000000  0.4567660000000  0.5152570000000 1.0
C      1  0.4422010000000  0.4955110000000  0.4844200000000 1.0
C      1  0.5358690000000  0.4787590000000  0.6053260000000 1.0
C      1  0.4310960000000  0.4090760000000  0.4944210000000 1.0
C      1  0.3917120000000  0.5172000000000  0.4738630000000 1.0
C      1  0.5485160000000  0.4812640000000  0.4042960000000 1.0
C      1  0.4640950000000  0.4862820000000  0.5443240000000 1.0
C      1  0.5919280000000  0.5232050000000  0.5238120000000 1.0
C      1  0.4312840000000  0.4589390000000  0.5856750000000 1.0
C      1  0.4389830000000  0.4629590000000  0.4293970000000 1.0
C      1  0.4718650000000  0.6135360000000  0.5018920000000 1.0
C      1  0.4708740000000  0.5558650000000  0.5493080000000 1.0
C      1  0.5480110000000  0.5171290000000  0.4405770000000 1.0
C      1  0.5031270000000  0.5915570000000  0.5579030000000 1.0
C      1  0.4077820000000  0.5057630000000  0.5792190000000 1.0
C      1  0.5316510000000  0.4444650000000  0.4698690000000 1.0
C      1  0.5059460000000  0.4217230000000  0.5833580000000 1.0
C      1  0.6090960000000  0.5743850000000  0.5090640000000 1.0
C      1  0.4736740000000  0.4646160000000  0.3950410000000 1.0
C      1  0.5418390000000  0.3920330000000  0.5052640000000 1.0
C      1  0.5183960000000  0.4261140000000  0.5346820000000 1.0
C      1  0.5022410000000  0.3904890000000  0.5391630000000 1.0
C      1  0.4934230000000  0.3876510000000  0.4890870000000 1.0
C      1  0.4429120000000  0.3999760000000  0.5462000000000 1.0
C      1  0.5061090000000  0.4998970000000  0.3948080000000 1.0
C      1  0.4809360000000  0.4510890000000  0.5158500000000 1.0
C      1  0.5461090000000  0.5652370000000  0.5902280000000 1.0
C      1  0.4575720000000  0.5118980000000  0.3783160000000 1.0
C      1  0.5556920000000  0.5994290000000  0.5375330000000 1.0
C      1  0.5633080000000  0.5294610000000  0.5227150000000 1.0
C      1  0.4772470000000  0.5705120000000  0.5990760000000 1.0
C      1  0.4595350000000  0.4499170000000  0.4988690000000 1.0
C      1  0.4816390000000  0.4399340000000  0.5952740000000 1.0
C      1  0.5196710000000  0.4937400000000  0.5516310000000 1.0
C      1  0.6011540000000  0.4569040000000  0.5201000000000 1.0
C      1  0.4916530000000  0.5006860000000  0.4780030000000 1.0
C      1  0.6065600000000  0.4865920000000  0.4572500000000 1.0
C      1  0.5102380000000  0.4920720000000  0.4410300000000 1.0
C      1  0.5386970000000  0.5807170000000  0.4974470000000 1.0
C      1  0.4708750000000  0.5259040000000  0.4259060000000 1.0
C      1  0.5762750000000  0.4592760000000  0.4736260000000 1.0
C      1  0.3927040000000  0.4774470000000  0.5086200000000 1.0
C      1  0.5382350000000  0.5287580000000  0.4158150000000 1.0
C      1  0.4942290000000  0.5058530000000  0.4208420000000 1.0
C      1  0.5724930000000  0.4712070000000  0.5713020000000 1.0
C      1  0.5527860000000  0.4909740000000  0.5065860000000 1.0
C      1  0.5852170000000  0.5893440000000  0.4932330000000 1.0
C      1  0.5025800000000  0.5712550000000  0.6140270000000 1.0
C      1  0.4610860000000  0.5750790000000  0.4291170000000 1.0
END
