TITL C-883734-4173-5 -1884913.86261451 125000 -8290.03046871884 0 0 57 (C1) n - 1
REM
REM in /home/nfs/bkarasulu/CARBON/AIRSS/Generating-Clusters/ReaxFF-fromJPCA2015/Units_Real/with-SteepDescent/Only-C1/SD-CG/Try1-3A/FIRE-CG
REM
REM
REM
REM
REM
REM ./C.cell (11c1c37f851c82e70ff6c80c92926a4b)
REM
REM compiler GCC version 9.2.1 20190827 (Red Hat 9.2.1-1)
REM options -cpp -mtune=generic -march=x86-64 -g -O0 -fpre-include=/usr/include/finclude/math-vector-fortran.h
REM seed 664173233 862317526 -997456940 2054913379 -1394114907 -1465480919 1189861302 -143610091 -1354850907 116872078 -1916808298 875443246 -1055236326 -1677518624 -177784324 -1661923075 -828623505 636006970 1279778483 -1585270774 2032501726 1687933111 701828845 1464653127 -799219999 888931429 -2099375352 -789830244 263766695 -1078505771 -854948311 -42610040 -1637103103
REM
CELL 1.54180   50.00000   50.00000   50.00000   90.00000   90.00000   90.00000
LATT -1
SFAC C  
C      1  0.4899940000000  0.5762020000000  0.4974850000000 1.0
C      1  0.4726160000000  0.5643900000000  0.4743980000000 1.0
C      1  0.5720590000000  0.4731590000000  0.5076330000000 1.0
C      1  0.4512340000000  0.5316190000000  0.5016290000000 1.0
C      1  0.4939730000000  0.4510720000000  0.4733090000000 1.0
C      1  0.4399380000000  0.5140170000000  0.4536620000000 1.0
C      1  0.5088690000000  0.4508870000000  0.5492470000000 1.0
C      1  0.4321460000000  0.5097320000000  0.5036740000000 1.0
C      1  0.4734230000000  0.5062590000000  0.5576320000000 1.0
C      1  0.5761700000000  0.4976580000000  0.4903540000000 1.0
C      1  0.5535990000000  0.5081400000000  0.5356850000000 1.0
C      1  0.4473890000000  0.4881610000000  0.4527610000000 1.0
C      1  0.4870030000000  0.4661920000000  0.5616770000000 1.0
C      1  0.4633630000000  0.4793070000000  0.5497900000000 1.0
C      1  0.4806440000000  0.5254910000000  0.5115960000000 1.0
C      1  0.5106640000000  0.4866160000000  0.5276300000000 1.0
C      1  0.4918910000000  0.4815910000000  0.4846310000000 1.0
C      1  0.5177820000000  0.5635120000000  0.4982530000000 1.0
C      1  0.4434100000000  0.5419260000000  0.4540800000000 1.0
C      1  0.5158040000000  0.5207220000000  0.4389490000000 1.0
C      1  0.4948550000000  0.4213950000000  0.5053710000000 1.0
C      1  0.5362360000000  0.5221890000000  0.5550330000000 1.0
C      1  0.4867520000000  0.5682960000000  0.5247470000000 1.0
C      1  0.5031630000000  0.5000710000000  0.4725180000000 1.0
C      1  0.5346020000000  0.4690930000000  0.4519280000000 1.0
C      1  0.4861470000000  0.5237810000000  0.4379860000000 1.0
C      1  0.5136160000000  0.4402930000000  0.4944380000000 1.0
C      1  0.4728370000000  0.5474750000000  0.4495230000000 1.0
C      1  0.4450250000000  0.4678020000000  0.5286520000000 1.0
C      1  0.5656850000000  0.5540740000000  0.5103280000000 1.0
C      1  0.4889890000000  0.4941940000000  0.5120320000000 1.0
C      1  0.5368690000000  0.4699310000000  0.4812920000000 1.0
C      1  0.4718610000000  0.4973080000000  0.4340210000000 1.0
C      1  0.4469730000000  0.5534320000000  0.4819290000000 1.0
C      1  0.5593300000000  0.4803540000000  0.5326050000000 1.0
C      1  0.5577140000000  0.4607230000000  0.4855510000000 1.0
C      1  0.5474100000000  0.4998360000000  0.4851420000000 1.0
C      1  0.5258700000000  0.5476900000000  0.5445050000000 1.0
C      1  0.5306890000000  0.4952450000000  0.4383930000000 1.0
C      1  0.5051320000000  0.5376510000000  0.4946230000000 1.0
C      1  0.4636810000000  0.4453610000000  0.4766140000000 1.0
C      1  0.5111610000000  0.4352240000000  0.5249330000000 1.0
C      1  0.5236070000000  0.4987140000000  0.5664550000000 1.0
C      1  0.5742810000000  0.5262140000000  0.5033860000000 1.0
C      1  0.5072770000000  0.4577180000000  0.4454510000000 1.0
C      1  0.5303590000000  0.4747890000000  0.5467340000000 1.0
C      1  0.4892060000000  0.4761060000000  0.4367040000000 1.0
C      1  0.4469330000000  0.4690660000000  0.4761890000000 1.0
C      1  0.4520800000000  0.4436400000000  0.5168620000000 1.0
C      1  0.4369050000000  0.4799220000000  0.5018310000000 1.0
C      1  0.5139810000000  0.5239900000000  0.4706800000000 1.0
C      1  0.4964130000000  0.5533040000000  0.5469350000000 1.0
C      1  0.4783930000000  0.5304130000000  0.5414580000000 1.0
C      1  0.4652970000000  0.4265640000000  0.4991350000000 1.0
C      1  0.5453150000000  0.5179840000000  0.5085700000000 1.0
C      1  0.5375550000000  0.5603630000000  0.5208370000000 1.0
C      1  0.4958320000000  0.4931380000000  0.5725340000000 1.0
END
