TITL C-883733-4178-293 15.6719032374097 125000 -17513.1494751454 0 0 120 (C1) n - 1
REM
REM in /home/nfs/bkarasulu/CARBON/AIRSS/Generating-Clusters/ReaxFF-fromJPCA2015/Units_Real/with-SteepDescent/Only-C1/SD-CG/Try1-3A/FIRE-CG
REM
REM
REM
REM
REM
REM ./C.cell (11c1c37f851c82e70ff6c80c92926a4b)
REM
REM compiler GCC version 9.2.1 20190827 (Red Hat 9.2.1-1)
REM options -cpp -mtune=generic -march=x86-64 -g -O0 -fpre-include=/usr/include/finclude/math-vector-fortran.h
REM seed -647307407 -143945561 -1196127315 -365149394 -2105614747 1886674708 -1989459846 -729762909 470647133 1334570327 2064506587 -759832272 -229825557 -1756243080 -1263855763 1174782121 -1751910426 1146751527 1853860185 -1100482432 -327430356 670465231 -1079444978 -1626722821 -400155099 1698433654 44035016 -1472550378 327441821 1880989637 1544990365 55839595 -1403039938
REM
CELL 1.54180   50.00000   50.00000   50.00000   90.00000   90.00000   90.00000
LATT -1
SFAC C  
C      1  0.5349450000000  0.4266810000000  0.5471060000000 1.0
C      1  0.4377700000000  0.4639820000000  0.4225420000000 1.0
C      1  0.5891330000000  0.4826480000000  0.4773670000000 1.0
C      1  0.5166270000000  0.5042470000000  0.4160570000000 1.0
C      1  0.4148820000000  0.5030440000000  0.4393480000000 1.0
C      1  0.4807460000000  0.4848440000000  0.5770380000000 1.0
C      1  0.5330830000000  0.5748190000000  0.5696080000000 1.0
C      1  0.5772410000000  0.5249990000000  0.4528900000000 1.0
C      1  0.5314600000000  0.5893290000000  0.4898300000000 1.0
C      1  0.5243750000000  0.5796730000000  0.4335130000000 1.0
C      1  0.5316850000000  0.5269050000000  0.5963750000000 1.0
C      1  0.4290070000000  0.5697140000000  0.4674540000000 1.0
C      1  0.4721950000000  0.4909810000000  0.5220830000000 1.0
C      1  0.4917920000000  0.4069200000000  0.5021390000000 1.0
C      1  0.5070710000000  0.4218340000000  0.5529780000000 1.0
C      1  0.5552860000000  0.5370440000000  0.4378480000000 1.0
C      1  0.4266440000000  0.4373160000000  0.5269260000000 1.0
C      1  0.5520980000000  0.5479510000000  0.4886780000000 1.0
C      1  0.4941630000000  0.4334600000000  0.4894870000000 1.0
C      1  0.4703590000000  0.5805480000000  0.5304730000000 1.0
C      1  0.4730580000000  0.4465780000000  0.4810420000000 1.0
C      1  0.5853930000000  0.4966180000000  0.4520270000000 1.0
C      1  0.5531790000000  0.5095060000000  0.5515690000000 1.0
C      1  0.4461370000000  0.4205050000000  0.5123440000000 1.0
C      1  0.5405610000000  0.4656290000000  0.5302840000000 1.0
C      1  0.4120700000000  0.4621720000000  0.4674060000000 1.0
C      1  0.5823130000000  0.4545010000000  0.4776640000000 1.0
C      1  0.5103480000000  0.5209690000000  0.5315470000000 1.0
C      1  0.4822380000000  0.4730350000000  0.4740100000000 1.0
C      1  0.4208410000000  0.4763110000000  0.5429410000000 1.0
C      1  0.5474230000000  0.4539170000000  0.5558440000000 1.0
C      1  0.5172800000000  0.5379460000000  0.4889420000000 1.0
C      1  0.5489470000000  0.5051820000000  0.5912820000000 1.0
C      1  0.5622120000000  0.5368440000000  0.5527180000000 1.0
C      1  0.5135220000000  0.4724690000000  0.5367190000000 1.0
C      1  0.5282410000000  0.5008300000000  0.6058500000000 1.0
C      1  0.5820940000000  0.4448860000000  0.5057660000000 1.0
C      1  0.4374410000000  0.5540270000000  0.5665400000000 1.0
C      1  0.5168720000000  0.5472660000000  0.5788080000000 1.0
C      1  0.4601150000000  0.5055040000000  0.5815370000000 1.0
C      1  0.4141640000000  0.4632970000000  0.5179380000000 1.0
C      1  0.5226040000000  0.5010730000000  0.5476560000000 1.0
C      1  0.4822720000000  0.5157470000000  0.5321420000000 1.0
C      1  0.4866770000000  0.4672440000000  0.5292650000000 1.0
C      1  0.5097920000000  0.4895460000000  0.5718460000000 1.0
C      1  0.4512650000000  0.4957760000000  0.5028060000000 1.0
C      1  0.5341620000000  0.4804220000000  0.5850280000000 1.0
C      1  0.4625800000000  0.4922600000000  0.4770140000000 1.0
C      1  0.4466100000000  0.5250100000000  0.5054380000000 1.0
C      1  0.5640600000000  0.4827010000000  0.4379450000000 1.0
C      1  0.5016500000000  0.4902360000000  0.4845050000000 1.0
C      1  0.5481620000000  0.5651410000000  0.4454860000000 1.0
C      1  0.4707770000000  0.5672060000000  0.4248020000000 1.0
C      1  0.4784870000000  0.4728230000000  0.4148210000000 1.0
C      1  0.5212030000000  0.5075620000000  0.4950740000000 1.0
C      1  0.4708760000000  0.4095590000000  0.5229720000000 1.0
C      1  0.5621120000000  0.4435490000000  0.4618210000000 1.0
C      1  0.4779020000000  0.4191790000000  0.5498340000000 1.0
C      1  0.5208300000000  0.4454570000000  0.4904290000000 1.0
C      1  0.5420550000000  0.4936280000000  0.4542310000000 1.0
C      1  0.5513630000000  0.5729170000000  0.4733470000000 1.0
C      1  0.4599850000000  0.4406840000000  0.5610400000000 1.0
C      1  0.4962100000000  0.5526860000000  0.5034040000000 1.0
C      1  0.5068510000000  0.4767800000000  0.4210980000000 1.0
C      1  0.4764200000000  0.5261470000000  0.5835240000000 1.0
C      1  0.4526140000000  0.5030490000000  0.4563460000000 1.0
C      1  0.5752330000000  0.4638170000000  0.5506120000000 1.0
C      1  0.4229150000000  0.4346370000000  0.4693710000000 1.0
C      1  0.4654420000000  0.5595490000000  0.5564400000000 1.0
C      1  0.5400270000000  0.4130160000000  0.5197350000000 1.0
C      1  0.5216590000000  0.4658310000000  0.5098980000000 1.0
C      1  0.5354960000000  0.5154850000000  0.4352180000000 1.0
C      1  0.5765410000000  0.5454790000000  0.5062900000000 1.0
C      1  0.4646680000000  0.4480460000000  0.4228500000000 1.0
C      1  0.5019570000000  0.5736080000000  0.4522500000000 1.0
C      1  0.4497060000000  0.5262990000000  0.4433730000000 1.0
C      1  0.4734250000000  0.5807320000000  0.4514390000000 1.0
C      1  0.4755110000000  0.4645700000000  0.5563540000000 1.0
C      1  0.5516820000000  0.4562190000000  0.4387250000000 1.0
C      1  0.5050320000000  0.5796950000000  0.5061360000000 1.0
C      1  0.4257420000000  0.5418270000000  0.4580950000000 1.0
C      1  0.5808510000000  0.5422930000000  0.5342430000000 1.0
C      1  0.4364990000000  0.5109220000000  0.4203960000000 1.0
C      1  0.4551880000000  0.5822220000000  0.4746580000000 1.0
C      1  0.4511260000000  0.4868800000000  0.4116120000000 1.0
C      1  0.4660780000000  0.5470430000000  0.5040300000000 1.0
C      1  0.5222360000000  0.4544380000000  0.4336080000000 1.0
C      1  0.5197010000000  0.5431460000000  0.5472140000000 1.0
C      1  0.5424200000000  0.4306480000000  0.4771570000000 1.0
C      1  0.4854330000000  0.4351290000000  0.4366150000000 1.0
C      1  0.4869720000000  0.5500590000000  0.5799080000000 1.0
C      1  0.5740940000000  0.4921570000000  0.5632760000000 1.0
C      1  0.4408190000000  0.5209180000000  0.5609510000000 1.0
C      1  0.4169770000000  0.4738520000000  0.4408180000000 1.0
C      1  0.4196830000000  0.5194110000000  0.5160770000000 1.0
C      1  0.4634330000000  0.5316860000000  0.5445610000000 1.0
C      1  0.5498670000000  0.6062260000000  0.4962030000000 1.0
C      1  0.5836460000000  0.4690360000000  0.5223650000000 1.0
C      1  0.4833550000000  0.5478140000000  0.4061590000000 1.0
C      1  0.5882500000000  0.5208520000000  0.5136460000000 1.0
C      1  0.5039520000000  0.5431020000000  0.4609410000000 1.0
C      1  0.4157630000000  0.4788230000000  0.4924990000000 1.0
C      1  0.4084570000000  0.5071950000000  0.4915150000000 1.0
C      1  0.5235620000000  0.4107840000000  0.4684420000000 1.0
C      1  0.4092990000000  0.5189130000000  0.4644350000000 1.0
C      1  0.5608640000000  0.4279080000000  0.5138030000000 1.0
C      1  0.5613220000000  0.5256670000000  0.4754720000000 1.0
C      1  0.5100420000000  0.4301800000000  0.4457680000000 1.0
C      1  0.5202060000000  0.4029230000000  0.4967360000000 1.0
C      1  0.4484420000000  0.4307300000000  0.4847070000000 1.0
C      1  0.4578860000000  0.5752320000000  0.5046450000000 1.0
C      1  0.5161300000000  0.5865750000000  0.5518410000000 1.0
C      1  0.5002920000000  0.5246160000000  0.4013870000000 1.0
C      1  0.5481210000000  0.5020420000000  0.4820070000000 1.0
C      1  0.4230080000000  0.5053130000000  0.5418660000000 1.0
C      1  0.4809570000000  0.5316650000000  0.4539270000000 1.0
C      1  0.5453530000000  0.5581360000000  0.5470670000000 1.0
C      1  0.4969210000000  0.5931190000000  0.5311620000000 1.0
C      1  0.5819060000000  0.4930280000000  0.5045900000000 1.0
C      1  0.4333240000000  0.4491950000000  0.5525150000000 1.0
END
