TITL C-883738-3659-282 9.04058442853395 125000 -3249.79219453891 0 0 24 (C1) n - 1
REM
REM in /home/nfs/bkarasulu/CARBON/AIRSS/Generating-Clusters/ReaxFF-fromJPCA2015/Units_Real/with-SteepDescent/Only-C1/SD-CG/Try1-3A/FIRE-CG
REM
REM
REM
REM
REM
REM ./C.cell (11c1c37f851c82e70ff6c80c92926a4b)
REM
REM compiler GCC version 9.2.1 20190827 (Red Hat 9.2.1-1)
REM options -cpp -mtune=generic -march=x86-64 -g -O0 -fpre-include=/usr/include/finclude/math-vector-fortran.h
REM seed -2129217047 1921217086 -72350777 -872728583 1826499716 -743860354 -1432058948 -2009029399 -416447147 -1450269607 220907888 -734037014 754903260 -1943753010 787277152 -273809646 553707629 -795375546 -2072832770 -587148277 24909490 -459418257 -2041737823 1425093640 688746877 -869824510 586405899 1579043500 -1116586660 149658658 753109506 472277032 853284041
REM
CELL 1.54180   50.00000   50.00000   50.00000   90.00000   90.00000   90.00000
LATT -1
SFAC C  
C      1  0.5376300000000  0.5468210000000  0.5154920000000 1.0
C      1  0.4623330000000  0.5248810000000  0.5349480000000 1.0
C      1  0.5633510000000  0.4553580000000  0.4959890000000 1.0
C      1  0.4512060000000  0.5607480000000  0.4830360000000 1.0
C      1  0.5092920000000  0.4403840000000  0.5403250000000 1.0
C      1  0.5203120000000  0.5218730000000  0.4716160000000 1.0
C      1  0.4940740000000  0.4685550000000  0.4722580000000 1.0
C      1  0.5450210000000  0.5077800000000  0.4594960000000 1.0
C      1  0.5337270000000  0.5310080000000  0.5409900000000 1.0
C      1  0.4576850000000  0.4857090000000  0.5260580000000 1.0
C      1  0.4577160000000  0.5372970000000  0.5141460000000 1.0
C      1  0.4704140000000  0.5007050000000  0.5464250000000 1.0
C      1  0.4542830000000  0.5347480000000  0.4847110000000 1.0
C      1  0.4671970000000  0.4832180000000  0.4744210000000 1.0
C      1  0.5197570000000  0.5262220000000  0.5007240000000 1.0
C      1  0.5039310000000  0.4640510000000  0.5389640000000 1.0
C      1  0.5466970000000  0.4534520000000  0.4748300000000 1.0
C      1  0.5520790000000  0.4808840000000  0.4668080000000 1.0
C      1  0.5149840000000  0.4610050000000  0.4723240000000 1.0
C      1  0.4679840000000  0.5111370000000  0.4664300000000 1.0
C      1  0.4942910000000  0.5197840000000  0.4568270000000 1.0
C      1  0.5177490000000  0.5103090000000  0.5248370000000 1.0
C      1  0.4604580000000  0.4830890000000  0.5009300000000 1.0
C      1  0.4978310000000  0.4909810000000  0.5374150000000 1.0
END
