TITL C-884142-5251-364 100.5359073613 125000 -19280.4288869252 0 0 131 (C1) n - 1
REM
REM in /home/nfs/bkarasulu/CARBON/AIRSS/Generating-Clusters/ReaxFF-fromJPCA2015/Units_Real/with-SteepDescent/Only-C1/SD-CG/Try1-3A/FIRE-CG
REM
REM
REM
REM
REM
REM ./C.cell (11c1c37f851c82e70ff6c80c92926a4b)
REM
REM compiler GCC version 9.2.1 20190827 (Red Hat 9.2.1-1)
REM options -cpp -mtune=generic -march=x86-64 -g -O0 -fpre-include=/usr/include/finclude/math-vector-fortran.h
REM seed -719887671 1598285914 1429943783 1983699782 1255941578 -563907635 109115349 1184838935 1290486983 -623656152 412340299 -898564662 -1260459215 548956275 591102321 472493912 1236307117 -1547834273 395220356 -498773566 691892544 1092461767 -1191409826 -1504084349 -750003423 2109184170 296250351 -1500064364 -1264072842 1930894194 -17204145 -1875275891 -657939924
REM
CELL 1.54180   50.00000   50.00000   50.00000   90.00000   90.00000   90.00000
LATT -1
SFAC C  
C      1  0.5034250000000  0.4028780000000  0.4529160000000 1.0
C      1  0.5952090000000  0.5393370000000  0.4706840000000 1.0
C      1  0.4136870000000  0.4712820000000  0.5427310000000 1.0
C      1  0.4584800000000  0.4491940000000  0.5477870000000 1.0
C      1  0.4190470000000  0.4415290000000  0.4963840000000 1.0
C      1  0.5504160000000  0.5276950000000  0.4237820000000 1.0
C      1  0.5661490000000  0.5460750000000  0.4359540000000 1.0
C      1  0.4547030000000  0.5305210000000  0.4601240000000 1.0
C      1  0.5500790000000  0.4934940000000  0.4620650000000 1.0
C      1  0.4492480000000  0.5065370000000  0.4718090000000 1.0
C      1  0.5325170000000  0.5123880000000  0.5186040000000 1.0
C      1  0.4100610000000  0.5006170000000  0.5462490000000 1.0
C      1  0.5319890000000  0.4950680000000  0.5964570000000 1.0
C      1  0.5095100000000  0.5108480000000  0.5878360000000 1.0
C      1  0.5070990000000  0.3986700000000  0.5261800000000 1.0
C      1  0.5758660000000  0.4751380000000  0.4364640000000 1.0
C      1  0.5917150000000  0.4972860000000  0.4440180000000 1.0
C      1  0.5414540000000  0.4875740000000  0.5048940000000 1.0
C      1  0.4816800000000  0.5242460000000  0.4512190000000 1.0
C      1  0.5283710000000  0.4472810000000  0.5185310000000 1.0
C      1  0.4312480000000  0.5664290000000  0.5051970000000 1.0
C      1  0.4326560000000  0.4565540000000  0.5608850000000 1.0
C      1  0.5092010000000  0.5634960000000  0.4487900000000 1.0
C      1  0.5162850000000  0.4331300000000  0.5589270000000 1.0
C      1  0.5563030000000  0.5655520000000  0.5456720000000 1.0
C      1  0.5259960000000  0.5354680000000  0.5909050000000 1.0
C      1  0.4633840000000  0.5712340000000  0.5631590000000 1.0
C      1  0.5537670000000  0.4580550000000  0.4322390000000 1.0
C      1  0.5039440000000  0.5877580000000  0.5461750000000 1.0
C      1  0.4668720000000  0.4857610000000  0.5928840000000 1.0
C      1  0.5397510000000  0.4276030000000  0.5384340000000 1.0
C      1  0.4679230000000  0.5299450000000  0.5408850000000 1.0
C      1  0.4377250000000  0.5310830000000  0.5786200000000 1.0
C      1  0.4467650000000  0.4448150000000  0.4560230000000 1.0
C      1  0.5094650000000  0.5613970000000  0.5324710000000 1.0
C      1  0.4883110000000  0.4763110000000  0.4447250000000 1.0
C      1  0.4044840000000  0.5154210000000  0.4960910000000 1.0
C      1  0.5505010000000  0.5147350000000  0.5879530000000 1.0
C      1  0.4883060000000  0.5116030000000  0.5052140000000 1.0
C      1  0.5339390000000  0.4054230000000  0.5181240000000 1.0
C      1  0.4770030000000  0.4766210000000  0.4179440000000 1.0
C      1  0.4914920000000  0.4858550000000  0.4933840000000 1.0
C      1  0.4406420000000  0.5559010000000  0.4563300000000 1.0
C      1  0.5672870000000  0.4783880000000  0.4822110000000 1.0
C      1  0.4822960000000  0.4674320000000  0.5125920000000 1.0
C      1  0.5004060000000  0.5096190000000  0.5594610000000 1.0
C      1  0.5343970000000  0.4088510000000  0.4894530000000 1.0
C      1  0.5158830000000  0.5587820000000  0.5765610000000 1.0
C      1  0.5302110000000  0.5522880000000  0.5523890000000 1.0
C      1  0.4583120000000  0.5000470000000  0.5377130000000 1.0
C      1  0.5122720000000  0.4474440000000  0.4948570000000 1.0
C      1  0.4097900000000  0.5239920000000  0.5248140000000 1.0
C      1  0.4711800000000  0.5198460000000  0.4243640000000 1.0
C      1  0.5071540000000  0.5089370000000  0.5320010000000 1.0
C      1  0.4124810000000  0.5377980000000  0.4806770000000 1.0
C      1  0.5141840000000  0.4594490000000  0.5714870000000 1.0
C      1  0.4473110000000  0.4683440000000  0.5821540000000 1.0
C      1  0.4896190000000  0.3976800000000  0.5036900000000 1.0
C      1  0.5131230000000  0.5068480000000  0.3959240000000 1.0
C      1  0.5428780000000  0.5401090000000  0.4793120000000 1.0
C      1  0.5769290000000  0.5678860000000  0.5091440000000 1.0
C      1  0.4107810000000  0.4636420000000  0.5148610000000 1.0
C      1  0.5570310000000  0.5645630000000  0.4611370000000 1.0
C      1  0.4815270000000  0.4435450000000  0.4973040000000 1.0
C      1  0.5933290000000  0.4904900000000  0.4721370000000 1.0
C      1  0.5321400000000  0.5988300000000  0.5105510000000 1.0
C      1  0.4958460000000  0.4164530000000  0.5481190000000 1.0
C      1  0.5181410000000  0.4746080000000  0.4838160000000 1.0
C      1  0.5401210000000  0.4352660000000  0.4464050000000 1.0
C      1  0.4862060000000  0.5471790000000  0.5230110000000 1.0
C      1  0.4693480000000  0.4240880000000  0.5406700000000 1.0
C      1  0.4431320000000  0.5507490000000  0.5536590000000 1.0
C      1  0.5356710000000  0.5069520000000  0.4157980000000 1.0
C      1  0.4196290000000  0.4486630000000  0.4679700000000 1.0
C      1  0.5494570000000  0.4283420000000  0.4725840000000 1.0
C      1  0.4894680000000  0.4704030000000  0.5827070000000 1.0
C      1  0.4992560000000  0.5420650000000  0.4646690000000 1.0
C      1  0.4593400000000  0.5159640000000  0.4971520000000 1.0
C      1  0.5871890000000  0.5285430000000  0.4450200000000 1.0
C      1  0.5464500000000  0.5169900000000  0.4707580000000 1.0
C      1  0.4718520000000  0.4823420000000  0.4690070000000 1.0
C      1  0.4695970000000  0.4732090000000  0.5368150000000 1.0
C      1  0.4283460000000  0.4907640000000  0.4336600000000 1.0
C      1  0.4778480000000  0.5459830000000  0.4122330000000 1.0
C      1  0.6033160000000  0.5143900000000  0.4868730000000 1.0
C      1  0.5139240000000  0.4774840000000  0.4542270000000 1.0
C      1  0.5832800000000  0.4633550000000  0.5353910000000 1.0
C      1  0.4370390000000  0.4183440000000  0.4995340000000 1.0
C      1  0.4434260000000  0.5001930000000  0.5132350000000 1.0
C      1  0.4125790000000  0.4729200000000  0.4532460000000 1.0
C      1  0.4904520000000  0.5768930000000  0.5703940000000 1.0
C      1  0.5078310000000  0.3999720000000  0.4814450000000 1.0
C      1  0.5309070000000  0.5797150000000  0.4606160000000 1.0
C      1  0.5799070000000  0.4936320000000  0.5457090000000 1.0
C      1  0.5208320000000  0.5945560000000  0.4832810000000 1.0
C      1  0.5147440000000  0.4236230000000  0.4376970000000 1.0
C      1  0.4973770000000  0.4816160000000  0.3965380000000 1.0
C      1  0.5969500000000  0.5133100000000  0.5135090000000 1.0
C      1  0.5696280000000  0.4479200000000  0.4827810000000 1.0
C      1  0.4859410000000  0.4184480000000  0.4391720000000 1.0
C      1  0.5001460000000  0.5380010000000  0.4975430000000 1.0
C      1  0.5773680000000  0.5501610000000  0.5328960000000 1.0
C      1  0.4929010000000  0.5948080000000  0.4946770000000 1.0
C      1  0.4666590000000  0.4164930000000  0.5124050000000 1.0
C      1  0.5043830000000  0.6028920000000  0.5211590000000 1.0
C      1  0.4833880000000  0.5675190000000  0.4331760000000 1.0
C      1  0.4626440000000  0.5747540000000  0.4516440000000 1.0
C      1  0.4645830000000  0.4552710000000  0.4761880000000 1.0
C      1  0.4610360000000  0.5156260000000  0.5858990000000 1.0
C      1  0.4541060000000  0.4955240000000  0.4201010000000 1.0
C      1  0.4542570000000  0.5804080000000  0.4986520000000 1.0
C      1  0.4588350000000  0.4178720000000  0.4509170000000 1.0
C      1  0.4686630000000  0.5896420000000  0.4780530000000 1.0
C      1  0.4784230000000  0.5238530000000  0.5658110000000 1.0
C      1  0.5287610000000  0.5378280000000  0.5047740000000 1.0
C      1  0.5380190000000  0.4716310000000  0.5294520000000 1.0
C      1  0.4966980000000  0.5324610000000  0.3941480000000 1.0
C      1  0.5364190000000  0.4767960000000  0.5582630000000 1.0
C      1  0.5549690000000  0.5841090000000  0.5220150000000 1.0
C      1  0.5887320000000  0.5206740000000  0.5371870000000 1.0
C      1  0.4245900000000  0.5112700000000  0.5667210000000 1.0
C      1  0.4208820000000  0.5589220000000  0.4766740000000 1.0
C      1  0.5692710000000  0.4409210000000  0.5449950000000 1.0
C      1  0.5803960000000  0.5620740000000  0.4803910000000 1.0
C      1  0.4207400000000  0.4997360000000  0.4603730000000 1.0
C      1  0.4487860000000  0.4089150000000  0.4759360000000 1.0
C      1  0.5360170000000  0.4829800000000  0.4371890000000 1.0
C      1  0.4175990000000  0.4891860000000  0.5021610000000 1.0
C      1  0.5847460000000  0.4495930000000  0.5078530000000 1.0
C      1  0.4248290000000  0.5482610000000  0.5287220000000 1.0
C      1  0.5589360000000  0.4942680000000  0.5658110000000 1.0
END
