TITL C-884130-5973-34 3425926.49154839 125000 -19620.1525108255 0 0 132 (C1) n - 1
REM
REM in /home/nfs/bkarasulu/CARBON/AIRSS/Generating-Clusters/ReaxFF-fromJPCA2015/Units_Real/with-SteepDescent/Only-C1/SD-CG/Try1-3A/FIRE-CG
REM
REM
REM
REM
REM
REM ./C.cell (11c1c37f851c82e70ff6c80c92926a4b)
REM
REM compiler GCC version 9.2.1 20190827 (Red Hat 9.2.1-1)
REM options -cpp -mtune=generic -march=x86-64 -g -O0 -fpre-include=/usr/include/finclude/math-vector-fortran.h
REM seed 306155813 -881529372 907876311 -1653634980 6555472 1552755043 -448666982 1686817862 -706535632 1935197306 -878685932 -1676854710 87758199 830644485 2049936749 1551804417 1913415921 -1048151138 -1104008083 -1251889002 -614919535 1541064251 -1225599001 1369256273 1670660399 1912647313 1118509867 -1408295296 -914632758 526422989 278352189 302881825 -1482276496
REM
CELL 1.54180   50.00000   50.00000   50.00000   90.00000   90.00000   90.00000
LATT -1
SFAC C  
C      1  0.4886140000000  0.4744540000000  0.5524770000000 1.0
C      1  0.5762040000000  0.5280980000000  0.4713820000000 1.0
C      1  0.4254090000000  0.5006120000000  0.4325710000000 1.0
C      1  0.4029160000000  0.5283580000000  0.5173750000000 1.0
C      1  0.5628780000000  0.4185100000000  0.5051640000000 1.0
C      1  0.4016740000000  0.4911490000000  0.4799170000000 1.0
C      1  0.5417080000000  0.5039930000000  0.5900760000000 1.0
C      1  0.5811000000000  0.4929960000000  0.4266770000000 1.0
C      1  0.4977680000000  0.5216770000000  0.5762470000000 1.0
C      1  0.4246060000000  0.4910710000000  0.5445770000000 1.0
C      1  0.6021820000000  0.4764690000000  0.5193700000000 1.0
C      1  0.5421750000000  0.4940660000000  0.4912480000000 1.0
C      1  0.5302830000000  0.4444030000000  0.4200860000000 1.0
C      1  0.5106390000000  0.5508500000000  0.4680780000000 1.0
C      1  0.4556660000000  0.4587780000000  0.4898700000000 1.0
C      1  0.5417290000000  0.5755970000000  0.5226880000000 1.0
C      1  0.5819840000000  0.5562510000000  0.5468870000000 1.0
C      1  0.5836050000000  0.4741030000000  0.4736010000000 1.0
C      1  0.4032070000000  0.4811710000000  0.5262660000000 1.0
C      1  0.4323680000000  0.5288670000000  0.4297690000000 1.0
C      1  0.5020860000000  0.5714520000000  0.5890190000000 1.0
C      1  0.4948440000000  0.5912020000000  0.5238900000000 1.0
C      1  0.4086570000000  0.5310210000000  0.5459650000000 1.0
C      1  0.5332990000000  0.5496750000000  0.4495460000000 1.0
C      1  0.4316660000000  0.5383200000000  0.5643370000000 1.0
C      1  0.4719230000000  0.4071270000000  0.5073390000000 1.0
C      1  0.4699560000000  0.4542060000000  0.5605110000000 1.0
C      1  0.5542170000000  0.4686500000000  0.4900180000000 1.0
C      1  0.5521600000000  0.4636230000000  0.5788560000000 1.0
C      1  0.5106990000000  0.5365340000000  0.5224670000000 1.0
C      1  0.4429160000000  0.4323670000000  0.4508990000000 1.0
C      1  0.4962320000000  0.4862330000000  0.5144660000000 1.0
C      1  0.4590560000000  0.5826220000000  0.4876440000000 1.0
C      1  0.5379730000000  0.4534770000000  0.4709150000000 1.0
C      1  0.4360090000000  0.4778220000000  0.5656080000000 1.0
C      1  0.5575320000000  0.5324230000000  0.4492830000000 1.0
C      1  0.5495550000000  0.5092080000000  0.5413760000000 1.0
C      1  0.4099460000000  0.5065460000000  0.4568050000000 1.0
C      1  0.5298950000000  0.5311550000000  0.5019320000000 1.0
C      1  0.4724780000000  0.5663610000000  0.5605500000000 1.0
C      1  0.4532500000000  0.4652060000000  0.5840490000000 1.0
C      1  0.5223790000000  0.5589400000000  0.5430310000000 1.0
C      1  0.5221510000000  0.5444530000000  0.4033570000000 1.0
C      1  0.5139780000000  0.5156740000000  0.3991480000000 1.0
C      1  0.5582730000000  0.4466770000000  0.5160940000000 1.0
C      1  0.5270070000000  0.4932610000000  0.5413050000000 1.0
C      1  0.4942470000000  0.4327440000000  0.4478460000000 1.0
C      1  0.5658560000000  0.5370110000000  0.5661350000000 1.0
C      1  0.4718260000000  0.5284140000000  0.4903840000000 1.0
C      1  0.4540400000000  0.4407260000000  0.5394570000000 1.0
C      1  0.4432680000000  0.4546660000000  0.5153330000000 1.0
C      1  0.5013610000000  0.5798830000000  0.4653930000000 1.0
C      1  0.4089730000000  0.4629570000000  0.4830640000000 1.0
C      1  0.4927140000000  0.5741060000000  0.4375300000000 1.0
C      1  0.4866710000000  0.5491800000000  0.5825540000000 1.0
C      1  0.4785870000000  0.4755730000000  0.4730350000000 1.0
C      1  0.4962730000000  0.4236510000000  0.5528100000000 1.0
C      1  0.5309150000000  0.4765800000000  0.5939350000000 1.0
C      1  0.4137050000000  0.4586850000000  0.5113910000000 1.0
C      1  0.4775980000000  0.4778990000000  0.5961540000000 1.0
C      1  0.4827050000000  0.4669090000000  0.4010090000000 1.0
C      1  0.4655990000000  0.5038500000000  0.5931390000000 1.0
C      1  0.3960530000000  0.5016360000000  0.5068270000000 1.0
C      1  0.5090560000000  0.4408520000000  0.5733860000000 1.0
C      1  0.5680020000000  0.5108870000000  0.5803710000000 1.0
C      1  0.5370320000000  0.4435070000000  0.5642660000000 1.0
C      1  0.4269760000000  0.5519580000000  0.4725170000000 1.0
C      1  0.4629070000000  0.4130100000000  0.4816940000000 1.0
C      1  0.5221120000000  0.4693200000000  0.4562090000000 1.0
C      1  0.5220120000000  0.4017430000000  0.5055170000000 1.0
C      1  0.5860830000000  0.4347770000000  0.5073560000000 1.0
C      1  0.5183520000000  0.4147220000000  0.5315390000000 1.0
C      1  0.4999330000000  0.4148870000000  0.5072590000000 1.0
C      1  0.5041550000000  0.4647000000000  0.5910740000000 1.0
C      1  0.4827880000000  0.5126360000000  0.4448070000000 1.0
C      1  0.5974030000000  0.4588100000000  0.4962010000000 1.0
C      1  0.4172070000000  0.5347610000000  0.4535130000000 1.0
C      1  0.5175590000000  0.5608310000000  0.4273370000000 1.0
C      1  0.5347380000000  0.4859450000000  0.4369970000000 1.0
C      1  0.4656120000000  0.5621130000000  0.4393650000000 1.0
C      1  0.5604980000000  0.5164350000000  0.4248840000000 1.0
C      1  0.4837210000000  0.5060790000000  0.5554390000000 1.0
C      1  0.4974070000000  0.5771330000000  0.5496810000000 1.0
C      1  0.5951560000000  0.5025720000000  0.5086370000000 1.0
C      1  0.4970120000000  0.4588910000000  0.4560850000000 1.0
C      1  0.5118590000000  0.4626910000000  0.4051170000000 1.0
C      1  0.4665840000000  0.4911400000000  0.4519310000000 1.0
C      1  0.4581520000000  0.5396050000000  0.4227420000000 1.0
C      1  0.5520330000000  0.4627470000000  0.4283930000000 1.0
C      1  0.5887960000000  0.4838790000000  0.5458540000000 1.0
C      1  0.4879660000000  0.5312610000000  0.4665820000000 1.0
C      1  0.4342650000000  0.4514010000000  0.4723590000000 1.0
C      1  0.4457030000000  0.5077590000000  0.5260430000000 1.0
C      1  0.5859020000000  0.5512300000000  0.5188410000000 1.0
C      1  0.5422200000000  0.4081710000000  0.4874550000000 1.0
C      1  0.5777410000000  0.4687180000000  0.4424010000000 1.0
C      1  0.4249510000000  0.5443690000000  0.5017070000000 1.0
C      1  0.5112810000000  0.4693550000000  0.5335050000000 1.0
C      1  0.5343630000000  0.4428140000000  0.5347810000000 1.0
C      1  0.5374070000000  0.4257690000000  0.4643740000000 1.0
C      1  0.5752840000000  0.5495290000000  0.4926960000000 1.0
C      1  0.5880150000000  0.5034290000000  0.4804410000000 1.0
C      1  0.5214430000000  0.5974070000000  0.5118400000000 1.0
C      1  0.5477780000000  0.5541670000000  0.5016930000000 1.0
C      1  0.4483780000000  0.5206040000000  0.5802940000000 1.0
C      1  0.4459780000000  0.4495390000000  0.4272320000000 1.0
C      1  0.5197780000000  0.4894910000000  0.4119200000000 1.0
C      1  0.4383410000000  0.5919970000000  0.5091740000000 1.0
C      1  0.4721850000000  0.4187340000000  0.5370000000000 1.0
C      1  0.5039510000000  0.5083520000000  0.5320920000000 1.0
C      1  0.4787560000000  0.5180370000000  0.4153320000000 1.0
C      1  0.5382260000000  0.5441970000000  0.5635080000000 1.0
C      1  0.4457990000000  0.5600020000000  0.5502430000000 1.0
C      1  0.4814360000000  0.5427110000000  0.5151190000000 1.0
C      1  0.5678880000000  0.5814290000000  0.5402540000000 1.0
C      1  0.5730130000000  0.4834900000000  0.5708310000000 1.0
C      1  0.4494670000000  0.5672890000000  0.4641930000000 1.0
C      1  0.5218040000000  0.5093210000000  0.4850670000000 1.0
C      1  0.4682950000000  0.4178370000000  0.4554060000000 1.0
C      1  0.4668690000000  0.5222850000000  0.5355050000000 1.0
C      1  0.4454260000000  0.5204100000000  0.4998520000000 1.0
C      1  0.5256600000000  0.5203690000000  0.5715540000000 1.0
C      1  0.5131300000000  0.5954470000000  0.4856390000000 1.0
C      1  0.4779030000000  0.5734130000000  0.5075860000000 1.0
C      1  0.5211860000000  0.4245980000000  0.4397080000000 1.0
C      1  0.5427900000000  0.5247140000000  0.4025100000000 1.0
C      1  0.4628390000000  0.4430700000000  0.4046670000000 1.0
C      1  0.4491820000000  0.4820660000000  0.4303260000000 1.0
C      1  0.5775900000000  0.5079950000000  0.5336180000000 1.0
C      1  0.4692250000000  0.4911680000000  0.4081570000000 1.0
C      1  0.4977300000000  0.4926670000000  0.4881430000000 1.0
C      1  0.4344700000000  0.5665770000000  0.5234500000000 1.0
END
