TITL C-884133-6611-143 15.4664491288721 125000 -19112.0471831396 0 0 130 (C1) n - 1
REM
REM in /home/nfs/bkarasulu/CARBON/AIRSS/Generating-Clusters/ReaxFF-fromJPCA2015/Units_Real/with-SteepDescent/Only-C1/SD-CG/Try1-3A/FIRE-CG
REM
REM
REM
REM
REM
REM ./C.cell (11c1c37f851c82e70ff6c80c92926a4b)
REM
REM compiler GCC version 9.2.1 20190827 (Red Hat 9.2.1-1)
REM options -cpp -mtune=generic -march=x86-64 -g -O0 -fpre-include=/usr/include/finclude/math-vector-fortran.h
REM seed -978336245 -1813772046 -1972839194 -1356662185 -812108771 -1950382676 -1037559658 -933249007 -1809635140 -1330144042 -681963881 -147623140 525307395 -459901254 -669088763 -276108665 2058164340 -968780191 1183797615 557734453 309434640 -203409339 -929298482 -172638153 938591584 -2068260593 872385214 2136129842 -1690957127 -1870337573 475564699 -1500158836 -804729937
REM
CELL 1.54180   50.00000   50.00000   50.00000   90.00000   90.00000   90.00000
LATT -1
SFAC C  
C      1  0.5765120000000  0.4737620000000  0.5379910000000 1.0
C      1  0.5102450000000  0.5238030000000  0.5166880000000 1.0
C      1  0.5164680000000  0.5205720000000  0.4468440000000 1.0
C      1  0.4293040000000  0.4220110000000  0.5243920000000 1.0
C      1  0.4547580000000  0.5074110000000  0.4432380000000 1.0
C      1  0.5055360000000  0.5947450000000  0.4721030000000 1.0
C      1  0.5405050000000  0.4960480000000  0.4147590000000 1.0
C      1  0.4782980000000  0.5117410000000  0.4633310000000 1.0
C      1  0.4669690000000  0.4562210000000  0.4474390000000 1.0
C      1  0.5249710000000  0.4521580000000  0.4921240000000 1.0
C      1  0.4756850000000  0.5183790000000  0.5974540000000 1.0
C      1  0.4869530000000  0.5633980000000  0.4379610000000 1.0
C      1  0.4137840000000  0.5379010000000  0.4440810000000 1.0
C      1  0.5097490000000  0.4902000000000  0.5762800000000 1.0
C      1  0.4196250000000  0.4569400000000  0.4862160000000 1.0
C      1  0.4246800000000  0.4376560000000  0.5486830000000 1.0
C      1  0.5314160000000  0.5704770000000  0.4363260000000 1.0
C      1  0.3942060000000  0.5047110000000  0.4862200000000 1.0
C      1  0.4274160000000  0.5197350000000  0.4614200000000 1.0
C      1  0.5488560000000  0.4581520000000  0.5769760000000 1.0
C      1  0.5863540000000  0.5058080000000  0.5785840000000 1.0
C      1  0.5444790000000  0.5370770000000  0.5491100000000 1.0
C      1  0.5590240000000  0.4177970000000  0.4916590000000 1.0
C      1  0.4541440000000  0.5737140000000  0.4748550000000 1.0
C      1  0.4397570000000  0.5635860000000  0.5234450000000 1.0
C      1  0.5146840000000  0.5509430000000  0.4803040000000 1.0
C      1  0.5981790000000  0.5062900000000  0.4911470000000 1.0
C      1  0.5363930000000  0.4817280000000  0.5320390000000 1.0
C      1  0.5377220000000  0.5837680000000  0.5273900000000 1.0
C      1  0.5663350000000  0.5251220000000  0.5901780000000 1.0
C      1  0.5337020000000  0.4065050000000  0.5019010000000 1.0
C      1  0.4630800000000  0.5691650000000  0.5609900000000 1.0
C      1  0.4808670000000  0.5288750000000  0.4069180000000 1.0
C      1  0.5740010000000  0.5116280000000  0.5065340000000 1.0
C      1  0.4826480000000  0.5913230000000  0.5179440000000 1.0
C      1  0.5011490000000  0.4749500000000  0.4978070000000 1.0
C      1  0.4049180000000  0.5233240000000  0.5073290000000 1.0
C      1  0.5340220000000  0.5175440000000  0.4689450000000 1.0
C      1  0.5366780000000  0.4541330000000  0.5220620000000 1.0
C      1  0.4764410000000  0.4764090000000  0.4070850000000 1.0
C      1  0.5289050000000  0.4905640000000  0.4706300000000 1.0
C      1  0.4594820000000  0.5210070000000  0.5719840000000 1.0
C      1  0.5112260000000  0.3931290000000  0.4875150000000 1.0
C      1  0.4827590000000  0.5334270000000  0.5075160000000 1.0
C      1  0.4718570000000  0.4452450000000  0.5205210000000 1.0
C      1  0.4999190000000  0.4854060000000  0.4693670000000 1.0
C      1  0.4914410000000  0.4166530000000  0.5262150000000 1.0
C      1  0.5387430000000  0.4856530000000  0.5667210000000 1.0
C      1  0.5456950000000  0.5409580000000  0.5772450000000 1.0
C      1  0.4568600000000  0.5663510000000  0.4477800000000 1.0
C      1  0.5602520000000  0.5817740000000  0.5113120000000 1.0
C      1  0.5135340000000  0.5042320000000  0.4227360000000 1.0
C      1  0.4845380000000  0.5593190000000  0.5692960000000 1.0
C      1  0.5686840000000  0.4426800000000  0.5007840000000 1.0
C      1  0.5683450000000  0.5354630000000  0.5305470000000 1.0
C      1  0.5795760000000  0.5403970000000  0.4536840000000 1.0
C      1  0.4288340000000  0.5435790000000  0.5415570000000 1.0
C      1  0.4906360000000  0.5015000000000  0.4038710000000 1.0
C      1  0.5046480000000  0.5157880000000  0.5922580000000 1.0
C      1  0.4737760000000  0.4656240000000  0.5006920000000 1.0
C      1  0.5177020000000  0.5419810000000  0.5859800000000 1.0
C      1  0.5066830000000  0.5852600000000  0.4444580000000 1.0
C      1  0.4491080000000  0.4979500000000  0.5293940000000 1.0
C      1  0.5147430000000  0.4564820000000  0.4296300000000 1.0
C      1  0.5409860000000  0.4700930000000  0.4291370000000 1.0
C      1  0.4957190000000  0.4615700000000  0.4509360000000 1.0
C      1  0.4621120000000  0.4279520000000  0.4401140000000 1.0
C      1  0.4619470000000  0.5791870000000  0.5337900000000 1.0
C      1  0.4732520000000  0.4524610000000  0.5874190000000 1.0
C      1  0.4129420000000  0.5188780000000  0.5355820000000 1.0
C      1  0.4004010000000  0.5164940000000  0.4587840000000 1.0
C      1  0.4933520000000  0.4523190000000  0.4089240000000 1.0
C      1  0.5067220000000  0.5525790000000  0.5626310000000 1.0
C      1  0.5592490000000  0.4686800000000  0.4523220000000 1.0
C      1  0.4879320000000  0.3966520000000  0.5040440000000 1.0
C      1  0.5603430000000  0.5796200000000  0.4789110000000 1.0
C      1  0.5132400000000  0.5954540000000  0.5190000000000 1.0
C      1  0.4694270000000  0.5061990000000  0.5491670000000 1.0
C      1  0.4556590000000  0.4780340000000  0.4292940000000 1.0
C      1  0.5280310000000  0.5304170000000  0.4937440000000 1.0
C      1  0.5619890000000  0.4854350000000  0.5137500000000 1.0
C      1  0.4205880000000  0.4581110000000  0.4582510000000 1.0
C      1  0.5889160000000  0.4554310000000  0.4840870000000 1.0
C      1  0.4929770000000  0.4882540000000  0.5482890000000 1.0
C      1  0.4869300000000  0.4059920000000  0.4761620000000 1.0
C      1  0.4476630000000  0.4166550000000  0.4878810000000 1.0
C      1  0.5190140000000  0.5402410000000  0.5398440000000 1.0
C      1  0.4062810000000  0.4795270000000  0.4899490000000 1.0
C      1  0.4766190000000  0.4592620000000  0.5465150000000 1.0
C      1  0.5783690000000  0.5616140000000  0.4671670000000 1.0
C      1  0.5412450000000  0.4335260000000  0.5414830000000 1.0
C      1  0.5385660000000  0.5669600000000  0.4646490000000 1.0
C      1  0.5248360000000  0.5966480000000  0.4924700000000 1.0
C      1  0.4802330000000  0.5836080000000  0.4895320000000 1.0
C      1  0.4421120000000  0.4390010000000  0.5050330000000 1.0
C      1  0.5640850000000  0.4509150000000  0.5519960000000 1.0
C      1  0.5508530000000  0.5229100000000  0.4203550000000 1.0
C      1  0.4596810000000  0.4081600000000  0.4643230000000 1.0
C      1  0.4385670000000  0.5490180000000  0.4329760000000 1.0
C      1  0.5706280000000  0.4365160000000  0.4731550000000 1.0
C      1  0.5480310000000  0.4724840000000  0.4819340000000 1.0
C      1  0.5874170000000  0.5252450000000  0.5427040000000 1.0
C      1  0.4441380000000  0.4153960000000  0.5487390000000 1.0
C      1  0.4554040000000  0.5275590000000  0.4218300000000 1.0
C      1  0.5897100000000  0.4976840000000  0.5502770000000 1.0
C      1  0.5242450000000  0.4514400000000  0.5887990000000 1.0
C      1  0.5590430000000  0.4975550000000  0.5863900000000 1.0
C      1  0.4214890000000  0.5370660000000  0.4884200000000 1.0
C      1  0.4455630000000  0.5467930000000  0.5651280000000 1.0
C      1  0.4555240000000  0.4659580000000  0.5683050000000 1.0
C      1  0.5707280000000  0.5598750000000  0.5262490000000 1.0
C      1  0.5235180000000  0.4155530000000  0.5270650000000 1.0
C      1  0.5794130000000  0.4896860000000  0.4496790000000 1.0
C      1  0.4734100000000  0.4146090000000  0.5504690000000 1.0
C      1  0.4927390000000  0.5581290000000  0.4967760000000 1.0
C      1  0.4956240000000  0.5372550000000  0.4573230000000 1.0
C      1  0.5305630000000  0.5463650000000  0.4190500000000 1.0
C      1  0.5001500000000  0.4643450000000  0.5936000000000 1.0
C      1  0.4849230000000  0.4357980000000  0.5664090000000 1.0
C      1  0.5014650000000  0.5483440000000  0.4150150000000 1.0
C      1  0.5737630000000  0.5177270000000  0.4386250000000 1.0
C      1  0.4578850000000  0.4898670000000  0.5021570000000 1.0
C      1  0.4776980000000  0.4266790000000  0.4152430000000 1.0
C      1  0.4227580000000  0.4908410000000  0.5405860000000 1.0
C      1  0.5948270000000  0.4817800000000  0.4727880000000 1.0
C      1  0.5102550000000  0.4919520000000  0.5228790000000 1.0
C      1  0.4680460000000  0.5148210000000  0.4912530000000 1.0
C      1  0.4269400000000  0.4614220000000  0.4312620000000 1.0
C      1  0.4286030000000  0.4660950000000  0.5566640000000 1.0
C      1  0.4362050000000  0.5611700000000  0.4942700000000 1.0
END
