TITL C-883732-77-199 91.9581997888168 125000 -28576.3314701094 0 0 192 (C1) n - 1
REM
REM in /home/nfs/bkarasulu/CARBON/AIRSS/Generating-Clusters/ReaxFF-fromJPCA2015/Units_Real/with-SteepDescent/Only-C1/SD-CG/Try1-3A/FIRE-CG
REM
REM
REM
REM
REM
REM ./C.cell (11c1c37f851c82e70ff6c80c92926a4b)
REM
REM compiler GCC version 9.2.1 20190827 (Red Hat 9.2.1-1)
REM options -cpp -mtune=generic -march=x86-64 -g -O0 -fpre-include=/usr/include/finclude/math-vector-fortran.h
REM seed -183215793 -616281657 -237928243 -1335879857 -787574134 1198145670 -443193571 -814607708 1527149177 1005485082 1202315950 477809851 -1283642996 862299329 3566070 -1745917340 -982624438 -1054089877 1135265500 1972862902 -1869877273 -528065430 170319512 -259226152 2012869625 -327120812 1631017314 6232628 298868717 1051169049 1450705854 1448901028 -735404020
REM
CELL 1.54180   50.00000   50.00000   50.00000   90.00000   90.00000   90.00000
LATT -1
SFAC C  
C      1  0.5542380000000  0.5364800000000  0.4207070000000 1.0
C      1  0.4337620000000  0.5255300000000  0.4141100000000 1.0
C      1  0.4571810000000  0.5319260000000  0.6040400000000 1.0
C      1  0.3971860000000  0.5054590000000  0.4649560000000 1.0
C      1  0.5101450000000  0.4640750000000  0.5988900000000 1.0
C      1  0.5723440000000  0.5576750000000  0.4777690000000 1.0
C      1  0.6060050000000  0.4778830000000  0.4816080000000 1.0
C      1  0.5246440000000  0.5131420000000  0.6070850000000 1.0
C      1  0.5176420000000  0.4183700000000  0.5003990000000 1.0
C      1  0.4775770000000  0.4901600000000  0.5583540000000 1.0
C      1  0.5354210000000  0.4772160000000  0.3843810000000 1.0
C      1  0.4586060000000  0.5480130000000  0.5279470000000 1.0
C      1  0.4218020000000  0.5199750000000  0.4607030000000 1.0
C      1  0.6125690000000  0.5207720000000  0.5127690000000 1.0
C      1  0.4988560000000  0.5851980000000  0.5757590000000 1.0
C      1  0.4479930000000  0.5898810000000  0.4904100000000 1.0
C      1  0.5425930000000  0.5205570000000  0.5323930000000 1.0
C      1  0.3926130000000  0.4866190000000  0.4834160000000 1.0
C      1  0.4223760000000  0.5645200000000  0.4529530000000 1.0
C      1  0.5182920000000  0.4919050000000  0.4724790000000 1.0
C      1  0.4310860000000  0.5348120000000  0.4860780000000 1.0
C      1  0.4146510000000  0.5554350000000  0.4788130000000 1.0
C      1  0.4669510000000  0.5235660000000  0.4468510000000 1.0
C      1  0.5152490000000  0.5696100000000  0.4236980000000 1.0
C      1  0.4439230000000  0.4237970000000  0.5852340000000 1.0
C      1  0.4360440000000  0.4796920000000  0.5145310000000 1.0
C      1  0.4563890000000  0.4151190000000  0.4473970000000 1.0
C      1  0.4340850000000  0.4085230000000  0.4651980000000 1.0
C      1  0.5317750000000  0.4830380000000  0.6037980000000 1.0
C      1  0.4083170000000  0.4741710000000  0.5045270000000 1.0
C      1  0.4689820000000  0.5076380000000  0.5384100000000 1.0
C      1  0.5521090000000  0.4651360000000  0.5924430000000 1.0
C      1  0.4104080000000  0.4433600000000  0.4981870000000 1.0
C      1  0.4763700000000  0.6064870000000  0.5302840000000 1.0
C      1  0.4284910000000  0.3970660000000  0.4896500000000 1.0
C      1  0.5102560000000  0.5440360000000  0.5511360000000 1.0
C      1  0.5699510000000  0.5082310000000  0.5377320000000 1.0
C      1  0.4276030000000  0.5549710000000  0.5640500000000 1.0
C      1  0.4218240000000  0.5394950000000  0.4369000000000 1.0
C      1  0.3792550000000  0.5116820000000  0.4857460000000 1.0
C      1  0.6010240000000  0.4891090000000  0.4544620000000 1.0
C      1  0.4637600000000  0.4652460000000  0.5957210000000 1.0
C      1  0.5725140000000  0.4353480000000  0.4908200000000 1.0
C      1  0.5494190000000  0.4463580000000  0.4784020000000 1.0
C      1  0.5724540000000  0.5317660000000  0.4642280000000 1.0
C      1  0.4931340000000  0.4524260000000  0.4874080000000 1.0
C      1  0.4096440000000  0.5482570000000  0.5425560000000 1.0
C      1  0.4681670000000  0.4404710000000  0.4917210000000 1.0
C      1  0.4529810000000  0.5874010000000  0.5383900000000 1.0
C      1  0.5570830000000  0.5009680000000  0.4999220000000 1.0
C      1  0.3965160000000  0.4924450000000  0.5311060000000 1.0
C      1  0.4848880000000  0.4100560000000  0.4389380000000 1.0
C      1  0.5429150000000  0.4489260000000  0.4127840000000 1.0
C      1  0.5253780000000  0.5378660000000  0.4866240000000 1.0
C      1  0.5340420000000  0.3953530000000  0.4941610000000 1.0
C      1  0.4519880000000  0.4742900000000  0.4081770000000 1.0
C      1  0.5489410000000  0.5782630000000  0.4750140000000 1.0
C      1  0.4627450000000  0.4364800000000  0.6036280000000 1.0
C      1  0.3962690000000  0.4691050000000  0.5489650000000 1.0
C      1  0.5720250000000  0.5708120000000  0.5469500000000 1.0
C      1  0.4380700000000  0.4974720000000  0.4191560000000 1.0
C      1  0.5371140000000  0.5359550000000  0.5561180000000 1.0
C      1  0.5172070000000  0.4381520000000  0.4788360000000 1.0
C      1  0.5078600000000  0.5612540000000  0.5285130000000 1.0
C      1  0.5915570000000  0.5272590000000  0.5333710000000 1.0
C      1  0.5807460000000  0.5305740000000  0.5785210000000 1.0
C      1  0.5772750000000  0.4491540000000  0.4408310000000 1.0
C      1  0.5061930000000  0.6071480000000  0.5325360000000 1.0
C      1  0.5243670000000  0.4518930000000  0.3891590000000 1.0
C      1  0.5097090000000  0.5239020000000  0.3985060000000 1.0
C      1  0.5220740000000  0.5187130000000  0.4642070000000 1.0
C      1  0.5112680000000  0.5376250000000  0.6069300000000 1.0
C      1  0.5024340000000  0.5079860000000  0.4216990000000 1.0
C      1  0.4727910000000  0.4155710000000  0.5407130000000 1.0
C      1  0.5294990000000  0.3947600000000  0.4634320000000 1.0
C      1  0.5749780000000  0.4946720000000  0.4160560000000 1.0
C      1  0.4099900000000  0.5680800000000  0.5215370000000 1.0
C      1  0.5913940000000  0.4734470000000  0.4315520000000 1.0
C      1  0.4201340000000  0.4287350000000  0.5213680000000 1.0
C      1  0.6063770000000  0.4902150000000  0.5531680000000 1.0
C      1  0.4964120000000  0.5237830000000  0.4437050000000 1.0
C      1  0.4918470000000  0.4683260000000  0.5480390000000 1.0
C      1  0.4657140000000  0.4122750000000  0.5692920000000 1.0
C      1  0.3950420000000  0.5578520000000  0.4986530000000 1.0
C      1  0.6160730000000  0.5455510000000  0.4969050000000 1.0
C      1  0.5075160000000  0.4323770000000  0.4474590000000 1.0
C      1  0.4768600000000  0.5903240000000  0.4993070000000 1.0
C      1  0.5616400000000  0.4616560000000  0.5356350000000 1.0
C      1  0.5519390000000  0.4979720000000  0.3925620000000 1.0
C      1  0.5756240000000  0.4449060000000  0.5552980000000 1.0
C      1  0.4395380000000  0.5298190000000  0.5765010000000 1.0
C      1  0.5961270000000  0.5078790000000  0.5700890000000 1.0
C      1  0.5879420000000  0.5469060000000  0.5555340000000 1.0
C      1  0.4926490000000  0.5993930000000  0.4538580000000 1.0
C      1  0.5160720000000  0.5064330000000  0.5280530000000 1.0
C      1  0.5977190000000  0.4518340000000  0.4927880000000 1.0
C      1  0.5266980000000  0.4060440000000  0.5447740000000 1.0
C      1  0.4520150000000  0.4589730000000  0.5248250000000 1.0
C      1  0.5246430000000  0.4670360000000  0.5092960000000 1.0
C      1  0.5540450000000  0.4900210000000  0.4418220000000 1.0
C      1  0.5847470000000  0.5810770000000  0.5222900000000 1.0
C      1  0.5195830000000  0.5650080000000  0.4766450000000 1.0
C      1  0.4828450000000  0.5240720000000  0.3832150000000 1.0
C      1  0.4415800000000  0.5306540000000  0.5122090000000 1.0
C      1  0.4679710000000  0.5571190000000  0.4014850000000 1.0
C      1  0.4610870000000  0.5717920000000  0.4237740000000 1.0
C      1  0.5312160000000  0.4237350000000  0.5704130000000 1.0
C      1  0.5921460000000  0.5640470000000  0.4975110000000 1.0
C      1  0.5383470000000  0.4501840000000  0.5254600000000 1.0
C      1  0.5628190000000  0.4645530000000  0.4611550000000 1.0
C      1  0.4299100000000  0.5074110000000  0.5593540000000 1.0
C      1  0.4742150000000  0.5714730000000  0.5821040000000 1.0
C      1  0.5564720000000  0.4301980000000  0.4306440000000 1.0
C      1  0.5352800000000  0.4742540000000  0.4265310000000 1.0
C      1  0.5508600000000  0.5323440000000  0.5809540000000 1.0
C      1  0.4891360000000  0.5314060000000  0.5670980000000 1.0
C      1  0.4873100000000  0.4821880000000  0.5976170000000 1.0
C      1  0.5444270000000  0.5787780000000  0.5529880000000 1.0
C      1  0.5488320000000  0.5189740000000  0.4499930000000 1.0
C      1  0.4799650000000  0.4959770000000  0.3843860000000 1.0
C      1  0.4803110000000  0.5168910000000  0.4932450000000 1.0
C      1  0.4796980000000  0.5485910000000  0.6021670000000 1.0
C      1  0.6147330000000  0.4756430000000  0.5297780000000 1.0
C      1  0.5334890000000  0.4176110000000  0.4444950000000 1.0
C      1  0.5080440000000  0.4811320000000  0.4248080000000 1.0
C      1  0.5173450000000  0.5959400000000  0.4370440000000 1.0
C      1  0.5814340000000  0.5225910000000  0.4238710000000 1.0
C      1  0.4517210000000  0.4631530000000  0.5694570000000 1.0
C      1  0.5019490000000  0.3890830000000  0.4575030000000 1.0
C      1  0.5104260000000  0.4788760000000  0.5290940000000 1.0
C      1  0.4559970000000  0.4312740000000  0.5168400000000 1.0
C      1  0.4957160000000  0.3979340000000  0.5352140000000 1.0
C      1  0.4474150000000  0.4535360000000  0.4704190000000 1.0
C      1  0.4501720000000  0.5742900000000  0.5647250000000 1.0
C      1  0.4953070000000  0.4445280000000  0.3939040000000 1.0
C      1  0.4804160000000  0.5569440000000  0.4630760000000 1.0
C      1  0.3843510000000  0.5317390000000  0.5068390000000 1.0
C      1  0.5107260000000  0.4354000000000  0.5869770000000 1.0
C      1  0.5439570000000  0.5951670000000  0.5004600000000 1.0
C      1  0.5273600000000  0.5747350000000  0.5758860000000 1.0
C      1  0.4806970000000  0.5439110000000  0.4883200000000 1.0
C      1  0.4745480000000  0.4691780000000  0.3892750000000 1.0
C      1  0.5050070000000  0.5532660000000  0.4473380000000 1.0
C      1  0.4219750000000  0.4347410000000  0.4732890000000 1.0
C      1  0.5889190000000  0.4294220000000  0.5345590000000 1.0
C      1  0.5269380000000  0.5848110000000  0.5270750000000 1.0
C      1  0.5445220000000  0.5662740000000  0.4250050000000 1.0
C      1  0.6156640000000  0.4919940000000  0.5054100000000 1.0
C      1  0.4492080000000  0.4411920000000  0.4446760000000 1.0
C      1  0.3949870000000  0.5216050000000  0.5317860000000 1.0
C      1  0.4851330000000  0.4217230000000  0.5907490000000 1.0
C      1  0.5941310000000  0.5178650000000  0.4496400000000 1.0
C      1  0.5803180000000  0.6094910000000  0.5165150000000 1.0
C      1  0.4051780000000  0.4696030000000  0.5772470000000 1.0
C      1  0.5451290000000  0.5272020000000  0.5037070000000 1.0
C      1  0.4495000000000  0.4825220000000  0.4689800000000 1.0
C      1  0.4175820000000  0.4942580000000  0.5757460000000 1.0
C      1  0.4942960000000  0.4760170000000  0.4700720000000 1.0
C      1  0.4648360000000  0.5930860000000  0.4440360000000 1.0
C      1  0.4591090000000  0.5509250000000  0.4466830000000 1.0
C      1  0.4910990000000  0.5041420000000  0.5780920000000 1.0
C      1  0.4676200000000  0.4538490000000  0.5474350000000 1.0
C      1  0.4927040000000  0.3870770000000  0.5095420000000 1.0
C      1  0.6058890000000  0.4487270000000  0.5203430000000 1.0
C      1  0.4340520000000  0.5848530000000  0.5160390000000 1.0
C      1  0.5712060000000  0.4162960000000  0.5147330000000 1.0
C      1  0.4906140000000  0.5137300000000  0.5198320000000 1.0
C      1  0.4563250000000  0.5352280000000  0.3945160000000 1.0
C      1  0.4103490000000  0.4428050000000  0.5456270000000 1.0
C      1  0.4818530000000  0.5599370000000  0.5131580000000 1.0
C      1  0.4206110000000  0.3949120000000  0.5154240000000 1.0
C      1  0.4899670000000  0.4220600000000  0.4104910000000 1.0
C      1  0.5389740000000  0.5232850000000  0.3974580000000 1.0
C      1  0.5332580000000  0.5521860000000  0.5948060000000 1.0
C      1  0.5691720000000  0.4855540000000  0.5213060000000 1.0
C      1  0.5551410000000  0.4398080000000  0.5761900000000 1.0
C      1  0.4949020000000  0.3826030000000  0.4837960000000 1.0
C      1  0.4987600000000  0.5884300000000  0.4796200000000 1.0
C      1  0.4651980000000  0.5332060000000  0.5521980000000 1.0
C      1  0.4403010000000  0.5049860000000  0.5272020000000 1.0
C      1  0.4733160000000  0.4932430000000  0.4781970000000 1.0
C      1  0.5364310000000  0.4837450000000  0.4908000000000 1.0
C      1  0.4433820000000  0.5853400000000  0.4619220000000 1.0
C      1  0.5206090000000  0.4284580000000  0.5272060000000 1.0
C      1  0.5561740000000  0.6219020000000  0.5014970000000 1.0
C      1  0.4930740000000  0.6069290000000  0.5570380000000 1.0
C      1  0.4652170000000  0.4570300000000  0.4281640000000 1.0
C      1  0.5481960000000  0.3996870000000  0.5193230000000 1.0
C      1  0.5450310000000  0.5878070000000  0.4448170000000 1.0
C      1  0.4931870000000  0.4609030000000  0.4389860000000 1.0
C      1  0.4456080000000  0.5020930000000  0.4487140000000 1.0
C      1  0.4261820000000  0.4457170000000  0.5714160000000 1.0
END
