TITL C-883728-9229-333 -9.12143062011729 125000 -10474.3327789271 0 0 71 (C1) n - 1
REM
REM in /home/nfs/bkarasulu/CARBON/AIRSS/Generating-Clusters/ReaxFF-fromJPCA2015/Units_Real/with-SteepDescent/Only-C1/SD-CG/Try1-3A/FIRE-CG
REM
REM
REM
REM
REM
REM ./C.cell (11c1c37f851c82e70ff6c80c92926a4b)
REM
REM compiler GCC version 9.2.1 20190827 (Red Hat 9.2.1-1)
REM options -cpp -mtune=generic -march=x86-64 -g -O0 -fpre-include=/usr/include/finclude/math-vector-fortran.h
REM seed 1348190545 -495686037 1520596640 -760146081 1512564729 -1213036896 417904522 1387685554 -1309255359 -749590367 1165925795 1025178886 1990219048 2039864239 -1865910686 1744455892 69087697 761726717 -1399156454 -621875899 -8976666 1458188182 -795425869 -1456759076 -1466923045 28961480 -998998794 -709450001 121773258 -1606187756 -196427312 -955915454 -1715075297
REM
CELL 1.54180   50.00000   50.00000   50.00000   90.00000   90.00000   90.00000
LATT -1
SFAC C  
C      1  0.5539010000000  0.5456200000000  0.5311830000000 1.0
C      1  0.5452490000000  0.5465930000000  0.4784390000000 1.0
C      1  0.4813120000000  0.4611820000000  0.4753780000000 1.0
C      1  0.5292490000000  0.4306140000000  0.4743370000000 1.0
C      1  0.4711670000000  0.5272130000000  0.4916580000000 1.0
C      1  0.4606640000000  0.4460290000000  0.4897170000000 1.0
C      1  0.4684980000000  0.4671720000000  0.5471420000000 1.0
C      1  0.5633540000000  0.4980280000000  0.4855410000000 1.0
C      1  0.5415710000000  0.5164160000000  0.5667020000000 1.0
C      1  0.4310190000000  0.5453070000000  0.4579820000000 1.0
C      1  0.5505860000000  0.5596470000000  0.5051250000000 1.0
C      1  0.5364610000000  0.5101660000000  0.4455660000000 1.0
C      1  0.4256600000000  0.5461620000000  0.4847420000000 1.0
C      1  0.5113580000000  0.4566120000000  0.5308640000000 1.0
C      1  0.5463120000000  0.5204250000000  0.5252500000000 1.0
C      1  0.4995070000000  0.5119570000000  0.5531950000000 1.0
C      1  0.5096910000000  0.5503580000000  0.4401690000000 1.0
C      1  0.4966700000000  0.4111100000000  0.5071620000000 1.0
C      1  0.5768520000000  0.4604100000000  0.5112130000000 1.0
C      1  0.4714820000000  0.5502240000000  0.5647120000000 1.0
C      1  0.5511370000000  0.5195840000000  0.4689860000000 1.0
C      1  0.5027810000000  0.4396320000000  0.4617340000000 1.0
C      1  0.5238130000000  0.5606050000000  0.4645510000000 1.0
C      1  0.5497930000000  0.4593980000000  0.4412060000000 1.0
C      1  0.4273430000000  0.4876500000000  0.4570490000000 1.0
C      1  0.5274640000000  0.5722980000000  0.5144600000000 1.0
C      1  0.4869230000000  0.5710190000000  0.5039540000000 1.0
C      1  0.4954430000000  0.5368910000000  0.5694230000000 1.0
C      1  0.5592270000000  0.4474050000000  0.5318520000000 1.0
C      1  0.5662180000000  0.5053860000000  0.5132010000000 1.0
C      1  0.4358440000000  0.5505560000000  0.5112720000000 1.0
C      1  0.4626070000000  0.5558980000000  0.5004450000000 1.0
C      1  0.5143350000000  0.4723630000000  0.5567500000000 1.0
C      1  0.5792460000000  0.4840400000000  0.5288580000000 1.0
C      1  0.5621480000000  0.4715710000000  0.5491440000000 1.0
C      1  0.4496510000000  0.5097890000000  0.4971660000000 1.0
C      1  0.5331600000000  0.4371810000000  0.5240850000000 1.0
C      1  0.4996750000000  0.5186510000000  0.5058400000000 1.0
C      1  0.5049110000000  0.4257660000000  0.4410090000000 1.0
C      1  0.5381120000000  0.5441510000000  0.5566950000000 1.0
C      1  0.5187190000000  0.4804070000000  0.4795290000000 1.0
C      1  0.5169490000000  0.5160090000000  0.5286600000000 1.0
C      1  0.5106330000000  0.5572470000000  0.5553060000000 1.0
C      1  0.4758120000000  0.4896390000000  0.4564040000000 1.0
C      1  0.5311920000000  0.4818020000000  0.4529460000000 1.0
C      1  0.5668380000000  0.4688760000000  0.4851780000000 1.0
C      1  0.4726500000000  0.5176310000000  0.4657600000000 1.0
C      1  0.4400200000000  0.4616000000000  0.5038250000000 1.0
C      1  0.4522600000000  0.5025360000000  0.5234730000000 1.0
C      1  0.4506710000000  0.4905870000000  0.4395570000000 1.0
C      1  0.5237410000000  0.4213440000000  0.5013450000000 1.0
C      1  0.4889130000000  0.5045580000000  0.4301230000000 1.0
C      1  0.4471810000000  0.4745920000000  0.5291170000000 1.0
C      1  0.4886270000000  0.4854980000000  0.5597060000000 1.0
C      1  0.4840330000000  0.4961520000000  0.5131270000000 1.0
C      1  0.4860530000000  0.4446330000000  0.5419160000000 1.0
C      1  0.4700620000000  0.4210500000000  0.5020280000000 1.0
C      1  0.5538640000000  0.4475220000000  0.4676960000000 1.0
C      1  0.5042760000000  0.5721310000000  0.5294080000000 1.0
C      1  0.4389200000000  0.5305150000000  0.5327700000000 1.0
C      1  0.4970320000000  0.5692570000000  0.4756820000000 1.0
C      1  0.5400570000000  0.4874840000000  0.5619920000000 1.0
C      1  0.4843060000000  0.5592260000000  0.4511080000000 1.0
C      1  0.4800980000000  0.4202880000000  0.5276870000000 1.0
C      1  0.4540030000000  0.5426020000000  0.5508680000000 1.0
C      1  0.4986780000000  0.4727870000000  0.5000580000000 1.0
C      1  0.4611040000000  0.5376530000000  0.4467440000000 1.0
C      1  0.4621530000000  0.5146320000000  0.4258550000000 1.0
C      1  0.4230460000000  0.4750170000000  0.4836530000000 1.0
C      1  0.5126380000000  0.5214110000000  0.4330860000000 1.0
C      1  0.4250740000000  0.5042390000000  0.4816360000000 1.0
END
