TITL C-884136-4169-207 2.21935806883579 125000 -16907.5371343585 0 0 115 (C1) n - 1
REM
REM in /home/nfs/bkarasulu/CARBON/AIRSS/Generating-Clusters/ReaxFF-fromJPCA2015/Units_Real/with-SteepDescent/Only-C1/SD-CG/Try1-3A/FIRE-CG
REM
REM
REM
REM
REM
REM ./C.cell (11c1c37f851c82e70ff6c80c92926a4b)
REM
REM compiler GCC version 9.2.1 20190827 (Red Hat 9.2.1-1)
REM options -cpp -mtune=generic -march=x86-64 -g -O0 -fpre-include=/usr/include/finclude/math-vector-fortran.h
REM seed -1975347198 -1447354921 1821440664 -1753031492 733921890 -1441083506 -15749562 -1189367453 -553994092 2023958044 -126009319 -1804399914 -1213202295 1247494142 -1492797576 -1726324073 -743674443 -2105144563 -885417311 -1136438723 548432369 803578198 505434660 -1189252159 -2068348940 -1220084980 -205185920 -1612452316 -1335292396 34011808 1562936302 -287110757 -874970060
REM
CELL 1.54180   50.00000   50.00000   50.00000   90.00000   90.00000   90.00000
LATT -1
SFAC C  
C      1  0.4705870000000  0.4485590000000  0.5425310000000 1.0
C      1  0.5589340000000  0.4751360000000  0.4301900000000 1.0
C      1  0.4767230000000  0.5637070000000  0.5591660000000 1.0
C      1  0.4647550000000  0.4799060000000  0.4114420000000 1.0
C      1  0.4298210000000  0.4542900000000  0.5380410000000 1.0
C      1  0.5238220000000  0.4370860000000  0.4826640000000 1.0
C      1  0.4882960000000  0.5933170000000  0.4742210000000 1.0
C      1  0.5390540000000  0.5637240000000  0.5435900000000 1.0
C      1  0.5135180000000  0.5698730000000  0.4348500000000 1.0
C      1  0.4170410000000  0.5672400000000  0.4962300000000 1.0
C      1  0.5631590000000  0.5486190000000  0.5349990000000 1.0
C      1  0.4955190000000  0.4170500000000  0.4636630000000 1.0
C      1  0.4469280000000  0.5751710000000  0.5318840000000 1.0
C      1  0.5186370000000  0.4437180000000  0.4252610000000 1.0
C      1  0.4941120000000  0.5795140000000  0.4497730000000 1.0
C      1  0.4535970000000  0.4117900000000  0.5102840000000 1.0
C      1  0.5891340000000  0.4820440000000  0.5199680000000 1.0
C      1  0.4826080000000  0.4048770000000  0.5120650000000 1.0
C      1  0.5469980000000  0.4700940000000  0.4998490000000 1.0
C      1  0.5301530000000  0.4408870000000  0.5509500000000 1.0
C      1  0.4682390000000  0.4566130000000  0.5670190000000 1.0
C      1  0.4557760000000  0.5703500000000  0.4592370000000 1.0
C      1  0.4609090000000  0.5336830000000  0.5151720000000 1.0
C      1  0.5713770000000  0.4691630000000  0.4549430000000 1.0
C      1  0.4930740000000  0.4946430000000  0.5908970000000 1.0
C      1  0.5007630000000  0.4777740000000  0.4996840000000 1.0
C      1  0.4368430000000  0.4950790000000  0.5615630000000 1.0
C      1  0.4508680000000  0.5174650000000  0.5765760000000 1.0
C      1  0.5881820000000  0.5240520000000  0.4669060000000 1.0
C      1  0.5189280000000  0.5365430000000  0.5155560000000 1.0
C      1  0.5150400000000  0.5032440000000  0.5470450000000 1.0
C      1  0.4611660000000  0.4866470000000  0.4616830000000 1.0
C      1  0.4753440000000  0.4554010000000  0.4228040000000 1.0
C      1  0.5116190000000  0.5563470000000  0.4954130000000 1.0
C      1  0.5417560000000  0.4303450000000  0.4630040000000 1.0
C      1  0.5912260000000  0.5256150000000  0.4957560000000 1.0
C      1  0.4406480000000  0.4886390000000  0.4261230000000 1.0
C      1  0.4936070000000  0.5171530000000  0.4261580000000 1.0
C      1  0.4854640000000  0.4438610000000  0.5221420000000 1.0
C      1  0.5176470000000  0.4561150000000  0.5725620000000 1.0
C      1  0.4484450000000  0.4211350000000  0.4833960000000 1.0
C      1  0.4328480000000  0.4306630000000  0.5208590000000 1.0
C      1  0.5544850000000  0.4579770000000  0.5556730000000 1.0
C      1  0.4245610000000  0.5200910000000  0.4776870000000 1.0
C      1  0.5027740000000  0.4835130000000  0.5295220000000 1.0
C      1  0.4304780000000  0.5539760000000  0.5443400000000 1.0
C      1  0.4281670000000  0.4770660000000  0.5188010000000 1.0
C      1  0.5726560000000  0.4410470000000  0.5417270000000 1.0
C      1  0.5347300000000  0.5790450000000  0.4944560000000 1.0
C      1  0.5508070000000  0.4212640000000  0.5395760000000 1.0
C      1  0.5631350000000  0.5644980000000  0.4873520000000 1.0
C      1  0.4360190000000  0.5432820000000  0.5710300000000 1.0
C      1  0.5190700000000  0.4244540000000  0.4459200000000 1.0
C      1  0.4988660000000  0.4027580000000  0.4884300000000 1.0
C      1  0.4386860000000  0.4682240000000  0.4505670000000 1.0
C      1  0.5057720000000  0.5968220000000  0.5186010000000 1.0
C      1  0.5576040000000  0.4847950000000  0.5655130000000 1.0
C      1  0.4152350000000  0.5375170000000  0.4984940000000 1.0
C      1  0.5249560000000  0.5124470000000  0.5015410000000 1.0
C      1  0.4719680000000  0.4353810000000  0.4700630000000 1.0
C      1  0.4593050000000  0.4466190000000  0.4446700000000 1.0
C      1  0.4792690000000  0.5196060000000  0.5818570000000 1.0
C      1  0.5399100000000  0.5371010000000  0.4366100000000 1.0
C      1  0.5037650000000  0.5360430000000  0.4687600000000 1.0
C      1  0.5328150000000  0.5563600000000  0.4236830000000 1.0
C      1  0.4599090000000  0.5886760000000  0.4814970000000 1.0
C      1  0.5013660000000  0.5264650000000  0.5363030000000 1.0
C      1  0.5726060000000  0.5508580000000  0.4637780000000 1.0
C      1  0.4257190000000  0.5009750000000  0.5358560000000 1.0
C      1  0.4716880000000  0.5607500000000  0.5266750000000 1.0
C      1  0.4253180000000  0.4385780000000  0.4916210000000 1.0
C      1  0.4753040000000  0.5436140000000  0.4612270000000 1.0
C      1  0.5249290000000  0.4180370000000  0.5036110000000 1.0
C      1  0.4942200000000  0.5450780000000  0.5716340000000 1.0
C      1  0.5343500000000  0.4788730000000  0.5839630000000 1.0
C      1  0.4751970000000  0.5166600000000  0.5330870000000 1.0
C      1  0.4240210000000  0.5312420000000  0.4508540000000 1.0
C      1  0.5674130000000  0.4434770000000  0.4986820000000 1.0
C      1  0.5227810000000  0.4636390000000  0.4886350000000 1.0
C      1  0.4410290000000  0.4659490000000  0.5638340000000 1.0
C      1  0.4776500000000  0.4578340000000  0.4979560000000 1.0
C      1  0.5152250000000  0.5261100000000  0.4447620000000 1.0
C      1  0.4423550000000  0.5170790000000  0.4316420000000 1.0
C      1  0.5565680000000  0.5242240000000  0.4252320000000 1.0
C      1  0.4285620000000  0.5295560000000  0.5250310000000 1.0
C      1  0.4712140000000  0.5235790000000  0.4895290000000 1.0
C      1  0.5629410000000  0.5234420000000  0.5496760000000 1.0
C      1  0.5346320000000  0.4644970000000  0.4192510000000 1.0
C      1  0.4504490000000  0.5041750000000  0.4844970000000 1.0
C      1  0.4405410000000  0.5835960000000  0.5041930000000 1.0
C      1  0.5863760000000  0.4533410000000  0.5196410000000 1.0
C      1  0.4917690000000  0.4668870000000  0.5788020000000 1.0
C      1  0.5717110000000  0.5014500000000  0.4288570000000 1.0
C      1  0.4562300000000  0.4791820000000  0.5071540000000 1.0
C      1  0.5034000000000  0.4221000000000  0.5251570000000 1.0
C      1  0.5240320000000  0.5470810000000  0.5628930000000 1.0
C      1  0.5918150000000  0.4977600000000  0.4973530000000 1.0
C      1  0.5827930000000  0.4965790000000  0.4562950000000 1.0
C      1  0.5320520000000  0.5848600000000  0.5243600000000 1.0
C      1  0.5650630000000  0.4962060000000  0.5375480000000 1.0
C      1  0.5196740000000  0.4968430000000  0.5996790000000 1.0
C      1  0.5358860000000  0.5205180000000  0.5612860000000 1.0
C      1  0.4991780000000  0.5111600000000  0.4859480000000 1.0
C      1  0.5528220000000  0.4201170000000  0.5112650000000 1.0
C      1  0.4739620000000  0.4880790000000  0.5307360000000 1.0
C      1  0.4223730000000  0.4647530000000  0.4802960000000 1.0
C      1  0.4918330000000  0.4916560000000  0.4126300000000 1.0
C      1  0.5658820000000  0.4445870000000  0.4687000000000 1.0
C      1  0.4923860000000  0.5720840000000  0.5113460000000 1.0
C      1  0.4690450000000  0.5280680000000  0.4362950000000 1.0
C      1  0.5748020000000  0.5483580000000  0.5083990000000 1.0
C      1  0.5129830000000  0.6003400000000  0.4903340000000 1.0
C      1  0.5057890000000  0.4687860000000  0.4286950000000 1.0
C      1  0.5449650000000  0.4943970000000  0.5122120000000 1.0
C      1  0.4289980000000  0.5608260000000  0.4501020000000 1.0
END
