TITL C-883734-4173-148 17.7656385857693 125000 -18626.4440842073 0 0 125 (C1) n - 1
REM
REM in /home/nfs/bkarasulu/CARBON/AIRSS/Generating-Clusters/ReaxFF-fromJPCA2015/Units_Real/with-SteepDescent/Only-C1/SD-CG/Try1-3A/FIRE-CG
REM
REM
REM
REM
REM
REM ./C.cell (11c1c37f851c82e70ff6c80c92926a4b)
REM
REM compiler GCC version 9.2.1 20190827 (Red Hat 9.2.1-1)
REM options -cpp -mtune=generic -march=x86-64 -g -O0 -fpre-include=/usr/include/finclude/math-vector-fortran.h
REM seed 1651212554 41891859 2145886546 -890681907 -80896939 73668731 -1505011535 1768881249 -467500143 1024730984 -1540486924 -2008108397 544747306 -1882597541 -1714250685 509927306 -105740495 689730271 -450534731 1831360107 -1411547426 1988589051 1933117216 -1601859158 -1529707637 1570155683 373028504 -587465128 1296326086 -619461474 -849712179 -16746321 1855739259
REM
CELL 1.54180   50.00000   50.00000   50.00000   90.00000   90.00000   90.00000
LATT -1
SFAC C  
C      1  0.4073230000000  0.4564910000000  0.4682060000000 1.0
C      1  0.5414060000000  0.4675530000000  0.5760520000000 1.0
C      1  0.4673910000000  0.5563200000000  0.4367750000000 1.0
C      1  0.5480640000000  0.4438960000000  0.4948860000000 1.0
C      1  0.5259780000000  0.5054770000000  0.5134780000000 1.0
C      1  0.4155070000000  0.5523040000000  0.5288180000000 1.0
C      1  0.5062790000000  0.4401400000000  0.5767460000000 1.0
C      1  0.5339870000000  0.4994460000000  0.4114730000000 1.0
C      1  0.4256290000000  0.5085610000000  0.5078250000000 1.0
C      1  0.5591480000000  0.5516570000000  0.5548660000000 1.0
C      1  0.5218750000000  0.5570950000000  0.4866690000000 1.0
C      1  0.4917970000000  0.4114020000000  0.4561330000000 1.0
C      1  0.4148370000000  0.4831140000000  0.4689150000000 1.0
C      1  0.5344960000000  0.5129220000000  0.4867640000000 1.0
C      1  0.4956350000000  0.5590550000000  0.4370800000000 1.0
C      1  0.5667320000000  0.4239210000000  0.5033140000000 1.0
C      1  0.5468780000000  0.5290230000000  0.5487230000000 1.0
C      1  0.4283190000000  0.4807830000000  0.4976780000000 1.0
C      1  0.5646010000000  0.5112290000000  0.5582970000000 1.0
C      1  0.4688750000000  0.4761670000000  0.4248840000000 1.0
C      1  0.4444090000000  0.5598900000000  0.5191780000000 1.0
C      1  0.5027420000000  0.4904750000000  0.5174190000000 1.0
C      1  0.4911490000000  0.5108610000000  0.3874180000000 1.0
C      1  0.4682560000000  0.5243670000000  0.4000520000000 1.0
C      1  0.5230030000000  0.5374830000000  0.5895130000000 1.0
C      1  0.5167700000000  0.4148440000000  0.4711220000000 1.0
C      1  0.5051520000000  0.4837880000000  0.4726060000000 1.0
C      1  0.4804730000000  0.4835900000000  0.5880290000000 1.0
C      1  0.5296470000000  0.5841340000000  0.5335880000000 1.0
C      1  0.4975670000000  0.4217040000000  0.5165610000000 1.0
C      1  0.4114110000000  0.4360400000000  0.4864470000000 1.0
C      1  0.4543220000000  0.5330470000000  0.4238550000000 1.0
C      1  0.5996510000000  0.4319080000000  0.5413180000000 1.0
C      1  0.4627990000000  0.5813940000000  0.5244950000000 1.0
C      1  0.5256930000000  0.6051910000000  0.4872990000000 1.0
C      1  0.5027980000000  0.4923000000000  0.6049480000000 1.0
C      1  0.4509340000000  0.4876170000000  0.5880840000000 1.0
C      1  0.5918610000000  0.5073020000000  0.5444580000000 1.0
C      1  0.5371920000000  0.4494710000000  0.5220480000000 1.0
C      1  0.5667960000000  0.5056200000000  0.4547560000000 1.0
C      1  0.4543760000000  0.4395620000000  0.5335410000000 1.0
C      1  0.4256830000000  0.4419560000000  0.5305400000000 1.0
C      1  0.4569020000000  0.5469590000000  0.5623320000000 1.0
C      1  0.5619620000000  0.4694700000000  0.5336570000000 1.0
C      1  0.5121870000000  0.5960440000000  0.5120740000000 1.0
C      1  0.6036460000000  0.4813710000000  0.5348480000000 1.0
C      1  0.5298880000000  0.4828160000000  0.5986380000000 1.0
C      1  0.4667020000000  0.4693990000000  0.5269850000000 1.0
C      1  0.5805380000000  0.5337600000000  0.5002940000000 1.0
C      1  0.4875870000000  0.4890320000000  0.4941590000000 1.0
C      1  0.5717580000000  0.4789820000000  0.5074120000000 1.0
C      1  0.4156720000000  0.4553130000000  0.5086960000000 1.0
C      1  0.4695490000000  0.4209340000000  0.4383780000000 1.0
C      1  0.4862750000000  0.4570510000000  0.4081660000000 1.0
C      1  0.4979540000000  0.5394440000000  0.5746920000000 1.0
C      1  0.4938290000000  0.5361500000000  0.3975430000000 1.0
C      1  0.5103300000000  0.5419190000000  0.4198030000000 1.0
C      1  0.5574080000000  0.5249660000000  0.4340220000000 1.0
C      1  0.4575190000000  0.5725030000000  0.4599120000000 1.0
C      1  0.4461840000000  0.4743570000000  0.5624130000000 1.0
C      1  0.5353000000000  0.4391050000000  0.5672440000000 1.0
C      1  0.5128970000000  0.4940820000000  0.3928680000000 1.0
C      1  0.4769620000000  0.4966200000000  0.4415830000000 1.0
C      1  0.5206130000000  0.5770160000000  0.5605080000000 1.0
C      1  0.4688110000000  0.5192390000000  0.5456850000000 1.0
C      1  0.4130180000000  0.5209750000000  0.5321310000000 1.0
C      1  0.4632440000000  0.4729180000000  0.4969550000000 1.0
C      1  0.4612610000000  0.5362130000000  0.5224930000000 1.0
C      1  0.5680810000000  0.5603610000000  0.5073070000000 1.0
C      1  0.4456790000000  0.4377300000000  0.4462800000000 1.0
C      1  0.4437820000000  0.4658250000000  0.4363380000000 1.0
C      1  0.5623360000000  0.5178100000000  0.4809480000000 1.0
C      1  0.4924660000000  0.4648800000000  0.5688160000000 1.0
C      1  0.5086730000000  0.4464080000000  0.5248680000000 1.0
C      1  0.5979860000000  0.4670960000000  0.5091400000000 1.0
C      1  0.4213680000000  0.5152830000000  0.5585060000000 1.0
C      1  0.4612330000000  0.4247800000000  0.4868670000000 1.0
C      1  0.5124090000000  0.4664790000000  0.3988500000000 1.0
C      1  0.4388540000000  0.5230160000000  0.4858150000000 1.0
C      1  0.5592890000000  0.4770060000000  0.4570620000000 1.0
C      1  0.4573260000000  0.4908930000000  0.5428810000000 1.0
C      1  0.4848500000000  0.5165710000000  0.4578720000000 1.0
C      1  0.5532210000000  0.4846250000000  0.5571960000000 1.0
C      1  0.5551940000000  0.5698560000000  0.5312530000000 1.0
C      1  0.5163780000000  0.5093210000000  0.4624620000000 1.0
C      1  0.5101020000000  0.5442830000000  0.5077370000000 1.0
C      1  0.4971130000000  0.5224130000000  0.5517490000000 1.0
C      1  0.4288400000000  0.4900920000000  0.4439790000000 1.0
C      1  0.5416050000000  0.4584110000000  0.4429390000000 1.0
C      1  0.5271080000000  0.5202900000000  0.4314880000000 1.0
C      1  0.4355340000000  0.4264100000000  0.4711750000000 1.0
C      1  0.5541580000000  0.5763330000000  0.4569670000000 1.0
C      1  0.5255000000000  0.5116250000000  0.6031150000000 1.0
C      1  0.4832910000000  0.5887950000000  0.5050520000000 1.0
C      1  0.5289760000000  0.5926700000000  0.4606160000000 1.0
C      1  0.4986520000000  0.4567630000000  0.4660660000000 1.0
C      1  0.4353460000000  0.4487520000000  0.5551810000000 1.0
C      1  0.4679880000000  0.5252870000000  0.4803220000000 1.0
C      1  0.5900890000000  0.4591550000000  0.5490200000000 1.0
C      1  0.4247610000000  0.5347490000000  0.4621350000000 1.0
C      1  0.4793330000000  0.5824020000000  0.4771570000000 1.0
C      1  0.4948150000000  0.4680000000000  0.5361140000000 1.0
C      1  0.5384330000000  0.5583410000000  0.5749770000000 1.0
C      1  0.5046470000000  0.5732570000000  0.4630750000000 1.0
C      1  0.5919730000000  0.4371270000000  0.5122960000000 1.0
C      1  0.5909880000000  0.5178520000000  0.5201190000000 1.0
C      1  0.4936610000000  0.5680280000000  0.5674630000000 1.0
C      1  0.4684200000000  0.4199600000000  0.5142370000000 1.0
C      1  0.5582970000000  0.4685300000000  0.4842280000000 1.0
C      1  0.5207270000000  0.5264200000000  0.5339220000000 1.0
C      1  0.4674560000000  0.5724520000000  0.5537840000000 1.0
C      1  0.5214070000000  0.4412080000000  0.4568870000000 1.0
C      1  0.4745340000000  0.4502950000000  0.4807520000000 1.0
C      1  0.5436220000000  0.4272470000000  0.5418980000000 1.0
C      1  0.5196820000000  0.4097470000000  0.5007280000000 1.0
C      1  0.5606920000000  0.5540460000000  0.4394400000000 1.0
C      1  0.4289610000000  0.5643440000000  0.4641720000000 1.0
C      1  0.4795290000000  0.4284040000000  0.4107290000000 1.0
C      1  0.5442730000000  0.4098250000000  0.5178050000000 1.0
C      1  0.5351210000000  0.4702550000000  0.4173760000000 1.0
C      1  0.4324270000000  0.5074110000000  0.5807080000000 1.0
C      1  0.5498700000000  0.5652090000000  0.4848580000000 1.0
C      1  0.4823140000000  0.5376330000000  0.5021570000000 1.0
C      1  0.4334450000000  0.5188750000000  0.4386110000000 1.0
C      1  0.3917520000000  0.5534250000000  0.5181540000000 1.0
END
