TITL C-884137-4758-29 7889309.43419155 125000 -25445.6353988796 0 0 174 (C1) n - 1
REM
REM in /home/nfs/bkarasulu/CARBON/AIRSS/Generating-Clusters/ReaxFF-fromJPCA2015/Units_Real/with-SteepDescent/Only-C1/SD-CG/Try1-3A/FIRE-CG
REM
REM
REM
REM
REM
REM ./C.cell (11c1c37f851c82e70ff6c80c92926a4b)
REM
REM compiler GCC version 9.2.1 20190827 (Red Hat 9.2.1-1)
REM options -cpp -mtune=generic -march=x86-64 -g -O0 -fpre-include=/usr/include/finclude/math-vector-fortran.h
REM seed -1076986047 -559061930 523682933 -1580290258 -1392520663 891687124 1150880457 1604643807 -1018333845 -1732377324 -17251357 769498195 -731735519 1026611424 -663093091 -435992517 -1072454228 260633780 914542847 1846041093 -1539486109 -1905658754 931083984 -943435696 1923201784 156195292 176186564 -1516184820 -979134245 1114531143 2086238486 1967822726 -55921795
REM
CELL 1.54180   50.00000   50.00000   50.00000   90.00000   90.00000   90.00000
LATT -1
SFAC C  
C      1  0.4886330000000  0.4971830000000  0.4408830000000 1.0
C      1  0.4506440000000  0.3886870000000  0.4944030000000 1.0
C      1  0.4261980000000  0.4345660000000  0.4457290000000 1.0
C      1  0.4826970000000  0.4107090000000  0.4630890000000 1.0
C      1  0.5081380000000  0.4061760000000  0.5214670000000 1.0
C      1  0.4869960000000  0.5698690000000  0.4335970000000 1.0
C      1  0.5653390000000  0.4337110000000  0.4565450000000 1.0
C      1  0.4519520000000  0.5740250000000  0.5638160000000 1.0
C      1  0.4641780000000  0.4712090000000  0.4712010000000 1.0
C      1  0.4614320000000  0.5341450000000  0.5959650000000 1.0
C      1  0.5317530000000  0.4732750000000  0.4937650000000 1.0
C      1  0.4348300000000  0.3955090000000  0.4726360000000 1.0
C      1  0.5142580000000  0.5511170000000  0.5964480000000 1.0
C      1  0.5583980000000  0.4743620000000  0.5372390000000 1.0
C      1  0.4936300000000  0.5356210000000  0.4050310000000 1.0
C      1  0.3798670000000  0.5144970000000  0.4984100000000 1.0
C      1  0.6007980000000  0.5492130000000  0.5233220000000 1.0
C      1  0.4290880000000  0.5400260000000  0.4355920000000 1.0
C      1  0.5503040000000  0.5417830000000  0.4211220000000 1.0
C      1  0.5922490000000  0.4465390000000  0.4855070000000 1.0
C      1  0.4265620000000  0.4201280000000  0.5232960000000 1.0
C      1  0.6076230000000  0.5065380000000  0.4287360000000 1.0
C      1  0.4980570000000  0.5020130000000  0.5794980000000 1.0
C      1  0.5322020000000  0.4113020000000  0.5343190000000 1.0
C      1  0.5257980000000  0.5819040000000  0.4443330000000 1.0
C      1  0.5974280000000  0.4510620000000  0.5135380000000 1.0
C      1  0.6014790000000  0.5210360000000  0.4791670000000 1.0
C      1  0.3965100000000  0.4877200000000  0.4705150000000 1.0
C      1  0.4744090000000  0.5358260000000  0.5136690000000 1.0
C      1  0.5084250000000  0.4609010000000  0.4518920000000 1.0
C      1  0.5594090000000  0.5119980000000  0.6033550000000 1.0
C      1  0.5408280000000  0.4865820000000  0.5789960000000 1.0
C      1  0.5943130000000  0.4738480000000  0.4715060000000 1.0
C      1  0.5790670000000  0.5642920000000  0.4794890000000 1.0
C      1  0.5607510000000  0.4521910000000  0.5762780000000 1.0
C      1  0.5207710000000  0.4055220000000  0.4953310000000 1.0
C      1  0.5145710000000  0.5188080000000  0.5379970000000 1.0
C      1  0.5454120000000  0.5898120000000  0.5284880000000 1.0
C      1  0.4956420000000  0.4561930000000  0.5495330000000 1.0
C      1  0.5500850000000  0.5936980000000  0.4551720000000 1.0
C      1  0.6067290000000  0.4797900000000  0.5164890000000 1.0
C      1  0.4337390000000  0.4510900000000  0.4922810000000 1.0
C      1  0.4519440000000  0.4574580000000  0.5152420000000 1.0
C      1  0.3917370000000  0.5301030000000  0.5217260000000 1.0
C      1  0.4358900000000  0.4720650000000  0.4707710000000 1.0
C      1  0.5886850000000  0.4842970000000  0.4372020000000 1.0
C      1  0.4625670000000  0.3918740000000  0.4673440000000 1.0
C      1  0.4345960000000  0.5124040000000  0.5145000000000 1.0
C      1  0.4816820000000  0.4905120000000  0.5129450000000 1.0
C      1  0.4656340000000  0.4407030000000  0.5781730000000 1.0
C      1  0.4627450000000  0.5903910000000  0.5412660000000 1.0
C      1  0.4425950000000  0.5884160000000  0.5211980000000 1.0
C      1  0.4804470000000  0.4880320000000  0.6183490000000 1.0
C      1  0.4972320000000  0.4888610000000  0.3989840000000 1.0
C      1  0.4531240000000  0.5778800000000  0.4934300000000 1.0
C      1  0.4777510000000  0.4147640000000  0.5278060000000 1.0
C      1  0.4259170000000  0.5642260000000  0.5563380000000 1.0
C      1  0.5498810000000  0.5605560000000  0.4879230000000 1.0
C      1  0.4487120000000  0.5390620000000  0.4145190000000 1.0
C      1  0.4950740000000  0.5543770000000  0.5117970000000 1.0
C      1  0.5669040000000  0.4709580000000  0.4193240000000 1.0
C      1  0.5574580000000  0.4657720000000  0.5035550000000 1.0
C      1  0.4539860000000  0.4409100000000  0.4459880000000 1.0
C      1  0.5552220000000  0.5728830000000  0.5477810000000 1.0
C      1  0.5482650000000  0.4100510000000  0.4859450000000 1.0
C      1  0.5782030000000  0.5098320000000  0.5176960000000 1.0
C      1  0.5429670000000  0.4285850000000  0.5708350000000 1.0
C      1  0.5117480000000  0.4387100000000  0.4082490000000 1.0
C      1  0.4401450000000  0.5206330000000  0.5827610000000 1.0
C      1  0.4810770000000  0.4694920000000  0.4482890000000 1.0
C      1  0.5002280000000  0.4464950000000  0.5005220000000 1.0
C      1  0.6077000000000  0.4958610000000  0.5422230000000 1.0
C      1  0.4516730000000  0.4046100000000  0.5186360000000 1.0
C      1  0.4598050000000  0.5142190000000  0.4720970000000 1.0
C      1  0.4045680000000  0.5551720000000  0.5109110000000 1.0
C      1  0.4244860000000  0.5107280000000  0.4334500000000 1.0
C      1  0.4212340000000  0.4192260000000  0.4701030000000 1.0
C      1  0.4747480000000  0.4653960000000  0.4981170000000 1.0
C      1  0.4983240000000  0.5282860000000  0.5603610000000 1.0
C      1  0.4212210000000  0.5338150000000  0.5608690000000 1.0
C      1  0.5542570000000  0.4518640000000  0.4360680000000 1.0
C      1  0.5053860000000  0.4170420000000  0.4750260000000 1.0
C      1  0.4872000000000  0.4823140000000  0.5613260000000 1.0
C      1  0.4677420000000  0.4963020000000  0.5457580000000 1.0
C      1  0.4694180000000  0.5588050000000  0.5823710000000 1.0
C      1  0.5099000000000  0.4906750000000  0.5244600000000 1.0
C      1  0.5472770000000  0.5836710000000  0.5014940000000 1.0
C      1  0.4697240000000  0.4408750000000  0.5368420000000 1.0
C      1  0.5787140000000  0.4554980000000  0.5524480000000 1.0
C      1  0.5864460000000  0.5001080000000  0.5625780000000 1.0
C      1  0.3987040000000  0.4598590000000  0.5413030000000 1.0
C      1  0.5553710000000  0.5172020000000  0.5022770000000 1.0
C      1  0.4294120000000  0.4845330000000  0.5520670000000 1.0
C      1  0.4172840000000  0.4885170000000  0.4522100000000 1.0
C      1  0.5403430000000  0.4675360000000  0.5601020000000 1.0
C      1  0.4842440000000  0.5162700000000  0.6080360000000 1.0
C      1  0.5727510000000  0.5735590000000  0.4531040000000 1.0
C      1  0.5163280000000  0.4553530000000  0.4784920000000 1.0
C      1  0.4002380000000  0.4879710000000  0.5540380000000 1.0
C      1  0.4699000000000  0.4835280000000  0.4048150000000 1.0
C      1  0.4740910000000  0.5547620000000  0.4113720000000 1.0
C      1  0.5210200000000  0.4098730000000  0.4518290000000 1.0
C      1  0.4692520000000  0.5262650000000  0.5423020000000 1.0
C      1  0.5123490000000  0.5327010000000  0.6156160000000 1.0
C      1  0.5149950000000  0.4389000000000  0.5714260000000 1.0
C      1  0.4814660000000  0.5112510000000  0.4924400000000 1.0
C      1  0.4062480000000  0.5548080000000  0.4804850000000 1.0
C      1  0.5401990000000  0.5275470000000  0.6133540000000 1.0
C      1  0.5091830000000  0.5162950000000  0.4436340000000 1.0
C      1  0.4192450000000  0.5733240000000  0.5294770000000 1.0
C      1  0.4838640000000  0.4347700000000  0.4157450000000 1.0
C      1  0.5579640000000  0.5445510000000  0.5392680000000 1.0
C      1  0.4409230000000  0.5273510000000  0.5382820000000 1.0
C      1  0.5512860000000  0.5446360000000  0.5103170000000 1.0
C      1  0.5209740000000  0.4703910000000  0.4037980000000 1.0
C      1  0.4169570000000  0.4288860000000  0.4969650000000 1.0
C      1  0.3905990000000  0.5325290000000  0.4797020000000 1.0
C      1  0.5682610000000  0.5069980000000  0.4402770000000 1.0
C      1  0.5527450000000  0.4994040000000  0.4633490000000 1.0
C      1  0.4997760000000  0.5702870000000  0.4883800000000 1.0
C      1  0.4202440000000  0.4380040000000  0.5456130000000 1.0
C      1  0.5912600000000  0.5261750000000  0.4479380000000 1.0
C      1  0.5694050000000  0.4918600000000  0.5861310000000 1.0
C      1  0.4725880000000  0.5885300000000  0.4510320000000 1.0
C      1  0.5290400000000  0.4996730000000  0.5026410000000 1.0
C      1  0.5824060000000  0.5598920000000  0.5430340000000 1.0
C      1  0.5059500000000  0.5460610000000  0.4442240000000 1.0
C      1  0.5113640000000  0.5156170000000  0.4000600000000 1.0
C      1  0.5409500000000  0.5148710000000  0.4108310000000 1.0
C      1  0.5654610000000  0.5040340000000  0.5430600000000 1.0
C      1  0.4465940000000  0.5799310000000  0.4623500000000 1.0
C      1  0.5563690000000  0.4208200000000  0.5448670000000 1.0
C      1  0.4791560000000  0.5899880000000  0.4910310000000 1.0
C      1  0.4503490000000  0.5082130000000  0.4183300000000 1.0
C      1  0.4264990000000  0.5605950000000  0.4573900000000 1.0
C      1  0.5980370000000  0.5465640000000  0.4927140000000 1.0
C      1  0.5477720000000  0.4871950000000  0.4045070000000 1.0
C      1  0.4977960000000  0.5559070000000  0.5746410000000 1.0
C      1  0.4312400000000  0.4823130000000  0.5219450000000 1.0
C      1  0.4995670000000  0.4690070000000  0.6059000000000 1.0
C      1  0.4027730000000  0.4710740000000  0.5151310000000 1.0
C      1  0.6059250000000  0.5206700000000  0.5256880000000 1.0
C      1  0.5831960000000  0.4345550000000  0.5341580000000 1.0
C      1  0.5123280000000  0.6122990000000  0.4868580000000 1.0
C      1  0.5398950000000  0.6034030000000  0.4808200000000 1.0
C      1  0.5134800000000  0.5334790000000  0.5144110000000 1.0
C      1  0.3847530000000  0.4845490000000  0.4955130000000 1.0
C      1  0.6074370000000  0.4945860000000  0.4897560000000 1.0
C      1  0.4917070000000  0.5977450000000  0.5355270000000 1.0
C      1  0.5214180000000  0.5962280000000  0.5400820000000 1.0
C      1  0.5642320000000  0.4357820000000  0.4870840000000 1.0
C      1  0.4726020000000  0.4195560000000  0.4387540000000 1.0
C      1  0.5481630000000  0.4106600000000  0.4568920000000 1.0
C      1  0.4479740000000  0.4971630000000  0.5681420000000 1.0
C      1  0.4384980000000  0.4492920000000  0.4243560000000 1.0
C      1  0.5292450000000  0.4659070000000  0.4337320000000 1.0
C      1  0.4407240000000  0.5269750000000  0.4899140000000 1.0
C      1  0.5232410000000  0.4232970000000  0.4277950000000 1.0
C      1  0.4645010000000  0.5108870000000  0.4449460000000 1.0
C      1  0.4881020000000  0.6069410000000  0.4699030000000 1.0
C      1  0.5198160000000  0.5633850000000  0.4683930000000 1.0
C      1  0.5106210000000  0.4600820000000  0.5243200000000 1.0
C      1  0.5275470000000  0.5123330000000  0.4646590000000 1.0
C      1  0.3986840000000  0.5165220000000  0.5464750000000 1.0
C      1  0.5682830000000  0.4841350000000  0.4828050000000 1.0
C      1  0.5083700000000  0.6112090000000  0.5171370000000 1.0
C      1  0.4573610000000  0.5494330000000  0.4981800000000 1.0
C      1  0.4631610000000  0.4561410000000  0.4095090000000 1.0
C      1  0.5118610000000  0.5185420000000  0.4890910000000 1.0
C      1  0.5180230000000  0.4880870000000  0.5939600000000 1.0
C      1  0.4925820000000  0.4439220000000  0.5894530000000 1.0
C      1  0.5269800000000  0.5589120000000  0.4258450000000 1.0
C      1  0.4417050000000  0.4387730000000  0.5655390000000 1.0
C      1  0.5733680000000  0.5491270000000  0.4372310000000 1.0
END
