TITL C-883739-1268-64 17.2691797582633 125000 -15810.7958335135 0 0 108 (C1) n - 1
REM
REM in /home/nfs/bkarasulu/CARBON/AIRSS/Generating-Clusters/ReaxFF-fromJPCA2015/Units_Real/with-SteepDescent/Only-C1/SD-CG/Try1-3A/FIRE-CG
REM
REM
REM
REM
REM
REM ./C.cell (11c1c37f851c82e70ff6c80c92926a4b)
REM
REM compiler GCC version 9.2.1 20190827 (Red Hat 9.2.1-1)
REM options -cpp -mtune=generic -march=x86-64 -g -O0 -fpre-include=/usr/include/finclude/math-vector-fortran.h
REM seed 1196664996 2042723901 1352552840 1050608159 -645545661 919836545 -120238484 -1480957716 1593205819 -520320717 -461800751 -1788104681 -287192093 156098855 -1696317404 708546764 -1880553492 122050433 -1875575868 -1882674453 244669666 1156062386 192965683 1507352487 349207434 -785519873 -359978440 -135300929 531737112 -1430878211 -1173844866 1861295671 -1852273504
REM
CELL 1.54180   50.00000   50.00000   50.00000   90.00000   90.00000   90.00000
LATT -1
SFAC C  
C      1  0.5597340000000  0.5580360000000  0.5608380000000 1.0
C      1  0.4539860000000  0.4032650000000  0.4966030000000 1.0
C      1  0.5273040000000  0.4950320000000  0.4852880000000 1.0
C      1  0.5211510000000  0.5611040000000  0.5696690000000 1.0
C      1  0.4666130000000  0.5189310000000  0.4117430000000 1.0
C      1  0.5671760000000  0.5329670000000  0.5498030000000 1.0
C      1  0.4248130000000  0.4591120000000  0.4582530000000 1.0
C      1  0.5875930000000  0.4822740000000  0.5232870000000 1.0
C      1  0.4727360000000  0.4466060000000  0.5025970000000 1.0
C      1  0.5771930000000  0.5183810000000  0.4853090000000 1.0
C      1  0.4719060000000  0.5835650000000  0.5244680000000 1.0
C      1  0.5371280000000  0.4517600000000  0.4582870000000 1.0
C      1  0.4721080000000  0.5355880000000  0.4516430000000 1.0
C      1  0.5341520000000  0.5332210000000  0.4879650000000 1.0
C      1  0.5189490000000  0.4428310000000  0.4355830000000 1.0
C      1  0.4758060000000  0.4511200000000  0.4447960000000 1.0
C      1  0.4351130000000  0.4693800000000  0.5625710000000 1.0
C      1  0.5080420000000  0.4291010000000  0.5454170000000 1.0
C      1  0.5183620000000  0.5460780000000  0.4697230000000 1.0
C      1  0.5052040000000  0.4607970000000  0.4161640000000 1.0
C      1  0.4484510000000  0.5497030000000  0.4985910000000 1.0
C      1  0.5367930000000  0.5811560000000  0.4989330000000 1.0
C      1  0.4482850000000  0.5098430000000  0.5770960000000 1.0
C      1  0.5407780000000  0.5110690000000  0.4303460000000 1.0
C      1  0.5766810000000  0.5461820000000  0.4967240000000 1.0
C      1  0.4622810000000  0.5757790000000  0.4968830000000 1.0
C      1  0.4263330000000  0.5100510000000  0.4480650000000 1.0
C      1  0.4420730000000  0.4756650000000  0.5310330000000 1.0
C      1  0.5068620000000  0.4909200000000  0.4147570000000 1.0
C      1  0.5053510000000  0.5382780000000  0.5747430000000 1.0
C      1  0.4845850000000  0.5437660000000  0.4105240000000 1.0
C      1  0.4532870000000  0.4289550000000  0.4821110000000 1.0
C      1  0.4504690000000  0.5226830000000  0.4354810000000 1.0
C      1  0.4817030000000  0.4172380000000  0.5428190000000 1.0
C      1  0.4813510000000  0.4918810000000  0.4784370000000 1.0
C      1  0.4752000000000  0.5598160000000  0.4344960000000 1.0
C      1  0.5183450000000  0.4738730000000  0.4665250000000 1.0
C      1  0.5388830000000  0.5771160000000  0.5545280000000 1.0
C      1  0.4370520000000  0.5513180000000  0.5440120000000 1.0
C      1  0.5388050000000  0.4999800000000  0.5802660000000 1.0
C      1  0.5231910000000  0.5155430000000  0.5324700000000 1.0
C      1  0.5001060000000  0.5233490000000  0.5498680000000 1.0
C      1  0.4233070000000  0.4948680000000  0.5704020000000 1.0
C      1  0.4640370000000  0.5246060000000  0.5088290000000 1.0
C      1  0.5600220000000  0.5683150000000  0.4859710000000 1.0
C      1  0.4737270000000  0.4876590000000  0.5765290000000 1.0
C      1  0.4779380000000  0.4918970000000  0.4078970000000 1.0
C      1  0.5266470000000  0.4738280000000  0.5876770000000 1.0
C      1  0.5644160000000  0.5445380000000  0.5227890000000 1.0
C      1  0.4534070000000  0.4504510000000  0.5255560000000 1.0
C      1  0.5549800000000  0.5587820000000  0.4338500000000 1.0
C      1  0.4316080000000  0.5130720000000  0.4773380000000 1.0
C      1  0.4255120000000  0.5447690000000  0.5149670000000 1.0
C      1  0.4208920000000  0.4720050000000  0.5114740000000 1.0
C      1  0.4899580000000  0.4718100000000  0.5006400000000 1.0
C      1  0.5454590000000  0.4290730000000  0.5080870000000 1.0
C      1  0.5845580000000  0.4740070000000  0.4747900000000 1.0
C      1  0.4922300000000  0.5277850000000  0.5058570000000 1.0
C      1  0.5349680000000  0.4511360000000  0.5727350000000 1.0
C      1  0.4915880000000  0.4737180000000  0.4584900000000 1.0
C      1  0.5388500000000  0.4528750000000  0.5496360000000 1.0
C      1  0.5103360000000  0.5692020000000  0.4861770000000 1.0
C      1  0.5002920000000  0.4891580000000  0.5913350000000 1.0
C      1  0.5105370000000  0.5055970000000  0.5070090000000 1.0
C      1  0.4982630000000  0.4298240000000  0.4498940000000 1.0
C      1  0.4187420000000  0.4823480000000  0.4403660000000 1.0
C      1  0.4165040000000  0.5206720000000  0.5020680000000 1.0
C      1  0.5648700000000  0.4503850000000  0.5033610000000 1.0
C      1  0.5365450000000  0.4268940000000  0.5387640000000 1.0
C      1  0.5061100000000  0.5538420000000  0.5122620000000 1.0
C      1  0.4799570000000  0.5023490000000  0.5486400000000 1.0
C      1  0.5490150000000  0.5128630000000  0.4790100000000 1.0
C      1  0.5498910000000  0.5066860000000  0.5524670000000 1.0
C      1  0.5123410000000  0.5419590000000  0.4120210000000 1.0
C      1  0.4604330000000  0.4601600000000  0.5717080000000 1.0
C      1  0.4628600000000  0.4394790000000  0.5505030000000 1.0
C      1  0.4973330000000  0.5218290000000  0.4589850000000 1.0
C      1  0.4477550000000  0.4410650000000  0.4563900000000 1.0
C      1  0.4608870000000  0.5656050000000  0.5427630000000 1.0
C      1  0.5392610000000  0.5377750000000  0.4166670000000 1.0
C      1  0.4068530000000  0.4971290000000  0.5188570000000 1.0
C      1  0.4763070000000  0.4632990000000  0.4158170000000 1.0
C      1  0.5072860000000  0.4198940000000  0.4760480000000 1.0
C      1  0.4514310000000  0.4918120000000  0.4802430000000 1.0
C      1  0.5340530000000  0.4297320000000  0.4815810000000 1.0
C      1  0.5889360000000  0.4932820000000  0.4955370000000 1.0
C      1  0.5626610000000  0.4919260000000  0.4337150000000 1.0
C      1  0.5273440000000  0.5852110000000  0.5261660000000 1.0
C      1  0.5098060000000  0.4580660000000  0.5427260000000 1.0
C      1  0.5454830000000  0.5629580000000  0.4604820000000 1.0
C      1  0.5341120000000  0.5392590000000  0.5154290000000 1.0
C      1  0.4925090000000  0.4223370000000  0.5017410000000 1.0
C      1  0.4999410000000  0.5766420000000  0.5316750000000 1.0
C      1  0.4337670000000  0.4685980000000  0.4852070000000 1.0
C      1  0.4834520000000  0.5831890000000  0.4782420000000 1.0
C      1  0.4607060000000  0.5029770000000  0.5280710000000 1.0
C      1  0.4475290000000  0.5335220000000  0.5631550000000 1.0
C      1  0.4773010000000  0.4031070000000  0.5169040000000 1.0
C      1  0.5593280000000  0.4826350000000  0.5360110000000 1.0
C      1  0.5442670000000  0.4702850000000  0.5136500000000 1.0
C      1  0.4044020000000  0.5010160000000  0.5478660000000 1.0
C      1  0.5815540000000  0.4931840000000  0.4540610000000 1.0
C      1  0.4813930000000  0.5855580000000  0.4485960000000 1.0
C      1  0.5130110000000  0.5064040000000  0.4397790000000 1.0
C      1  0.5671380000000  0.4680190000000  0.4501830000000 1.0
C      1  0.5153190000000  0.5141300000000  0.5909020000000 1.0
C      1  0.5915970000000  0.4534630000000  0.5194780000000 1.0
C      1  0.5145400000000  0.4661630000000  0.5152550000000 1.0
END
