TITL C-884133-6611-74 10.7835902103726 125000 -25906.9312607441 0 0 172 (C1) n - 1
REM
REM in /home/nfs/bkarasulu/CARBON/AIRSS/Generating-Clusters/ReaxFF-fromJPCA2015/Units_Real/with-SteepDescent/Only-C1/SD-CG/Try1-3A/FIRE-CG
REM
REM
REM
REM
REM
REM ./C.cell (11c1c37f851c82e70ff6c80c92926a4b)
REM
REM compiler GCC version 9.2.1 20190827 (Red Hat 9.2.1-1)
REM options -cpp -mtune=generic -march=x86-64 -g -O0 -fpre-include=/usr/include/finclude/math-vector-fortran.h
REM seed -320140883 1559359595 -610175365 428066409 -998791640 -490240342 1453631595 -1929974189 845508116 -553374889 -727671541 -315771506 -1874153550 1286041393 1759906307 -740253254 -254016084 -6524161 -1628947176 201902704 326339802 558909580 697026454 1430580669 1302083844 -1517794528 -349575391 677829855 -1969363789 1148704605 -452852374 242364519 2125343597
REM
CELL 1.54180   50.00000   50.00000   50.00000   90.00000   90.00000   90.00000
LATT -1
SFAC C  
C      1  0.5155950000000  0.4279230000000  0.4321590000000 1.0
C      1  0.6002300000000  0.5146600000000  0.5469630000000 1.0
C      1  0.5560220000000  0.5698260000000  0.5609330000000 1.0
C      1  0.5470440000000  0.5042400000000  0.5949420000000 1.0
C      1  0.5972660000000  0.5291880000000  0.5232590000000 1.0
C      1  0.4095950000000  0.5118020000000  0.5875180000000 1.0
C      1  0.4920550000000  0.5950820000000  0.5455350000000 1.0
C      1  0.4277180000000  0.4764530000000  0.5406320000000 1.0
C      1  0.6074270000000  0.4685090000000  0.4915440000000 1.0
C      1  0.5787210000000  0.5151850000000  0.4795790000000 1.0
C      1  0.5396510000000  0.5602600000000  0.5402000000000 1.0
C      1  0.4457890000000  0.5213350000000  0.5570220000000 1.0
C      1  0.5426500000000  0.5490140000000  0.4924370000000 1.0
C      1  0.5790490000000  0.4266730000000  0.4977170000000 1.0
C      1  0.4439490000000  0.5274960000000  0.5076930000000 1.0
C      1  0.4467560000000  0.6197640000000  0.4862740000000 1.0
C      1  0.5715070000000  0.5118260000000  0.4132780000000 1.0
C      1  0.5079910000000  0.5792570000000  0.5242660000000 1.0
C      1  0.5294670000000  0.4916390000000  0.4168670000000 1.0
C      1  0.5034520000000  0.4521300000000  0.4179460000000 1.0
C      1  0.4766600000000  0.5627840000000  0.4837180000000 1.0
C      1  0.5505400000000  0.5664760000000  0.5134520000000 1.0
C      1  0.4255180000000  0.5614620000000  0.5612130000000 1.0
C      1  0.4269810000000  0.4619820000000  0.4330160000000 1.0
C      1  0.5195230000000  0.5868330000000  0.4428290000000 1.0
C      1  0.5015280000000  0.5274410000000  0.5547100000000 1.0
C      1  0.5651230000000  0.5859490000000  0.4576650000000 1.0
C      1  0.5320160000000  0.5423990000000  0.4211220000000 1.0
C      1  0.4862790000000  0.5386410000000  0.6035560000000 1.0
C      1  0.4631320000000  0.4459870000000  0.4194550000000 1.0
C      1  0.5006070000000  0.5273180000000  0.5034580000000 1.0
C      1  0.4717850000000  0.4817500000000  0.5263790000000 1.0
C      1  0.4900740000000  0.5685650000000  0.4128720000000 1.0
C      1  0.4373020000000  0.4367880000000  0.5628270000000 1.0
C      1  0.5672340000000  0.4645840000000  0.4228390000000 1.0
C      1  0.4515140000000  0.4999680000000  0.5045410000000 1.0
C      1  0.5171160000000  0.4894260000000  0.5409330000000 1.0
C      1  0.4767420000000  0.4840520000000  0.5597660000000 1.0
C      1  0.5188770000000  0.5677650000000  0.5865320000000 1.0
C      1  0.4294960000000  0.4239460000000  0.5367620000000 1.0
C      1  0.5426630000000  0.4807550000000  0.4741480000000 1.0
C      1  0.5076620000000  0.4523890000000  0.4793430000000 1.0
C      1  0.5456200000000  0.5605860000000  0.5873630000000 1.0
C      1  0.5127540000000  0.5329790000000  0.6075340000000 1.0
C      1  0.4692820000000  0.5130190000000  0.6013980000000 1.0
C      1  0.4610080000000  0.5130390000000  0.4661450000000 1.0
C      1  0.4715820000000  0.5982030000000  0.4506340000000 1.0
C      1  0.4681940000000  0.4941690000000  0.3900480000000 1.0
C      1  0.4967030000000  0.4139260000000  0.4497040000000 1.0
C      1  0.4681950000000  0.3885120000000  0.4766690000000 1.0
C      1  0.5651790000000  0.4380470000000  0.4361300000000 1.0
C      1  0.5369740000000  0.5989560000000  0.4622640000000 1.0
C      1  0.4195270000000  0.4734700000000  0.4605040000000 1.0
C      1  0.5152650000000  0.4742950000000  0.4020650000000 1.0
C      1  0.4754690000000  0.4192500000000  0.5383260000000 1.0
C      1  0.5325680000000  0.5901220000000  0.5110290000000 1.0
C      1  0.4391870000000  0.4355940000000  0.4299200000000 1.0
C      1  0.4666550000000  0.4336090000000  0.5638030000000 1.0
C      1  0.4529000000000  0.5646840000000  0.5518530000000 1.0
C      1  0.4013100000000  0.5377660000000  0.4797380000000 1.0
C      1  0.4711360000000  0.4687810000000  0.4629390000000 1.0
C      1  0.4189860000000  0.4253330000000  0.4701720000000 1.0
C      1  0.4104760000000  0.5034820000000  0.4238430000000 1.0
C      1  0.3974170000000  0.4453790000000  0.5016300000000 1.0
C      1  0.4584870000000  0.5380900000000  0.5343120000000 1.0
C      1  0.4245790000000  0.4635750000000  0.5664640000000 1.0
C      1  0.4933250000000  0.5429920000000  0.4488590000000 1.0
C      1  0.4280220000000  0.5444470000000  0.4892740000000 1.0
C      1  0.6064390000000  0.4694060000000  0.5228880000000 1.0
C      1  0.5220580000000  0.5559350000000  0.4474440000000 1.0
C      1  0.6001940000000  0.5597890000000  0.5283350000000 1.0
C      1  0.5935650000000  0.4444120000000  0.4808180000000 1.0
C      1  0.5492640000000  0.5095220000000  0.5132800000000 1.0
C      1  0.4911080000000  0.5639190000000  0.5867490000000 1.0
C      1  0.5414970000000  0.4227230000000  0.4442200000000 1.0
C      1  0.5018970000000  0.5003470000000  0.5669900000000 1.0
C      1  0.5187950000000  0.4929360000000  0.4637950000000 1.0
C      1  0.3838450000000  0.5215650000000  0.4945280000000 1.0
C      1  0.5601990000000  0.4057610000000  0.4912400000000 1.0
C      1  0.4502070000000  0.4639280000000  0.5252280000000 1.0
C      1  0.4337520000000  0.5716450000000  0.4786600000000 1.0
C      1  0.5160730000000  0.4487830000000  0.5561510000000 1.0
C      1  0.5748970000000  0.5018720000000  0.5569610000000 1.0
C      1  0.4512460000000  0.5330990000000  0.4256350000000 1.0
C      1  0.4653380000000  0.5108790000000  0.4382280000000 1.0
C      1  0.4969540000000  0.4760700000000  0.4722400000000 1.0
C      1  0.4960470000000  0.4951910000000  0.3893160000000 1.0
C      1  0.4228990000000  0.5326140000000  0.5697050000000 1.0
C      1  0.4002450000000  0.5422990000000  0.5346710000000 1.0
C      1  0.5927750000000  0.5344820000000  0.4627040000000 1.0
C      1  0.5859690000000  0.4467770000000  0.4543350000000 1.0
C      1  0.5378590000000  0.4470700000000  0.5126590000000 1.0
C      1  0.5286260000000  0.5351890000000  0.5492400000000 1.0
C      1  0.5822510000000  0.4601900000000  0.5405950000000 1.0
C      1  0.4403690000000  0.4976780000000  0.3942290000000 1.0
C      1  0.4296880000000  0.5211940000000  0.4097370000000 1.0
C      1  0.5200230000000  0.5074070000000  0.4386270000000 1.0
C      1  0.4753570000000  0.5775120000000  0.5644620000000 1.0
C      1  0.5348990000000  0.5110870000000  0.5379050000000 1.0
C      1  0.5270790000000  0.4259310000000  0.5733630000000 1.0
C      1  0.5760700000000  0.5197180000000  0.5075910000000 1.0
C      1  0.3922470000000  0.5190800000000  0.5226260000000 1.0
C      1  0.5609480000000  0.4811560000000  0.5399570000000 1.0
C      1  0.4536700000000  0.4343710000000  0.5235570000000 1.0
C      1  0.4794850000000  0.4627060000000  0.4314920000000 1.0
C      1  0.4262810000000  0.5972610000000  0.4928000000000 1.0
C      1  0.4642420000000  0.4415500000000  0.4704380000000 1.0
C      1  0.5218430000000  0.4906450000000  0.5914360000000 1.0
C      1  0.4587380000000  0.5029030000000  0.5749510000000 1.0
C      1  0.4985610000000  0.4748760000000  0.5220740000000 1.0
C      1  0.4944720000000  0.5182120000000  0.4310960000000 1.0
C      1  0.5543380000000  0.4864290000000  0.4083070000000 1.0
C      1  0.6106690000000  0.5118470000000  0.4530060000000 1.0
C      1  0.5771400000000  0.4631710000000  0.5734710000000 1.0
C      1  0.5940600000000  0.5100370000000  0.4297560000000 1.0
C      1  0.5472030000000  0.3977330000000  0.5166130000000 1.0
C      1  0.5349380000000  0.4546460000000  0.4853900000000 1.0
C      1  0.5179660000000  0.3945560000000  0.5110030000000 1.0
C      1  0.4072030000000  0.5697940000000  0.5382510000000 1.0
C      1  0.5785170000000  0.5700990000000  0.5441640000000 1.0
C      1  0.4724500000000  0.5533160000000  0.4300420000000 1.0
C      1  0.5854980000000  0.5988450000000  0.4632150000000 1.0
C      1  0.5369560000000  0.4410670000000  0.5964690000000 1.0
C      1  0.4144420000000  0.4829970000000  0.5871070000000 1.0
C      1  0.4481850000000  0.4889770000000  0.4765840000000 1.0
C      1  0.4938590000000  0.3882300000000  0.4646070000000 1.0
C      1  0.4959660000000  0.5232620000000  0.3988090000000 1.0
C      1  0.4833770000000  0.5339670000000  0.4789880000000 1.0
C      1  0.3906580000000  0.5147560000000  0.4681470000000 1.0
C      1  0.4168170000000  0.5851190000000  0.5155770000000 1.0
C      1  0.5597940000000  0.4115370000000  0.5386570000000 1.0
C      1  0.4888220000000  0.5812240000000  0.5017680000000 1.0
C      1  0.4947210000000  0.6104950000000  0.4950220000000 1.0
C      1  0.4217270000000  0.4800350000000  0.4108120000000 1.0
C      1  0.4447620000000  0.3944530000000  0.4853320000000 1.0
C      1  0.5658780000000  0.4372950000000  0.5231850000000 1.0
C      1  0.4079570000000  0.4501560000000  0.4746680000000 1.0
C      1  0.4721470000000  0.6171210000000  0.4734840000000 1.0
C      1  0.4904700000000  0.4625430000000  0.6012670000000 1.0
C      1  0.5692310000000  0.4899990000000  0.4665060000000 1.0
C      1  0.5099440000000  0.5482060000000  0.4020030000000 1.0
C      1  0.5361490000000  0.4710880000000  0.5521290000000 1.0
C      1  0.4045390000000  0.4967890000000  0.4518170000000 1.0
C      1  0.5714850000000  0.4902540000000  0.5834760000000 1.0
C      1  0.6125870000000  0.4941880000000  0.5328080000000 1.0
C      1  0.4588070000000  0.5751780000000  0.4637300000000 1.0
C      1  0.4198940000000  0.4068550000000  0.4919020000000 1.0
C      1  0.5415110000000  0.4051730000000  0.4685040000000 1.0
C      1  0.4796470000000  0.4879100000000  0.6071870000000 1.0
C      1  0.3959360000000  0.4698080000000  0.5152680000000 1.0
C      1  0.4021140000000  0.4896690000000  0.5304400000000 1.0
C      1  0.5292120000000  0.5261090000000  0.4991370000000 1.0
C      1  0.5645980000000  0.4396390000000  0.5847490000000 1.0
C      1  0.4102500000000  0.4217320000000  0.5151740000000 1.0
C      1  0.4873850000000  0.6160780000000  0.5265970000000 1.0
C      1  0.4934740000000  0.5916780000000  0.4315080000000 1.0
C      1  0.4971940000000  0.4066670000000  0.5256950000000 1.0
C      1  0.5710580000000  0.5507730000000  0.4491600000000 1.0
C      1  0.5457550000000  0.5513130000000  0.4655860000000 1.0
C      1  0.5827940000000  0.4735030000000  0.4460970000000 1.0
C      1  0.5251950000000  0.6052400000000  0.4880530000000 1.0
C      1  0.5400820000000  0.5331530000000  0.6005530000000 1.0
C      1  0.5181680000000  0.3926070000000  0.4805000000000 1.0
C      1  0.5123020000000  0.4497520000000  0.5256830000000 1.0
C      1  0.5200120000000  0.4644460000000  0.6037010000000 1.0
C      1  0.4854710000000  0.4554070000000  0.5712570000000 1.0
C      1  0.4881280000000  0.5310970000000  0.5292640000000 1.0
C      1  0.5539350000000  0.4166630000000  0.5665640000000 1.0
C      1  0.4905410000000  0.4313970000000  0.4728960000000 1.0
C      1  0.4438370000000  0.4249280000000  0.4575640000000 1.0
C      1  0.6126140000000  0.4901680000000  0.4739010000000 1.0
C      1  0.5605560000000  0.5373070000000  0.4234130000000 1.0
END
