TITL C-884131-4643-421 -9.42991313742443 125000 -24347.2406884798 0 0 164 (C1) n - 1
REM
REM in /home/nfs/bkarasulu/CARBON/AIRSS/Generating-Clusters/ReaxFF-fromJPCA2015/Units_Real/with-SteepDescent/Only-C1/SD-CG/Try1-3A/FIRE-CG
REM
REM
REM
REM
REM
REM ./C.cell (11c1c37f851c82e70ff6c80c92926a4b)
REM
REM compiler GCC version 9.2.1 20190827 (Red Hat 9.2.1-1)
REM options -cpp -mtune=generic -march=x86-64 -g -O0 -fpre-include=/usr/include/finclude/math-vector-fortran.h
REM seed 581270372 -1341338968 1851085318 -36548951 -987736238 741419334 1908716372 1076264196 1014702440 1809503212 -735462386 -1666000860 -149353074 1473620194 -1281695232 -1387299673 -969730186 -1971122252 1008495049 -99371063 1648094378 1694832928 -1590281774 1418961414 -1557061539 1687699685 99164947 130715885 -1761305785 1162384977 153829107 -1327664128 1973398006
REM
CELL 1.54180   50.00000   50.00000   50.00000   90.00000   90.00000   90.00000
LATT -1
SFAC C  
C      1  0.5343370000000  0.5999480000000  0.5119560000000 1.0
C      1  0.5625720000000  0.5177060000000  0.5518290000000 1.0
C      1  0.5215260000000  0.5379420000000  0.4928500000000 1.0
C      1  0.5380760000000  0.4517430000000  0.4610710000000 1.0
C      1  0.5744180000000  0.5493300000000  0.4442230000000 1.0
C      1  0.5546670000000  0.4282160000000  0.4509120000000 1.0
C      1  0.5554060000000  0.5126860000000  0.5795790000000 1.0
C      1  0.4764340000000  0.4572730000000  0.5595670000000 1.0
C      1  0.4790830000000  0.4192790000000  0.4896350000000 1.0
C      1  0.5551610000000  0.4191160000000  0.5477190000000 1.0
C      1  0.4657200000000  0.5888620000000  0.4850260000000 1.0
C      1  0.4511120000000  0.4740590000000  0.5627220000000 1.0
C      1  0.5783460000000  0.5759560000000  0.4602200000000 1.0
C      1  0.4538910000000  0.4823160000000  0.4084040000000 1.0
C      1  0.5526610000000  0.5162490000000  0.4116330000000 1.0
C      1  0.5570680000000  0.4433710000000  0.4269740000000 1.0
C      1  0.4570960000000  0.5122750000000  0.6044150000000 1.0
C      1  0.4518950000000  0.4334460000000  0.4193940000000 1.0
C      1  0.5939320000000  0.5361570000000  0.4636810000000 1.0
C      1  0.5175830000000  0.4606080000000  0.6038020000000 1.0
C      1  0.4781830000000  0.4949370000000  0.5095610000000 1.0
C      1  0.5526880000000  0.5763800000000  0.5107680000000 1.0
C      1  0.5103680000000  0.5362220000000  0.5923670000000 1.0
C      1  0.5853180000000  0.5394260000000  0.5247460000000 1.0
C      1  0.5220590000000  0.4965970000000  0.4468820000000 1.0
C      1  0.4357960000000  0.4088950000000  0.5135200000000 1.0
C      1  0.5190780000000  0.4280670000000  0.5796720000000 1.0
C      1  0.5392930000000  0.5374410000000  0.5842940000000 1.0
C      1  0.4348460000000  0.5621820000000  0.4520270000000 1.0
C      1  0.4495240000000  0.4934870000000  0.4649630000000 1.0
C      1  0.5100980000000  0.5408500000000  0.4025810000000 1.0
C      1  0.4810500000000  0.4263190000000  0.4219300000000 1.0
C      1  0.5412580000000  0.5097080000000  0.5284630000000 1.0
C      1  0.5008930000000  0.4958270000000  0.4660640000000 1.0
C      1  0.3952060000000  0.4965010000000  0.5139140000000 1.0
C      1  0.5474760000000  0.5653190000000  0.4176510000000 1.0
C      1  0.4797510000000  0.5423690000000  0.5370280000000 1.0
C      1  0.4889270000000  0.5958330000000  0.5463460000000 1.0
C      1  0.4303050000000  0.4384600000000  0.4387320000000 1.0
C      1  0.4039080000000  0.4824270000000  0.4919140000000 1.0
C      1  0.4534100000000  0.5015730000000  0.5217070000000 1.0
C      1  0.4782010000000  0.5714780000000  0.4134680000000 1.0
C      1  0.4161200000000  0.4660010000000  0.4729680000000 1.0
C      1  0.5977200000000  0.4959760000000  0.4930700000000 1.0
C      1  0.4562590000000  0.5227160000000  0.3988870000000 1.0
C      1  0.5348710000000  0.4131860000000  0.5271320000000 1.0
C      1  0.5299480000000  0.5607280000000  0.5066750000000 1.0
C      1  0.5183170000000  0.5962650000000  0.5374580000000 1.0
C      1  0.5491940000000  0.4717520000000  0.4790210000000 1.0
C      1  0.4782690000000  0.5797070000000  0.5703790000000 1.0
C      1  0.6000640000000  0.4603590000000  0.5249340000000 1.0
C      1  0.4963590000000  0.5483810000000  0.4488010000000 1.0
C      1  0.4582900000000  0.3953630000000  0.4499830000000 1.0
C      1  0.4927360000000  0.4592910000000  0.4496940000000 1.0
C      1  0.4879460000000  0.4643970000000  0.6035800000000 1.0
C      1  0.4873740000000  0.5123020000000  0.4849650000000 1.0
C      1  0.5234840000000  0.5719630000000  0.5531420000000 1.0
C      1  0.5273280000000  0.5183850000000  0.3966170000000 1.0
C      1  0.4717720000000  0.4453290000000  0.5889090000000 1.0
C      1  0.4218290000000  0.5675050000000  0.4999280000000 1.0
C      1  0.4735630000000  0.4998530000000  0.3964000000000 1.0
C      1  0.5379170000000  0.4761440000000  0.5274840000000 1.0
C      1  0.4308610000000  0.4890930000000  0.4247440000000 1.0
C      1  0.4625820000000  0.5908040000000  0.5330420000000 1.0
C      1  0.4168040000000  0.5555020000000  0.4739090000000 1.0
C      1  0.4800910000000  0.4684700000000  0.5015820000000 1.0
C      1  0.4519700000000  0.5757400000000  0.5076260000000 1.0
C      1  0.4102000000000  0.5260400000000  0.4771930000000 1.0
C      1  0.4811320000000  0.4158360000000  0.5210650000000 1.0
C      1  0.4682480000000  0.5450430000000  0.5095520000000 1.0
C      1  0.4645190000000  0.4630740000000  0.4559840000000 1.0
C      1  0.5942320000000  0.5073890000000  0.4659270000000 1.0
C      1  0.5071750000000  0.4946110000000  0.3968520000000 1.0
C      1  0.5793400000000  0.5619330000000  0.5074530000000 1.0
C      1  0.5498500000000  0.5010840000000  0.4768260000000 1.0
C      1  0.4541810000000  0.4996990000000  0.5495360000000 1.0
C      1  0.5074500000000  0.4108570000000  0.5366770000000 1.0
C      1  0.5004050000000  0.4503330000000  0.4229450000000 1.0
C      1  0.5328060000000  0.4661150000000  0.5013320000000 1.0
C      1  0.5031300000000  0.4696340000000  0.5611720000000 1.0
C      1  0.5647860000000  0.4908190000000  0.4197660000000 1.0
C      1  0.5967400000000  0.4877960000000  0.5376240000000 1.0
C      1  0.5447980000000  0.4330310000000  0.5735520000000 1.0
C      1  0.5140670000000  0.5173560000000  0.5386980000000 1.0
C      1  0.5436850000000  0.4596630000000  0.5881500000000 1.0
C      1  0.4913730000000  0.5388230000000  0.4913290000000 1.0
C      1  0.4039040000000  0.5492690000000  0.5144820000000 1.0
C      1  0.4575570000000  0.5795140000000  0.4587200000000 1.0
C      1  0.5274120000000  0.5824340000000  0.4273310000000 1.0
C      1  0.4722900000000  0.4190750000000  0.5769180000000 1.0
C      1  0.4813660000000  0.5734440000000  0.4424760000000 1.0
C      1  0.5043930000000  0.5705430000000  0.5105600000000 1.0
C      1  0.5854470000000  0.4662230000000  0.4571850000000 1.0
C      1  0.5706150000000  0.5451720000000  0.5497810000000 1.0
C      1  0.4695290000000  0.5239880000000  0.5584300000000 1.0
C      1  0.4333650000000  0.5552820000000  0.5549920000000 1.0
C      1  0.5412410000000  0.5165100000000  0.4995570000000 1.0
C      1  0.4155550000000  0.4998030000000  0.5662920000000 1.0
C      1  0.4747810000000  0.5045990000000  0.4591640000000 1.0
C      1  0.5207980000000  0.5478290000000  0.4646800000000 1.0
C      1  0.5798310000000  0.4279680000000  0.5378800000000 1.0
C      1  0.5762350000000  0.4476810000000  0.5259980000000 1.0
C      1  0.5014260000000  0.5005700000000  0.4259220000000 1.0
C      1  0.5947200000000  0.5099320000000  0.5189860000000 1.0
C      1  0.5989320000000  0.4666130000000  0.4965050000000 1.0
C      1  0.4216780000000  0.4661380000000  0.4436650000000 1.0
C      1  0.5465860000000  0.5567000000000  0.5642120000000 1.0
C      1  0.4609970000000  0.4602680000000  0.4255630000000 1.0
C      1  0.4963090000000  0.5299650000000  0.4260420000000 1.0
C      1  0.5301230000000  0.5971090000000  0.4566290000000 1.0
C      1  0.4990770000000  0.4139690000000  0.4726370000000 1.0
C      1  0.4378290000000  0.4176860000000  0.4608270000000 1.0
C      1  0.5858520000000  0.4473890000000  0.4779050000000 1.0
C      1  0.5658460000000  0.5439640000000  0.4151100000000 1.0
C      1  0.4562840000000  0.4555670000000  0.5106330000000 1.0
C      1  0.5018010000000  0.5587630000000  0.5363040000000 1.0
C      1  0.5772870000000  0.4776410000000  0.5580250000000 1.0
C      1  0.4868790000000  0.5587770000000  0.5904730000000 1.0
C      1  0.4705940000000  0.5393740000000  0.6057960000000 1.0
C      1  0.5482760000000  0.4668960000000  0.4129980000000 1.0
C      1  0.5111000000000  0.4920470000000  0.5760120000000 1.0
C      1  0.3944760000000  0.5226500000000  0.5015800000000 1.0
C      1  0.5912900000000  0.5597950000000  0.4811360000000 1.0
C      1  0.5534270000000  0.5890230000000  0.4619120000000 1.0
C      1  0.4352910000000  0.5118760000000  0.4820830000000 1.0
C      1  0.5203010000000  0.6020620000000  0.4847920000000 1.0
C      1  0.5000880000000  0.4954550000000  0.5274770000000 1.0
C      1  0.5025390000000  0.5117440000000  0.6111730000000 1.0
C      1  0.5454710000000  0.5112520000000  0.4507300000000 1.0
C      1  0.5653640000000  0.4246370000000  0.4783010000000 1.0
C      1  0.4795670000000  0.4938720000000  0.6087440000000 1.0
C      1  0.5849110000000  0.4891580000000  0.4424240000000 1.0
C      1  0.5072060000000  0.5707060000000  0.4082710000000 1.0
C      1  0.4336990000000  0.5173400000000  0.4183720000000 1.0
C      1  0.4706500000000  0.4418090000000  0.5308790000000 1.0
C      1  0.5193270000000  0.4095860000000  0.4887740000000 1.0
C      1  0.4581850000000  0.4362000000000  0.4747620000000 1.0
C      1  0.4515750000000  0.5792600000000  0.5571000000000 1.0
C      1  0.4447500000000  0.5248460000000  0.5105710000000 1.0
C      1  0.5443020000000  0.5390560000000  0.4501900000000 1.0
C      1  0.4568560000000  0.5513770000000  0.4079910000000 1.0
C      1  0.4019960000000  0.4877420000000  0.5444130000000 1.0
C      1  0.5182160000000  0.4682810000000  0.4076980000000 1.0
C      1  0.4350240000000  0.4455580000000  0.4907360000000 1.0
C      1  0.4253590000000  0.4167520000000  0.4902030000000 1.0
C      1  0.5060140000000  0.4577850000000  0.4967240000000 1.0
C      1  0.4356680000000  0.5461460000000  0.4273530000000 1.0
C      1  0.4481090000000  0.4210800000000  0.5613470000000 1.0
C      1  0.4345410000000  0.4496720000000  0.5602790000000 1.0
C      1  0.5028920000000  0.5183610000000  0.5660830000000 1.0
C      1  0.4835870000000  0.4067420000000  0.4440250000000 1.0
C      1  0.5603460000000  0.4835060000000  0.5811870000000 1.0
C      1  0.5107180000000  0.4702850000000  0.5342860000000 1.0
C      1  0.4132520000000  0.4624750000000  0.5496170000000 1.0
C      1  0.4255150000000  0.5402240000000  0.5313210000000 1.0
C      1  0.5088110000000  0.4454460000000  0.4697340000000 1.0
C      1  0.5001970000000  0.4132290000000  0.5651520000000 1.0
C      1  0.5442710000000  0.4132900000000  0.4967390000000 1.0
C      1  0.4450950000000  0.5357770000000  0.5726480000000 1.0
C      1  0.5593520000000  0.4638290000000  0.5400380000000 1.0
C      1  0.4939600000000  0.5922120000000  0.4930470000000 1.0
C      1  0.5208470000000  0.4902630000000  0.6033870000000 1.0
C      1  0.4315470000000  0.5134830000000  0.5852670000000 1.0
C      1  0.4510880000000  0.4062710000000  0.5359940000000 1.0
END
