TITL C-883741-3679-478 -9.11378344928336 125000 -24697.4806122112 0 0 165 (C1) n - 1
REM
REM in /home/nfs/bkarasulu/CARBON/AIRSS/Generating-Clusters/ReaxFF-fromJPCA2015/Units_Real/with-SteepDescent/Only-C1/SD-CG/Try1-3A/FIRE-CG
REM
REM
REM
REM
REM
REM ./C.cell (11c1c37f851c82e70ff6c80c92926a4b)
REM
REM compiler GCC version 9.2.1 20190827 (Red Hat 9.2.1-1)
REM options -cpp -mtune=generic -march=x86-64 -g -O0 -fpre-include=/usr/include/finclude/math-vector-fortran.h
REM seed -1288500334 -768298794 218130858 -604575638 823827742 -1711850626 705890691 954219347 2126827465 2044670139 -173493344 -1775889663 1333738589 -1268058680 194397427 800915566 1770058065 118433543 363290219 -372821165 400804843 -1726192941 848243422 2136812891 -1892951989 -1422147100 1734041799 1936353160 -608728256 -1233490588 1515309819 -1423535717 -2100971962
REM
CELL 1.54180   50.00000   50.00000   50.00000   90.00000   90.00000   90.00000
LATT -1
SFAC C  
C      1  0.5885150000000  0.4535660000000  0.4455650000000 1.0
C      1  0.5514490000000  0.5504280000000  0.4813230000000 1.0
C      1  0.4538900000000  0.5041860000000  0.4548990000000 1.0
C      1  0.5253950000000  0.4441710000000  0.5120070000000 1.0
C      1  0.5256880000000  0.5912010000000  0.4962670000000 1.0
C      1  0.4528500000000  0.4609500000000  0.5052950000000 1.0
C      1  0.4317400000000  0.4295170000000  0.4593200000000 1.0
C      1  0.5313080000000  0.5178980000000  0.5145070000000 1.0
C      1  0.4157530000000  0.4537390000000  0.5616490000000 1.0
C      1  0.5452300000000  0.5878640000000  0.5382860000000 1.0
C      1  0.4244020000000  0.4312400000000  0.5132720000000 1.0
C      1  0.5509100000000  0.4779130000000  0.4654520000000 1.0
C      1  0.4599850000000  0.4993590000000  0.3998300000000 1.0
C      1  0.5356820000000  0.4149690000000  0.4991720000000 1.0
C      1  0.5486920000000  0.5525880000000  0.4210060000000 1.0
C      1  0.5388460000000  0.5257280000000  0.4104030000000 1.0
C      1  0.4942910000000  0.4639140000000  0.6007190000000 1.0
C      1  0.5569650000000  0.4500760000000  0.5735970000000 1.0
C      1  0.4598240000000  0.5037840000000  0.5933140000000 1.0
C      1  0.4116220000000  0.4413190000000  0.4926080000000 1.0
C      1  0.6065200000000  0.5401970000000  0.5298940000000 1.0
C      1  0.4977920000000  0.5469670000000  0.5361300000000 1.0
C      1  0.4736370000000  0.4014170000000  0.5028190000000 1.0
C      1  0.5112670000000  0.5122880000000  0.5915830000000 1.0
C      1  0.4339480000000  0.5667750000000  0.5610330000000 1.0
C      1  0.5081360000000  0.4915480000000  0.5422060000000 1.0
C      1  0.5086730000000  0.5160010000000  0.4594440000000 1.0
C      1  0.5340890000000  0.5994900000000  0.4762820000000 1.0
C      1  0.4761710000000  0.5559530000000  0.4903580000000 1.0
C      1  0.5637660000000  0.5552530000000  0.5769070000000 1.0
C      1  0.4365160000000  0.5035850000000  0.5281690000000 1.0
C      1  0.5140990000000  0.4839630000000  0.6078670000000 1.0
C      1  0.5002990000000  0.5083120000000  0.4913750000000 1.0
C      1  0.4365140000000  0.4367350000000  0.5727700000000 1.0
C      1  0.5169460000000  0.4595980000000  0.4044400000000 1.0
C      1  0.4496110000000  0.4471460000000  0.4247040000000 1.0
C      1  0.5614620000000  0.5716150000000  0.4613440000000 1.0
C      1  0.5428980000000  0.5913080000000  0.4510050000000 1.0
C      1  0.5247980000000  0.5357860000000  0.5359040000000 1.0
C      1  0.5110130000000  0.3960860000000  0.5420140000000 1.0
C      1  0.5327150000000  0.4340650000000  0.5765850000000 1.0
C      1  0.4613870000000  0.4493280000000  0.5312200000000 1.0
C      1  0.4794740000000  0.5245690000000  0.5850150000000 1.0
C      1  0.4755990000000  0.4904730000000  0.4544110000000 1.0
C      1  0.5255800000000  0.4214090000000  0.5511800000000 1.0
C      1  0.4860690000000  0.5536500000000  0.5931110000000 1.0
C      1  0.4642690000000  0.5295160000000  0.4447880000000 1.0
C      1  0.4714330000000  0.5297380000000  0.5531250000000 1.0
C      1  0.5057020000000  0.4380120000000  0.5898670000000 1.0
C      1  0.4611980000000  0.5029330000000  0.5428730000000 1.0
C      1  0.5090270000000  0.4472850000000  0.4566970000000 1.0
C      1  0.3903140000000  0.4949390000000  0.5267630000000 1.0
C      1  0.4713230000000  0.5059480000000  0.4951730000000 1.0
C      1  0.5973030000000  0.4822500000000  0.4990850000000 1.0
C      1  0.5053220000000  0.4847550000000  0.3939840000000 1.0
C      1  0.4686060000000  0.6046380000000  0.4900380000000 1.0
C      1  0.4312740000000  0.5759700000000  0.5003490000000 1.0
C      1  0.4123950000000  0.4446760000000  0.4665520000000 1.0
C      1  0.4873770000000  0.4559030000000  0.5409310000000 1.0
C      1  0.5127480000000  0.5011420000000  0.5147640000000 1.0
C      1  0.5819680000000  0.4291720000000  0.4847770000000 1.0
C      1  0.5721680000000  0.5557940000000  0.4388890000000 1.0
C      1  0.4350260000000  0.5734270000000  0.4716430000000 1.0
C      1  0.3989820000000  0.5322940000000  0.4995640000000 1.0
C      1  0.5000680000000  0.5542950000000  0.5056750000000 1.0
C      1  0.5646020000000  0.5109660000000  0.4115440000000 1.0
C      1  0.4718850000000  0.4503690000000  0.4061740000000 1.0
C      1  0.5233820000000  0.4683460000000  0.4697470000000 1.0
C      1  0.4231960000000  0.5220550000000  0.4262760000000 1.0
C      1  0.4515750000000  0.5640730000000  0.4033690000000 1.0
C      1  0.4455230000000  0.5433080000000  0.5509840000000 1.0
C      1  0.4141040000000  0.4824890000000  0.5259210000000 1.0
C      1  0.5536470000000  0.4210660000000  0.4408940000000 1.0
C      1  0.5520130000000  0.4959430000000  0.5191510000000 1.0
C      1  0.5874310000000  0.4810590000000  0.5505420000000 1.0
C      1  0.4758150000000  0.4769570000000  0.3942320000000 1.0
C      1  0.4549930000000  0.5886160000000  0.5647090000000 1.0
C      1  0.6056070000000  0.4895520000000  0.5278680000000 1.0
C      1  0.5605520000000  0.5251560000000  0.5717190000000 1.0
C      1  0.5523140000000  0.5362480000000  0.5430260000000 1.0
C      1  0.5979340000000  0.4792270000000  0.4448610000000 1.0
C      1  0.4911600000000  0.5364910000000  0.4464380000000 1.0
C      1  0.4439330000000  0.4582910000000  0.5927930000000 1.0
C      1  0.4283040000000  0.4933310000000  0.4733070000000 1.0
C      1  0.5756120000000  0.4965620000000  0.5712590000000 1.0
C      1  0.4691690000000  0.5950230000000  0.5392310000000 1.0
C      1  0.4362510000000  0.4972730000000  0.4165870000000 1.0
C      1  0.5250420000000  0.5634630000000  0.4938740000000 1.0
C      1  0.5800550000000  0.4281860000000  0.4541750000000 1.0
C      1  0.4118400000000  0.5234850000000  0.5790670000000 1.0
C      1  0.4409540000000  0.5463520000000  0.4287550000000 1.0
C      1  0.5463770000000  0.4853090000000  0.4385200000000 1.0
C      1  0.5300680000000  0.5729400000000  0.4300140000000 1.0
C      1  0.4187150000000  0.4697250000000  0.4548440000000 1.0
C      1  0.6110310000000  0.5162020000000  0.5309210000000 1.0
C      1  0.4222900000000  0.4749190000000  0.5830720000000 1.0
C      1  0.5999950000000  0.5419710000000  0.4777670000000 1.0
C      1  0.4706360000000  0.5736260000000  0.5821430000000 1.0
C      1  0.5895410000000  0.4512510000000  0.5023650000000 1.0
C      1  0.5856340000000  0.5563620000000  0.5231980000000 1.0
C      1  0.5103370000000  0.4611330000000  0.4946140000000 1.0
C      1  0.5371850000000  0.5266970000000  0.5902370000000 1.0
C      1  0.4379580000000  0.5286640000000  0.5128970000000 1.0
C      1  0.4310970000000  0.5028950000000  0.5865390000000 1.0
C      1  0.5571790000000  0.4413300000000  0.4229130000000 1.0
C      1  0.5771510000000  0.4394650000000  0.5252100000000 1.0
C      1  0.5432710000000  0.4650210000000  0.4163010000000 1.0
C      1  0.4519660000000  0.4280800000000  0.5493090000000 1.0
C      1  0.4537800000000  0.5936860000000  0.5135560000000 1.0
C      1  0.5109100000000  0.5125890000000  0.3979540000000 1.0
C      1  0.5642490000000  0.4756480000000  0.5887880000000 1.0
C      1  0.4894110000000  0.4022080000000  0.4776300000000 1.0
C      1  0.4907400000000  0.4474990000000  0.4790490000000 1.0
C      1  0.5391070000000  0.4785780000000  0.5996720000000 1.0
C      1  0.4229410000000  0.5567650000000  0.4506950000000 1.0
C      1  0.4530930000000  0.4240620000000  0.4434670000000 1.0
C      1  0.5145960000000  0.4453510000000  0.5381480000000 1.0
C      1  0.5741300000000  0.5051120000000  0.5010870000000 1.0
C      1  0.4644630000000  0.5788270000000  0.4742690000000 1.0
C      1  0.4094470000000  0.5304590000000  0.4512930000000 1.0
C      1  0.3929200000000  0.5226990000000  0.5267960000000 1.0
C      1  0.4075810000000  0.5165130000000  0.4765180000000 1.0
C      1  0.5018670000000  0.4876220000000  0.4528060000000 1.0
C      1  0.4190140000000  0.5514080000000  0.5108710000000 1.0
C      1  0.5413230000000  0.4699670000000  0.5189170000000 1.0
C      1  0.5237880000000  0.4190470000000  0.4511530000000 1.0
C      1  0.4513610000000  0.4199000000000  0.5012970000000 1.0
C      1  0.4791630000000  0.4103510000000  0.4508080000000 1.0
C      1  0.5374130000000  0.5552520000000  0.5888980000000 1.0
C      1  0.5786030000000  0.5399300000000  0.4995180000000 1.0
C      1  0.5186650000000  0.4049960000000  0.4781570000000 1.0
C      1  0.4632710000000  0.4414310000000  0.4864820000000 1.0
C      1  0.4677140000000  0.4754010000000  0.5969810000000 1.0
C      1  0.4606070000000  0.5318970000000  0.4969290000000 1.0
C      1  0.5635640000000  0.4180910000000  0.5048330000000 1.0
C      1  0.4110400000000  0.5517590000000  0.5722450000000 1.0
C      1  0.4978180000000  0.5921830000000  0.5418510000000 1.0
C      1  0.5065830000000  0.5676330000000  0.5527920000000 1.0
C      1  0.4717610000000  0.4072390000000  0.5558210000000 1.0
C      1  0.6103830000000  0.5187020000000  0.4639130000000 1.0
C      1  0.4978980000000  0.4383670000000  0.4118370000000 1.0
C      1  0.5854830000000  0.4973000000000  0.4209900000000 1.0
C      1  0.5369520000000  0.5137320000000  0.4419470000000 1.0
C      1  0.5600880000000  0.5017380000000  0.4772600000000 1.0
C      1  0.5026510000000  0.5628950000000  0.4364880000000 1.0
C      1  0.5740940000000  0.4540570000000  0.5501050000000 1.0
C      1  0.4505940000000  0.4863830000000  0.4926890000000 1.0
C      1  0.5224490000000  0.5997510000000  0.5274440000000 1.0
C      1  0.4878660000000  0.4183200000000  0.5782040000000 1.0
C      1  0.4322120000000  0.4705140000000  0.4294140000000 1.0
C      1  0.4718060000000  0.5469530000000  0.3962110000000 1.0
C      1  0.4697320000000  0.5849500000000  0.4074240000000 1.0
C      1  0.4809960000000  0.4820810000000  0.5465750000000 1.0
C      1  0.5503980000000  0.5248230000000  0.4661470000000 1.0
C      1  0.5000000000000  0.4160340000000  0.4314280000000 1.0
C      1  0.6060790000000  0.4909860000000  0.4706460000000 1.0
C      1  0.4828830000000  0.5215270000000  0.3953070000000 1.0
C      1  0.5157970000000  0.5032240000000  0.5652190000000 1.0
C      1  0.4916140000000  0.5817070000000  0.4207220000000 1.0
C      1  0.5109510000000  0.5650930000000  0.5808950000000 1.0
C      1  0.4151430000000  0.4525860000000  0.5323100000000 1.0
C      1  0.5643290000000  0.5650720000000  0.5461910000000 1.0
C      1  0.4839300000000  0.3952480000000  0.5305820000000 1.0
C      1  0.5961140000000  0.5419830000000  0.4491370000000 1.0
C      1  0.4127980000000  0.5317780000000  0.5524710000000 1.0
END
