TITL C-884130-5973-432 15.8930362299732 125000 -12657.326395052 0 0 84 (C1) n - 1
REM
REM in /home/nfs/bkarasulu/CARBON/AIRSS/Generating-Clusters/ReaxFF-fromJPCA2015/Units_Real/with-SteepDescent/Only-C1/SD-CG/Try1-3A/FIRE-CG
REM
REM
REM
REM
REM
REM ./C.cell (11c1c37f851c82e70ff6c80c92926a4b)
REM
REM compiler GCC version 9.2.1 20190827 (Red Hat 9.2.1-1)
REM options -cpp -mtune=generic -march=x86-64 -g -O0 -fpre-include=/usr/include/finclude/math-vector-fortran.h
REM seed 1757329546 1832565212 -1375365983 -1884521273 -1640161972 706187116 -325260073 -690206291 163333356 1430191202 -736014518 556583688 311056402 -961380868 -1153335413 -1693302608 456598911 317306986 1972961057 -267881820 1089415303 -669357594 -460234766 1384126938 -756918899 664425799 2093898531 -348121676 929916639 1587660166 -1333114139 -289945944 -477824046
REM
CELL 1.54180   50.00000   50.00000   50.00000   90.00000   90.00000   90.00000
LATT -1
SFAC C  
C      1  0.5945370000000  0.4924050000000  0.4906980000000 1.0
C      1  0.5006150000000  0.4928850000000  0.4260100000000 1.0
C      1  0.5257510000000  0.4723570000000  0.5241510000000 1.0
C      1  0.4886100000000  0.5404640000000  0.5860400000000 1.0
C      1  0.4605360000000  0.4268610000000  0.5098770000000 1.0
C      1  0.5765350000000  0.4553110000000  0.4990810000000 1.0
C      1  0.4821550000000  0.4478280000000  0.4398860000000 1.0
C      1  0.4274560000000  0.5469580000000  0.5219440000000 1.0
C      1  0.4795370000000  0.4978500000000  0.4662990000000 1.0
C      1  0.5050370000000  0.4620540000000  0.4826550000000 1.0
C      1  0.4643870000000  0.4339500000000  0.4603770000000 1.0
C      1  0.5509950000000  0.4801330000000  0.4564300000000 1.0
C      1  0.4432190000000  0.5227900000000  0.5622960000000 1.0
C      1  0.4608180000000  0.5715750000000  0.4727740000000 1.0
C      1  0.5066190000000  0.5624880000000  0.4590950000000 1.0
C      1  0.4481800000000  0.5252040000000  0.4905620000000 1.0
C      1  0.4377110000000  0.4402020000000  0.4718580000000 1.0
C      1  0.5705930000000  0.4744100000000  0.5540220000000 1.0
C      1  0.4997090000000  0.5661420000000  0.5342920000000 1.0
C      1  0.5609250000000  0.4586770000000  0.4736640000000 1.0
C      1  0.4603030000000  0.4881920000000  0.4473760000000 1.0
C      1  0.5165680000000  0.5727110000000  0.4841790000000 1.0
C      1  0.4755270000000  0.4370830000000  0.5336210000000 1.0
C      1  0.5221780000000  0.4752280000000  0.4416040000000 1.0
C      1  0.5528590000000  0.4964530000000  0.5633610000000 1.0
C      1  0.5254480000000  0.4555560000000  0.5503050000000 1.0
C      1  0.5461070000000  0.4342870000000  0.4786130000000 1.0
C      1  0.5615620000000  0.5060400000000  0.4581100000000 1.0
C      1  0.5615170000000  0.5219320000000  0.5502520000000 1.0
C      1  0.5017850000000  0.5143340000000  0.5278530000000 1.0
C      1  0.4136390000000  0.5440600000000  0.4710390000000 1.0
C      1  0.4277860000000  0.5040140000000  0.4932430000000 1.0
C      1  0.5587360000000  0.5489460000000  0.5114020000000 1.0
C      1  0.4372470000000  0.5025180000000  0.4403050000000 1.0
C      1  0.5220450000000  0.5546320000000  0.5489890000000 1.0
C      1  0.5064230000000  0.4854240000000  0.4666610000000 1.0
C      1  0.4466130000000  0.4789650000000  0.4931560000000 1.0
C      1  0.5978230000000  0.4729010000000  0.5103990000000 1.0
C      1  0.5149130000000  0.5223010000000  0.5045240000000 1.0
C      1  0.5779020000000  0.5282940000000  0.5059940000000 1.0
C      1  0.4655280000000  0.5420890000000  0.5664730000000 1.0
C      1  0.4611980000000  0.4790940000000  0.5597740000000 1.0
C      1  0.4724020000000  0.5596570000000  0.5428840000000 1.0
C      1  0.4979180000000  0.5753330000000  0.5063460000000 1.0
C      1  0.5901380000000  0.4863650000000  0.5360260000000 1.0
C      1  0.4995280000000  0.4722010000000  0.5089420000000 1.0
C      1  0.4436420000000  0.5284100000000  0.4370040000000 1.0
C      1  0.5175420000000  0.4338750000000  0.4693090000000 1.0
C      1  0.5555390000000  0.4505890000000  0.5465090000000 1.0
C      1  0.5040030000000  0.4347530000000  0.5364760000000 1.0
C      1  0.5175040000000  0.5351560000000  0.4513470000000 1.0
C      1  0.4571340000000  0.4588430000000  0.5424430000000 1.0
C      1  0.4777160000000  0.4744870000000  0.4283010000000 1.0
C      1  0.4224910000000  0.4970880000000  0.5213790000000 1.0
C      1  0.5436940000000  0.4243590000000  0.5057960000000 1.0
C      1  0.4416770000000  0.5499760000000  0.4778670000000 1.0
C      1  0.4691490000000  0.5748270000000  0.5004220000000 1.0
C      1  0.4274990000000  0.5209930000000  0.5369020000000 1.0
C      1  0.5631610000000  0.4394370000000  0.5205430000000 1.0
C      1  0.4361980000000  0.4670320000000  0.5205340000000 1.0
C      1  0.4735920000000  0.5116700000000  0.4905110000000 1.0
C      1  0.4358800000000  0.4405800000000  0.5021430000000 1.0
C      1  0.4745680000000  0.4201280000000  0.4850900000000 1.0
C      1  0.4830150000000  0.4967040000000  0.5140020000000 1.0
C      1  0.5155030000000  0.4196300000000  0.5146490000000 1.0
C      1  0.5104890000000  0.4473100000000  0.4434450000000 1.0
C      1  0.4718880000000  0.5365180000000  0.4374950000000 1.0
C      1  0.5821000000000  0.5140270000000  0.4790890000000 1.0
C      1  0.5826110000000  0.5143530000000  0.5320190000000 1.0
C      1  0.4962770000000  0.5204800000000  0.4344570000000 1.0
C      1  0.5113460000000  0.5091290000000  0.5564350000000 1.0
C      1  0.4531690000000  0.5633710000000  0.5222450000000 1.0
C      1  0.5023480000000  0.4165750000000  0.4887310000000 1.0
C      1  0.4584540000000  0.5010780000000  0.5679270000000 1.0
C      1  0.5600100000000  0.5551200000000  0.4579770000000 1.0
C      1  0.4071020000000  0.5478070000000  0.5001180000000 1.0
C      1  0.4216210000000  0.5198840000000  0.4560180000000 1.0
C      1  0.4786860000000  0.5615130000000  0.4518110000000 1.0
C      1  0.5493730000000  0.5316820000000  0.4463200000000 1.0
C      1  0.5134690000000  0.5357340000000  0.5703600000000 1.0
C      1  0.5476180000000  0.5450890000000  0.5381630000000 1.0
C      1  0.5273060000000  0.5298220000000  0.4825030000000 1.0
C      1  0.5431560000000  0.5571380000000  0.4863040000000 1.0
C      1  0.5258530000000  0.4856820000000  0.5639130000000 1.0
END
