TITL C-883734-4173-227 59.9857669693189 125000 -18138.8216770265 0 0 124 (C1) n - 1
REM
REM in /home/nfs/bkarasulu/CARBON/AIRSS/Generating-Clusters/ReaxFF-fromJPCA2015/Units_Real/with-SteepDescent/Only-C1/SD-CG/Try1-3A/FIRE-CG
REM
REM
REM
REM
REM
REM ./C.cell (11c1c37f851c82e70ff6c80c92926a4b)
REM
REM compiler GCC version 9.2.1 20190827 (Red Hat 9.2.1-1)
REM options -cpp -mtune=generic -march=x86-64 -g -O0 -fpre-include=/usr/include/finclude/math-vector-fortran.h
REM seed 195093844 -98774708 1817755816 1186222888 -1436167855 1491185496 -616147839 -1831373388 2083708229 1877380280 642173868 -412049160 201555892 2105209419 -720345395 -619913778 -298775225 -870216926 -995231698 -1343058229 1603600143 1593874920 1458239056 -2034219494 -1424182119 1587882355 -2012796167 -974298794 681634760 362188565 266334453 -589427904 -46859134
REM
CELL 1.54180   50.00000   50.00000   50.00000   90.00000   90.00000   90.00000
LATT -1
SFAC C  
C      1  0.4686500000000  0.4113420000000  0.5189900000000 1.0
C      1  0.4990180000000  0.4548700000000  0.5712970000000 1.0
C      1  0.5186410000000  0.4261280000000  0.4366280000000 1.0
C      1  0.4794490000000  0.5213650000000  0.4005510000000 1.0
C      1  0.4453700000000  0.5266940000000  0.5079320000000 1.0
C      1  0.4465770000000  0.5834360000000  0.5114330000000 1.0
C      1  0.4441480000000  0.5200410000000  0.4316290000000 1.0
C      1  0.5357710000000  0.4346720000000  0.5498970000000 1.0
C      1  0.4917770000000  0.5744750000000  0.4477770000000 1.0
C      1  0.5758820000000  0.5539370000000  0.4694200000000 1.0
C      1  0.5095950000000  0.5526750000000  0.5717990000000 1.0
C      1  0.4442730000000  0.5856630000000  0.5409960000000 1.0
C      1  0.5120700000000  0.5982710000000  0.5125470000000 1.0
C      1  0.4546210000000  0.4630170000000  0.5656970000000 1.0
C      1  0.4242410000000  0.5245570000000  0.5513000000000 1.0
C      1  0.4719660000000  0.5693170000000  0.5161380000000 1.0
C      1  0.4786780000000  0.5756100000000  0.4736650000000 1.0
C      1  0.4807780000000  0.5479390000000  0.4077640000000 1.0
C      1  0.5581780000000  0.4595710000000  0.4454260000000 1.0
C      1  0.5695030000000  0.5183680000000  0.4315880000000 1.0
C      1  0.5531760000000  0.5510290000000  0.5506130000000 1.0
C      1  0.5266060000000  0.5135720000000  0.4071890000000 1.0
C      1  0.4983870000000  0.4648900000000  0.5431290000000 1.0
C      1  0.5981920000000  0.5034650000000  0.4755190000000 1.0
C      1  0.5826170000000  0.4389470000000  0.5061130000000 1.0
C      1  0.5622690000000  0.4765070000000  0.5045340000000 1.0
C      1  0.4716490000000  0.5610540000000  0.4312470000000 1.0
C      1  0.5463560000000  0.5100990000000  0.4899620000000 1.0
C      1  0.5442670000000  0.5201430000000  0.5169690000000 1.0
C      1  0.5634180000000  0.4941410000000  0.5527410000000 1.0
C      1  0.5371590000000  0.5728160000000  0.5468010000000 1.0
C      1  0.5372970000000  0.5337710000000  0.4771260000000 1.0
C      1  0.5185430000000  0.4535590000000  0.4223440000000 1.0
C      1  0.4551410000000  0.4773890000000  0.4920050000000 1.0
C      1  0.4624870000000  0.4645350000000  0.4619380000000 1.0
C      1  0.5609300000000  0.4930330000000  0.5814420000000 1.0
C      1  0.6005300000000  0.5237560000000  0.4973230000000 1.0
C      1  0.5073270000000  0.4667730000000  0.4799510000000 1.0
C      1  0.4672290000000  0.4710840000000  0.4274660000000 1.0
C      1  0.4183710000000  0.4765490000000  0.4457770000000 1.0
C      1  0.4220300000000  0.5093860000000  0.4689780000000 1.0
C      1  0.5877090000000  0.5073660000000  0.4493260000000 1.0
C      1  0.5326350000000  0.4110280000000  0.5131980000000 1.0
C      1  0.5676060000000  0.5370780000000  0.5242710000000 1.0
C      1  0.4928790000000  0.4442110000000  0.5252620000000 1.0
C      1  0.5415430000000  0.4723700000000  0.4267480000000 1.0
C      1  0.5084230000000  0.4848650000000  0.5017330000000 1.0
C      1  0.4858440000000  0.5104700000000  0.5407310000000 1.0
C      1  0.4660010000000  0.5306000000000  0.5801200000000 1.0
C      1  0.5072550000000  0.5248500000000  0.3956450000000 1.0
C      1  0.4959520000000  0.5752770000000  0.5575880000000 1.0
C      1  0.3988280000000  0.4909510000000  0.5034490000000 1.0
C      1  0.4452150000000  0.5077160000000  0.5451670000000 1.0
C      1  0.4140380000000  0.5345030000000  0.4778700000000 1.0
C      1  0.5208610000000  0.4763290000000  0.5278420000000 1.0
C      1  0.4378720000000  0.4404900000000  0.5523410000000 1.0
C      1  0.4922580000000  0.4618790000000  0.4234380000000 1.0
C      1  0.4911890000000  0.4171290000000  0.5370430000000 1.0
C      1  0.5798050000000  0.4424410000000  0.4770480000000 1.0
C      1  0.5472540000000  0.5014010000000  0.4196630000000 1.0
C      1  0.4897160000000  0.5269310000000  0.4766580000000 1.0
C      1  0.4949060000000  0.5819680000000  0.5291880000000 1.0
C      1  0.5372760000000  0.5928410000000  0.5264140000000 1.0
C      1  0.4028730000000  0.5230360000000  0.5018380000000 1.0
C      1  0.5005560000000  0.5221540000000  0.4527360000000 1.0
C      1  0.5238570000000  0.5573390000000  0.4906620000000 1.0
C      1  0.5329300000000  0.5838700000000  0.4981300000000 1.0
C      1  0.4878210000000  0.4746420000000  0.4612820000000 1.0
C      1  0.4442310000000  0.5038960000000  0.4888470000000 1.0
C      1  0.5494980000000  0.4400310000000  0.4709800000000 1.0
C      1  0.4777140000000  0.4092180000000  0.4919280000000 1.0
C      1  0.5842010000000  0.5474590000000  0.4952170000000 1.0
C      1  0.4911680000000  0.5324920000000  0.5847450000000 1.0
C      1  0.4054300000000  0.4709460000000  0.4847610000000 1.0
C      1  0.4936420000000  0.5284170000000  0.5203690000000 1.0
C      1  0.4407120000000  0.5396060000000  0.5723060000000 1.0
C      1  0.4947190000000  0.5002690000000  0.5833360000000 1.0
C      1  0.4495580000000  0.5743900000000  0.4830340000000 1.0
C      1  0.5694550000000  0.5485660000000  0.4426220000000 1.0
C      1  0.4635910000000  0.4956860000000  0.5265500000000 1.0
C      1  0.4885240000000  0.4993170000000  0.4473030000000 1.0
C      1  0.4688280000000  0.5412290000000  0.5156870000000 1.0
C      1  0.5393010000000  0.4728890000000  0.5889920000000 1.0
C      1  0.4998450000000  0.5113620000000  0.4985930000000 1.0
C      1  0.4551830000000  0.4156460000000  0.4742040000000 1.0
C      1  0.5226340000000  0.4958750000000  0.5970110000000 1.0
C      1  0.4704290000000  0.4111150000000  0.4509970000000 1.0
C      1  0.5365880000000  0.5407300000000  0.5726350000000 1.0
C      1  0.4480810000000  0.5458360000000  0.4435860000000 1.0
C      1  0.4579800000000  0.4709360000000  0.5372930000000 1.0
C      1  0.4670770000000  0.5019690000000  0.4234610000000 1.0
C      1  0.5387630000000  0.4520670000000  0.5261110000000 1.0
C      1  0.4201690000000  0.5333890000000  0.5224210000000 1.0
C      1  0.5017500000000  0.4444070000000  0.4977670000000 1.0
C      1  0.5270570000000  0.4211900000000  0.4640950000000 1.0
C      1  0.5199330000000  0.4119410000000  0.5391430000000 1.0
C      1  0.5807060000000  0.4680290000000  0.4616810000000 1.0
C      1  0.5424990000000  0.5153470000000  0.5888680000000 1.0
C      1  0.5602340000000  0.4199040000000  0.5120040000000 1.0
C      1  0.5716940000000  0.4901430000000  0.4820360000000 1.0
C      1  0.4935410000000  0.4155550000000  0.4403150000000 1.0
C      1  0.5908460000000  0.5173810000000  0.5240510000000 1.0
C      1  0.4184690000000  0.4544440000000  0.4636760000000 1.0
C      1  0.4345250000000  0.5535430000000  0.4685640000000 1.0
C      1  0.5082120000000  0.5022700000000  0.5559460000000 1.0
C      1  0.4774520000000  0.4713570000000  0.5811520000000 1.0
C      1  0.5871880000000  0.4902610000000  0.5358560000000 1.0
C      1  0.5479410000000  0.5673400000000  0.4440350000000 1.0
C      1  0.4213640000000  0.5040670000000  0.4408900000000 1.0
C      1  0.5424520000000  0.4565990000000  0.4979280000000 1.0
C      1  0.5280940000000  0.4498390000000  0.5746210000000 1.0
C      1  0.5101660000000  0.4169710000000  0.4890230000000 1.0
C      1  0.4669040000000  0.5831360000000  0.5608640000000 1.0
C      1  0.4491810000000  0.4583250000000  0.5137030000000 1.0
C      1  0.4422860000000  0.5690980000000  0.5653150000000 1.0
C      1  0.4045530000000  0.4736070000000  0.5255090000000 1.0
C      1  0.4176470000000  0.4568560000000  0.5411510000000 1.0
C      1  0.5201200000000  0.5633100000000  0.4434010000000 1.0
C      1  0.4955390000000  0.5545150000000  0.4851410000000 1.0
C      1  0.4459520000000  0.4416550000000  0.4645260000000 1.0
C      1  0.5360170000000  0.5029820000000  0.5417500000000 1.0
C      1  0.5248220000000  0.5343690000000  0.4497410000000 1.0
C      1  0.4466750000000  0.4313530000000  0.5254940000000 1.0
C      1  0.5825880000000  0.4646910000000  0.5217330000000 1.0
END
