TITL C-884130-5973-238 53.4010052602683 125000 -29438.9886760655 0 0 199 (C1) n - 1
REM
REM in /home/nfs/bkarasulu/CARBON/AIRSS/Generating-Clusters/ReaxFF-fromJPCA2015/Units_Real/with-SteepDescent/Only-C1/SD-CG/Try1-3A/FIRE-CG
REM
REM
REM
REM
REM
REM ./C.cell (11c1c37f851c82e70ff6c80c92926a4b)
REM
REM compiler GCC version 9.2.1 20190827 (Red Hat 9.2.1-1)
REM options -cpp -mtune=generic -march=x86-64 -g -O0 -fpre-include=/usr/include/finclude/math-vector-fortran.h
REM seed 894246683 -2006410851 771108800 682494362 1744826935 1352966436 -181504398 1576244375 1929884439 -1591148573 -1079500247 1034348395 907573871 1632609197 -2142747439 -673801901 -498219699 940719575 -747948890 791731949 -1615581375 1325195744 1638093599 1402109842 152927254 -1178349364 1456979532 257846461 -1978272693 28766079 1841415902 -1029429215 1511159552
REM
CELL 1.54180   50.00000   50.00000   50.00000   90.00000   90.00000   90.00000
LATT -1
SFAC C  
C      1  0.5597920000000  0.6005810000000  0.5014810000000 1.0
C      1  0.5566310000000  0.5433570000000  0.5900090000000 1.0
C      1  0.5001670000000  0.4201390000000  0.4454690000000 1.0
C      1  0.4525190000000  0.4041070000000  0.4972390000000 1.0
C      1  0.4376850000000  0.4109870000000  0.4695750000000 1.0
C      1  0.4795130000000  0.4307260000000  0.5843140000000 1.0
C      1  0.6223610000000  0.4899350000000  0.4925050000000 1.0
C      1  0.4807060000000  0.5171870000000  0.5488000000000 1.0
C      1  0.6076730000000  0.4611440000000  0.5355870000000 1.0
C      1  0.5007210000000  0.4634550000000  0.4935530000000 1.0
C      1  0.4368540000000  0.5946190000000  0.5144550000000 1.0
C      1  0.4793840000000  0.5123260000000  0.5896310000000 1.0
C      1  0.5990370000000  0.5354560000000  0.5638040000000 1.0
C      1  0.5574130000000  0.5111830000000  0.4441770000000 1.0
C      1  0.5080440000000  0.4478450000000  0.4367830000000 1.0
C      1  0.6171520000000  0.4963290000000  0.4658850000000 1.0
C      1  0.4331580000000  0.5354770000000  0.5167190000000 1.0
C      1  0.4794820000000  0.4943790000000  0.6126400000000 1.0
C      1  0.4565630000000  0.4586090000000  0.4483870000000 1.0
C      1  0.4553880000000  0.4093390000000  0.5462680000000 1.0
C      1  0.5825010000000  0.5830590000000  0.5037220000000 1.0
C      1  0.3932380000000  0.5108540000000  0.5010390000000 1.0
C      1  0.5899330000000  0.4470870000000  0.5518440000000 1.0
C      1  0.5862530000000  0.4920730000000  0.5143840000000 1.0
C      1  0.3990400000000  0.5355580000000  0.5177300000000 1.0
C      1  0.5489500000000  0.4488760000000  0.5931350000000 1.0
C      1  0.5864220000000  0.4467460000000  0.4646010000000 1.0
C      1  0.4162350000000  0.5673810000000  0.4798420000000 1.0
C      1  0.5173060000000  0.4420130000000  0.4893460000000 1.0
C      1  0.4572850000000  0.4465000000000  0.4754320000000 1.0
C      1  0.5111450000000  0.5134750000000  0.5574220000000 1.0
C      1  0.4273600000000  0.5038330000000  0.4326000000000 1.0
C      1  0.5266320000000  0.5390430000000  0.3902600000000 1.0
C      1  0.4953160000000  0.4702890000000  0.5787460000000 1.0
C      1  0.4095180000000  0.4788320000000  0.4358590000000 1.0
C      1  0.5636340000000  0.4058950000000  0.4855510000000 1.0
C      1  0.5066720000000  0.5706130000000  0.5320410000000 1.0
C      1  0.4953320000000  0.5307020000000  0.4989350000000 1.0
C      1  0.5609210000000  0.5771210000000  0.4658970000000 1.0
C      1  0.5788470000000  0.4435600000000  0.4357630000000 1.0
C      1  0.4962880000000  0.4942940000000  0.4209510000000 1.0
C      1  0.4755740000000  0.4111070000000  0.4314600000000 1.0
C      1  0.4370270000000  0.5297830000000  0.5818710000000 1.0
C      1  0.4964150000000  0.4809190000000  0.4711660000000 1.0
C      1  0.5555620000000  0.5819180000000  0.5457380000000 1.0
C      1  0.5914340000000  0.4772640000000  0.4586750000000 1.0
C      1  0.5726210000000  0.4694110000000  0.5891600000000 1.0
C      1  0.4800370000000  0.6177750000000  0.4890960000000 1.0
C      1  0.4156380000000  0.5780810000000  0.5264710000000 1.0
C      1  0.4610690000000  0.5169600000000  0.3952340000000 1.0
C      1  0.5142900000000  0.4789250000000  0.5115070000000 1.0
C      1  0.5186270000000  0.5012210000000  0.4669590000000 1.0
C      1  0.4422250000000  0.5844300000000  0.4869640000000 1.0
C      1  0.4389100000000  0.4126180000000  0.5222310000000 1.0
C      1  0.4477080000000  0.5002110000000  0.4815590000000 1.0
C      1  0.4747190000000  0.5968570000000  0.4472560000000 1.0
C      1  0.4719530000000  0.4697600000000  0.5963910000000 1.0
C      1  0.4939530000000  0.5591310000000  0.5576470000000 1.0
C      1  0.5435430000000  0.4139250000000  0.4633000000000 1.0
C      1  0.4231420000000  0.4523130000000  0.4433440000000 1.0
C      1  0.5255150000000  0.4865320000000  0.6257090000000 1.0
C      1  0.5356230000000  0.5603960000000  0.4069720000000 1.0
C      1  0.5769140000000  0.4982130000000  0.5945470000000 1.0
C      1  0.4355660000000  0.4965150000000  0.5342110000000 1.0
C      1  0.4174390000000  0.4326490000000  0.5212410000000 1.0
C      1  0.4060910000000  0.4387050000000  0.4943030000000 1.0
C      1  0.4609670000000  0.5788580000000  0.4274560000000 1.0
C      1  0.4644850000000  0.5589950000000  0.5518200000000 1.0
C      1  0.6073050000000  0.5345790000000  0.5367830000000 1.0
C      1  0.4764060000000  0.6084020000000  0.5491680000000 1.0
C      1  0.5361320000000  0.5321090000000  0.6051020000000 1.0
C      1  0.4603740000000  0.4710820000000  0.4015180000000 1.0
C      1  0.4270900000000  0.5040430000000  0.4623380000000 1.0
C      1  0.5472630000000  0.5997820000000  0.4752770000000 1.0
C      1  0.4769200000000  0.5430360000000  0.4801080000000 1.0
C      1  0.5385850000000  0.4448830000000  0.4706980000000 1.0
C      1  0.4137240000000  0.5018290000000  0.5534020000000 1.0
C      1  0.4768930000000  0.4749920000000  0.4547010000000 1.0
C      1  0.5196270000000  0.6183070000000  0.5273890000000 1.0
C      1  0.4644330000000  0.6008490000000  0.5227000000000 1.0
C      1  0.5512540000000  0.4856690000000  0.5518460000000 1.0
C      1  0.5085310000000  0.4214280000000  0.5851110000000 1.0
C      1  0.4896100000000  0.4780100000000  0.4026390000000 1.0
C      1  0.4169860000000  0.5594610000000  0.5503500000000 1.0
C      1  0.4426710000000  0.5554470000000  0.4259770000000 1.0
C      1  0.5135840000000  0.4594270000000  0.4089570000000 1.0
C      1  0.4513430000000  0.4741820000000  0.5399930000000 1.0
C      1  0.5790760000000  0.5135560000000  0.4973470000000 1.0
C      1  0.4563580000000  0.4599950000000  0.5162390000000 1.0
C      1  0.5034070000000  0.4983090000000  0.5801860000000 1.0
C      1  0.4562720000000  0.4423040000000  0.4053540000000 1.0
C      1  0.5358520000000  0.4845260000000  0.4052750000000 1.0
C      1  0.5050280000000  0.4980170000000  0.3682860000000 1.0
C      1  0.5354880000000  0.5433590000000  0.4944940000000 1.0
C      1  0.4803290000000  0.4248690000000  0.4062960000000 1.0
C      1  0.5324200000000  0.4209590000000  0.4142520000000 1.0
C      1  0.5803960000000  0.5749200000000  0.5324150000000 1.0
C      1  0.4432540000000  0.4707120000000  0.5861320000000 1.0
C      1  0.4468690000000  0.4960960000000  0.4078920000000 1.0
C      1  0.5052330000000  0.5085330000000  0.6199110000000 1.0
C      1  0.4222820000000  0.5140480000000  0.6014500000000 1.0
C      1  0.5357290000000  0.4268890000000  0.5766300000000 1.0
C      1  0.5148620000000  0.5504610000000  0.4440970000000 1.0
C      1  0.4394840000000  0.5087720000000  0.5095280000000 1.0
C      1  0.4114980000000  0.5451680000000  0.4618970000000 1.0
C      1  0.5810420000000  0.4724540000000  0.4311540000000 1.0
C      1  0.5780020000000  0.4310610000000  0.4875540000000 1.0
C      1  0.5452420000000  0.6022440000000  0.5272930000000 1.0
C      1  0.4622640000000  0.5224050000000  0.5714840000000 1.0
C      1  0.5318330000000  0.5551300000000  0.5214510000000 1.0
C      1  0.5427560000000  0.5386300000000  0.4448290000000 1.0
C      1  0.4948280000000  0.4001500000000  0.4810770000000 1.0
C      1  0.5867920000000  0.5718070000000  0.4767240000000 1.0
C      1  0.4011060000000  0.5153420000000  0.4722400000000 1.0
C      1  0.4809400000000  0.5176200000000  0.5178550000000 1.0
C      1  0.4813500000000  0.3959250000000  0.5500740000000 1.0
C      1  0.3862810000000  0.4607970000000  0.4941460000000 1.0
C      1  0.4766360000000  0.4416180000000  0.5149120000000 1.0
C      1  0.5339560000000  0.4626490000000  0.5473620000000 1.0
C      1  0.5025910000000  0.5106370000000  0.4394770000000 1.0
C      1  0.5411890000000  0.4845280000000  0.5024320000000 1.0
C      1  0.5125370000000  0.5538010000000  0.5788320000000 1.0
C      1  0.5777360000000  0.4742560000000  0.5601460000000 1.0
C      1  0.5685250000000  0.5003100000000  0.4694330000000 1.0
C      1  0.4911760000000  0.4915160000000  0.5201520000000 1.0
C      1  0.4562020000000  0.4291230000000  0.5669530000000 1.0
C      1  0.4027810000000  0.5644690000000  0.5048250000000 1.0
C      1  0.4816580000000  0.5181400000000  0.3743390000000 1.0
C      1  0.4983010000000  0.5578850000000  0.4659860000000 1.0
C      1  0.3897100000000  0.4918590000000  0.4522350000000 1.0
C      1  0.4736790000000  0.4264870000000  0.4905540000000 1.0
C      1  0.5689890000000  0.4437150000000  0.5151050000000 1.0
C      1  0.4511450000000  0.4694420000000  0.4905760000000 1.0
C      1  0.4237160000000  0.4917260000000  0.5831350000000 1.0
C      1  0.5464740000000  0.4147940000000  0.5524500000000 1.0
C      1  0.4774280000000  0.5238870000000  0.4429310000000 1.0
C      1  0.5104500000000  0.5713040000000  0.4232790000000 1.0
C      1  0.5347810000000  0.4545960000000  0.4435550000000 1.0
C      1  0.5261000000000  0.4073130000000  0.4390460000000 1.0
C      1  0.4337260000000  0.5411700000000  0.6091150000000 1.0
C      1  0.6209600000000  0.5300940000000  0.4888440000000 1.0
C      1  0.5366540000000  0.4654420000000  0.6095720000000 1.0
C      1  0.4368330000000  0.4516940000000  0.5639110000000 1.0
C      1  0.5426140000000  0.4852010000000  0.4737170000000 1.0
C      1  0.3900860000000  0.4848720000000  0.5129080000000 1.0
C      1  0.4133080000000  0.4520860000000  0.5428000000000 1.0
C      1  0.6162390000000  0.4825090000000  0.5193930000000 1.0
C      1  0.5718070000000  0.4250940000000  0.5430550000000 1.0
C      1  0.5087600000000  0.4310700000000  0.3992660000000 1.0
C      1  0.5017930000000  0.5806290000000  0.4820790000000 1.0
C      1  0.4350790000000  0.4329430000000  0.4238270000000 1.0
C      1  0.5578240000000  0.4911010000000  0.4237050000000 1.0
C      1  0.5801440000000  0.5260860000000  0.5845200000000 1.0
C      1  0.5596730000000  0.5534960000000  0.4213100000000 1.0
C      1  0.6000350000000  0.5583750000000  0.5475230000000 1.0
C      1  0.4410810000000  0.5674680000000  0.5668530000000 1.0
C      1  0.5418020000000  0.4447140000000  0.5264290000000 1.0
C      1  0.5523310000000  0.4415020000000  0.4232650000000 1.0
C      1  0.5065050000000  0.4566170000000  0.5553380000000 1.0
C      1  0.5286730000000  0.4003920000000  0.5284910000000 1.0
C      1  0.5110790000000  0.5351990000000  0.6040480000000 1.0
C      1  0.4772760000000  0.4873780000000  0.5445730000000 1.0
C      1  0.5194800000000  0.5206270000000  0.4887730000000 1.0
C      1  0.4616440000000  0.6043740000000  0.4724320000000 1.0
C      1  0.4401070000000  0.5673840000000  0.5971840000000 1.0
C      1  0.4868520000000  0.5794090000000  0.5084440000000 1.0
C      1  0.4242290000000  0.5377780000000  0.4383710000000 1.0
C      1  0.4477560000000  0.4127810000000  0.4420710000000 1.0
C      1  0.5659300000000  0.4735010000000  0.5132440000000 1.0
C      1  0.5823630000000  0.5581760000000  0.4376300000000 1.0
C      1  0.5378760000000  0.5117430000000  0.5474900000000 1.0
C      1  0.5449260000000  0.5409830000000  0.5430280000000 1.0
C      1  0.5998920000000  0.5518450000000  0.4588510000000 1.0
C      1  0.5994170000000  0.5314330000000  0.5079650000000 1.0
C      1  0.5197130000000  0.4313380000000  0.5170120000000 1.0
C      1  0.4990850000000  0.3908960000000  0.5281590000000 1.0
C      1  0.3865680000000  0.4707890000000  0.4686020000000 1.0
C      1  0.4893960000000  0.4049870000000  0.5760690000000 1.0
C      1  0.4677440000000  0.5387190000000  0.4177670000000 1.0
C      1  0.5418360000000  0.5585270000000  0.5676730000000 1.0
C      1  0.5234590000000  0.3953670000000  0.4801870000000 1.0
C      1  0.4628780000000  0.5213420000000  0.4671430000000 1.0
C      1  0.4056060000000  0.5329710000000  0.5469840000000 1.0
C      1  0.4973920000000  0.4400740000000  0.5335220000000 1.0
C      1  0.4547360000000  0.5523720000000  0.5250070000000 1.0
C      1  0.5051880000000  0.6004830000000  0.5448750000000 1.0
C      1  0.3998210000000  0.4771930000000  0.5393760000000 1.0
C      1  0.5273530000000  0.5051610000000  0.3870700000000 1.0
C      1  0.4648910000000  0.5632380000000  0.5002510000000 1.0
C      1  0.4184420000000  0.4317720000000  0.4687110000000 1.0
C      1  0.6179490000000  0.5264230000000  0.4615620000000 1.0
C      1  0.4825200000000  0.3892480000000  0.5041140000000 1.0
C      1  0.5036930000000  0.5963950000000  0.4436700000000 1.0
C      1  0.5186090000000  0.6007340000000  0.4681540000000 1.0
C      1  0.5017740000000  0.5372890000000  0.3803380000000 1.0
C      1  0.4994290000000  0.6209740000000  0.5075210000000 1.0
C      1  0.5464170000000  0.5533290000000  0.4699040000000 1.0
C      1  0.4817810000000  0.5657390000000  0.4136680000000 1.0
C      1  0.5420810000000  0.3943920000000  0.5026240000000 1.0
END
