TITL C-883741-3679-313 15.8811319975915 125000 -17290.2889052262 0 0 119 (C1) n - 1
REM
REM in /home/nfs/bkarasulu/CARBON/AIRSS/Generating-Clusters/ReaxFF-fromJPCA2015/Units_Real/with-SteepDescent/Only-C1/SD-CG/Try1-3A/FIRE-CG
REM
REM
REM
REM
REM
REM ./C.cell (11c1c37f851c82e70ff6c80c92926a4b)
REM
REM compiler GCC version 9.2.1 20190827 (Red Hat 9.2.1-1)
REM options -cpp -mtune=generic -march=x86-64 -g -O0 -fpre-include=/usr/include/finclude/math-vector-fortran.h
REM seed -501541929 153352329 -221877024 25056101 -1081669758 1470615797 -1407074555 -1838707481 1181627802 1289736756 -1226998689 994166820 -700967428 -1535701513 -888336174 423379377 -902086516 2128084691 915581087 1023741818 1669874749 1114229570 -1063953621 1335860421 -1935934989 1607720587 -376249530 1033932551 489414654 829435686 -1091230600 -921926055 -847260921
REM
CELL 1.54180   50.00000   50.00000   50.00000   90.00000   90.00000   90.00000
LATT -1
SFAC C  
C      1  0.4083330000000  0.4646150000000  0.5310180000000 1.0
C      1  0.5041190000000  0.4517720000000  0.4932430000000 1.0
C      1  0.5616900000000  0.5722130000000  0.5049900000000 1.0
C      1  0.5268040000000  0.4841430000000  0.4866700000000 1.0
C      1  0.5312050000000  0.4133920000000  0.4729440000000 1.0
C      1  0.4980790000000  0.4906030000000  0.5299760000000 1.0
C      1  0.5369600000000  0.5235670000000  0.5904020000000 1.0
C      1  0.5111060000000  0.4056870000000  0.4938740000000 1.0
C      1  0.5982210000000  0.5261590000000  0.4992370000000 1.0
C      1  0.4450700000000  0.5565810000000  0.5403900000000 1.0
C      1  0.5455970000000  0.5613300000000  0.5529930000000 1.0
C      1  0.5156280000000  0.5071740000000  0.4841480000000 1.0
C      1  0.5572680000000  0.4471950000000  0.5021530000000 1.0
C      1  0.5122690000000  0.4553440000000  0.4163670000000 1.0
C      1  0.5747660000000  0.5274040000000  0.5196710000000 1.0
C      1  0.4683580000000  0.5423070000000  0.5042580000000 1.0
C      1  0.4446670000000  0.4920480000000  0.4985430000000 1.0
C      1  0.5352910000000  0.4657440000000  0.5571360000000 1.0
C      1  0.5459970000000  0.4963710000000  0.5937010000000 1.0
C      1  0.5744790000000  0.4699700000000  0.4649470000000 1.0
C      1  0.4175350000000  0.5557610000000  0.4664150000000 1.0
C      1  0.5189170000000  0.5043940000000  0.6037450000000 1.0
C      1  0.5266320000000  0.4785550000000  0.5304540000000 1.0
C      1  0.4191030000000  0.5480630000000  0.4960060000000 1.0
C      1  0.4782190000000  0.5286830000000  0.5541150000000 1.0
C      1  0.6127660000000  0.5117050000000  0.5188200000000 1.0
C      1  0.4688420000000  0.5130280000000  0.4919310000000 1.0
C      1  0.4835600000000  0.5501950000000  0.5967030000000 1.0
C      1  0.5566670000000  0.4807140000000  0.5710480000000 1.0
C      1  0.4455250000000  0.5600580000000  0.5104620000000 1.0
C      1  0.4751630000000  0.4531040000000  0.5737920000000 1.0
C      1  0.4039780000000  0.5273220000000  0.5059970000000 1.0
C      1  0.4725640000000  0.4807480000000  0.4577650000000 1.0
C      1  0.4805770000000  0.4683010000000  0.5330890000000 1.0
C      1  0.4871880000000  0.5870980000000  0.4482400000000 1.0
C      1  0.5076020000000  0.5563090000000  0.4082380000000 1.0
C      1  0.5822360000000  0.4862600000000  0.5550640000000 1.0
C      1  0.5728840000000  0.4787770000000  0.4945770000000 1.0
C      1  0.5326490000000  0.4078630000000  0.5144080000000 1.0
C      1  0.5405650000000  0.4236850000000  0.5381230000000 1.0
C      1  0.4645120000000  0.5075350000000  0.4633310000000 1.0
C      1  0.4516330000000  0.4400040000000  0.5609030000000 1.0
C      1  0.5935190000000  0.5103080000000  0.5386460000000 1.0
C      1  0.4914830000000  0.4746190000000  0.4072480000000 1.0
C      1  0.5351950000000  0.5612690000000  0.4399810000000 1.0
C      1  0.4944460000000  0.5033890000000  0.5016750000000 1.0
C      1  0.5581940000000  0.4732050000000  0.4417840000000 1.0
C      1  0.5652790000000  0.4384280000000  0.5290830000000 1.0
C      1  0.5513160000000  0.4190630000000  0.4936820000000 1.0
C      1  0.4443240000000  0.4351610000000  0.5025480000000 1.0
C      1  0.4655270000000  0.5687330000000  0.4418580000000 1.0
C      1  0.4322220000000  0.4494600000000  0.4602720000000 1.0
C      1  0.4145710000000  0.4682330000000  0.4748170000000 1.0
C      1  0.4571900000000  0.4571380000000  0.4453810000000 1.0
C      1  0.4896550000000  0.5023230000000  0.5575130000000 1.0
C      1  0.4894860000000  0.5532950000000  0.5175560000000 1.0
C      1  0.4811740000000  0.4593230000000  0.5072010000000 1.0
C      1  0.5173340000000  0.5725850000000  0.5560040000000 1.0
C      1  0.5217270000000  0.5438780000000  0.4879770000000 1.0
C      1  0.5165230000000  0.5426780000000  0.5175630000000 1.0
C      1  0.5098190000000  0.5098400000000  0.4541440000000 1.0
C      1  0.4903800000000  0.4991950000000  0.6000210000000 1.0
C      1  0.4451120000000  0.4945590000000  0.4217440000000 1.0
C      1  0.5412590000000  0.5018480000000  0.5269690000000 1.0
C      1  0.5619400000000  0.5558290000000  0.5301530000000 1.0
C      1  0.5812890000000  0.4595930000000  0.5437090000000 1.0
C      1  0.4519590000000  0.4780520000000  0.5418550000000 1.0
C      1  0.4703160000000  0.5240070000000  0.5997200000000 1.0
C      1  0.4928670000000  0.4420480000000  0.5522270000000 1.0
C      1  0.5612510000000  0.5025300000000  0.5092170000000 1.0
C      1  0.5033320000000  0.5003780000000  0.3975830000000 1.0
C      1  0.4640470000000  0.4175710000000  0.5159370000000 1.0
C      1  0.5919080000000  0.4879020000000  0.4753320000000 1.0
C      1  0.4255820000000  0.5384550000000  0.4457850000000 1.0
C      1  0.4410110000000  0.4259750000000  0.4747470000000 1.0
C      1  0.5905960000000  0.5156450000000  0.4720870000000 1.0
C      1  0.5078740000000  0.5925350000000  0.5399210000000 1.0
C      1  0.5573020000000  0.5496420000000  0.4541670000000 1.0
C      1  0.4258950000000  0.4944310000000  0.4753360000000 1.0
C      1  0.4539700000000  0.4625620000000  0.4990930000000 1.0
C      1  0.4959010000000  0.5283500000000  0.4097120000000 1.0
C      1  0.5487520000000  0.5953060000000  0.4986480000000 1.0
C      1  0.5586540000000  0.5020060000000  0.4360400000000 1.0
C      1  0.5706270000000  0.5226620000000  0.4529830000000 1.0
C      1  0.4365500000000  0.5651950000000  0.4451300000000 1.0
C      1  0.5287080000000  0.5248040000000  0.5369130000000 1.0
C      1  0.4872590000000  0.5849180000000  0.4779140000000 1.0
C      1  0.4656080000000  0.5883450000000  0.4993640000000 1.0
C      1  0.4886150000000  0.5561950000000  0.5668480000000 1.0
C      1  0.5309010000000  0.5023050000000  0.4360000000000 1.0
C      1  0.4974090000000  0.5575950000000  0.4757820000000 1.0
C      1  0.4035900000000  0.4713150000000  0.5033100000000 1.0
C      1  0.4477290000000  0.5275690000000  0.5511360000000 1.0
C      1  0.4819600000000  0.4819580000000  0.5781120000000 1.0
C      1  0.4932180000000  0.4374440000000  0.4260660000000 1.0
C      1  0.5355710000000  0.5354370000000  0.5632910000000 1.0
C      1  0.4966550000000  0.4872770000000  0.4497060000000 1.0
C      1  0.4375820000000  0.5007990000000  0.5300730000000 1.0
C      1  0.4697260000000  0.4235980000000  0.5440850000000 1.0
C      1  0.5286950000000  0.5033660000000  0.4086090000000 1.0
C      1  0.4674540000000  0.4152160000000  0.4690690000000 1.0
C      1  0.5238730000000  0.4393640000000  0.5556500000000 1.0
C      1  0.4814300000000  0.5469080000000  0.4544140000000 1.0
C      1  0.5366830000000  0.4547060000000  0.4342790000000 1.0
C      1  0.4320640000000  0.4588650000000  0.5483850000000 1.0
C      1  0.4820990000000  0.5833660000000  0.5291420000000 1.0
C      1  0.4662620000000  0.5712970000000  0.5521290000000 1.0
C      1  0.4468650000000  0.5228770000000  0.5819990000000 1.0
C      1  0.5469010000000  0.5586790000000  0.4801870000000 1.0
C      1  0.5287990000000  0.4639370000000  0.5025140000000 1.0
C      1  0.4815340000000  0.4086900000000  0.4935470000000 1.0
C      1  0.5254990000000  0.4341970000000  0.4521450000000 1.0
C      1  0.5116490000000  0.5745450000000  0.4316390000000 1.0
C      1  0.4790060000000  0.4344640000000  0.4495160000000 1.0
C      1  0.4626950000000  0.4736430000000  0.4177560000000 1.0
C      1  0.4377630000000  0.5092410000000  0.4497070000000 1.0
C      1  0.4088520000000  0.4937500000000  0.5235640000000 1.0
C      1  0.4936370000000  0.5277590000000  0.4385420000000 1.0
C      1  0.5011280000000  0.4445850000000  0.4656700000000 1.0
END
