TITL C-884137-4758-304 3.94182425210532 125000 -10906.5910953945 0 0 75 (C1) n - 1
REM
REM in /home/nfs/bkarasulu/CARBON/AIRSS/Generating-Clusters/ReaxFF-fromJPCA2015/Units_Real/with-SteepDescent/Only-C1/SD-CG/Try1-3A/FIRE-CG
REM
REM
REM
REM
REM
REM ./C.cell (11c1c37f851c82e70ff6c80c92926a4b)
REM
REM compiler GCC version 9.2.1 20190827 (Red Hat 9.2.1-1)
REM options -cpp -mtune=generic -march=x86-64 -g -O0 -fpre-include=/usr/include/finclude/math-vector-fortran.h
REM seed 1107149360 -1250906094 1628861078 -976211253 100076061 -754952559 -1543252259 1019601847 -1537470946 458958323 2118425814 -483791627 578590221 872850402 222617154 -2065605572 1775064232 -992565364 -1644474024 1069867920 1340073885 279448934 1532502068 601265672 -1684777977 1291119715 516168767 -867076540 -1026504694 1481444673 208138807 -962910045 -1291427484
REM
CELL 1.54180   50.00000   50.00000   50.00000   90.00000   90.00000   90.00000
LATT -1
SFAC C  
C      1  0.5143880000000  0.5716650000000  0.4927310000000 1.0
C      1  0.4363960000000  0.5288430000000  0.4540710000000 1.0
C      1  0.5602360000000  0.4848350000000  0.5362760000000 1.0
C      1  0.4307370000000  0.4455960000000  0.5044200000000 1.0
C      1  0.4425470000000  0.4972060000000  0.4641780000000 1.0
C      1  0.5720200000000  0.5042140000000  0.4713130000000 1.0
C      1  0.5016740000000  0.4325970000000  0.4830720000000 1.0
C      1  0.5267410000000  0.5499910000000  0.4371960000000 1.0
C      1  0.5685420000000  0.5364190000000  0.5132230000000 1.0
C      1  0.5393250000000  0.4394780000000  0.5366450000000 1.0
C      1  0.5502840000000  0.4992220000000  0.4920130000000 1.0
C      1  0.5226630000000  0.5294340000000  0.5176410000000 1.0
C      1  0.5479500000000  0.4624710000000  0.5216680000000 1.0
C      1  0.5271870000000  0.4471620000000  0.4761830000000 1.0
C      1  0.4434910000000  0.4431150000000  0.4546070000000 1.0
C      1  0.4759180000000  0.5419500000000  0.5475630000000 1.0
C      1  0.5050010000000  0.5482570000000  0.5051700000000 1.0
C      1  0.5244270000000  0.4804880000000  0.4346580000000 1.0
C      1  0.4784490000000  0.5148730000000  0.5355350000000 1.0
C      1  0.5116470000000  0.5158910000000  0.4711190000000 1.0
C      1  0.4501570000000  0.5271240000000  0.5050570000000 1.0
C      1  0.4315420000000  0.4397070000000  0.4773240000000 1.0
C      1  0.4817630000000  0.4682040000000  0.5168510000000 1.0
C      1  0.5025830000000  0.4786300000000  0.4990220000000 1.0
C      1  0.5514170000000  0.5413360000000  0.5643390000000 1.0
C      1  0.5178060000000  0.4206990000000  0.5301720000000 1.0
C      1  0.4950310000000  0.4225510000000  0.5125100000000 1.0
C      1  0.5406060000000  0.5665630000000  0.4548880000000 1.0
C      1  0.4713270000000  0.4299840000000  0.5278910000000 1.0
C      1  0.5629940000000  0.5496930000000  0.4858640000000 1.0
C      1  0.4697660000000  0.5659700000000  0.5322970000000 1.0
C      1  0.5670590000000  0.5312950000000  0.4624970000000 1.0
C      1  0.5149150000000  0.4404710000000  0.5493860000000 1.0
C      1  0.4675940000000  0.4528210000000  0.4436790000000 1.0
C      1  0.4995510000000  0.5391120000000  0.4467730000000 1.0
C      1  0.4971170000000  0.5393570000000  0.5678920000000 1.0
C      1  0.4601420000000  0.4452370000000  0.5062410000000 1.0
C      1  0.4835970000000  0.4412400000000  0.4645200000000 1.0
C      1  0.4457620000000  0.4679170000000  0.5531220000000 1.0
C      1  0.4955730000000  0.4618200000000  0.5471490000000 1.0
C      1  0.4750340000000  0.4973620000000  0.5804610000000 1.0
C      1  0.5302710000000  0.5194670000000  0.4923760000000 1.0
C      1  0.4640420000000  0.4914900000000  0.5180890000000 1.0
C      1  0.4325160000000  0.5187010000000  0.5253430000000 1.0
C      1  0.5324260000000  0.4692760000000  0.4968390000000 1.0
C      1  0.4985460000000  0.5110570000000  0.5774380000000 1.0
C      1  0.4195180000000  0.4732760000000  0.5066470000000 1.0
C      1  0.4194620000000  0.4863940000000  0.4807630000000 1.0
C      1  0.5313440000000  0.4541840000000  0.4480440000000 1.0
C      1  0.4743330000000  0.5499810000000  0.5080270000000 1.0
C      1  0.4737610000000  0.4961910000000  0.4265530000000 1.0
C      1  0.4686000000000  0.4496880000000  0.5511310000000 1.0
C      1  0.4353670000000  0.4866450000000  0.5294950000000 1.0
C      1  0.5809680000000  0.4788160000000  0.4567960000000 1.0
C      1  0.5580090000000  0.4612730000000  0.4519000000000 1.0
C      1  0.4918960000000  0.4983510000000  0.4835180000000 1.0
C      1  0.4576800000000  0.4809370000000  0.4435810000000 1.0
C      1  0.5385260000000  0.5487330000000  0.5389810000000 1.0
C      1  0.5014690000000  0.4928110000000  0.4207900000000 1.0
C      1  0.5440610000000  0.4892020000000  0.5607810000000 1.0
C      1  0.5542010000000  0.5139460000000  0.5648770000000 1.0
C      1  0.4898680000000  0.5187940000000  0.4272630000000 1.0
C      1  0.5301800000000  0.5052420000000  0.4486240000000 1.0
C      1  0.4570470000000  0.4816530000000  0.5741230000000 1.0
C      1  0.4701940000000  0.5776990000000  0.5059500000000 1.0
C      1  0.4563410000000  0.5464800000000  0.4569860000000 1.0
C      1  0.5062470000000  0.5076790000000  0.5354080000000 1.0
C      1  0.5126190000000  0.4900970000000  0.5581680000000 1.0
C      1  0.5224300000000  0.5529120000000  0.5620780000000 1.0
C      1  0.5664620000000  0.5069330000000  0.5169100000000 1.0
C      1  0.5467760000000  0.5283360000000  0.4405700000000 1.0
C      1  0.4635700000000  0.5038540000000  0.4903920000000 1.0
C      1  0.4874840000000  0.5775980000000  0.4824800000000 1.0
C      1  0.5426990000000  0.5719560000000  0.4822790000000 1.0
C      1  0.4801310000000  0.5595510000000  0.4595870000000 1.0
END
