TITL C-883739-1268-310 26.6235145981178 125000 -25890.5637461858 0 0 173 (C1) n - 1
REM
REM in /home/nfs/bkarasulu/CARBON/AIRSS/Generating-Clusters/ReaxFF-fromJPCA2015/Units_Real/with-SteepDescent/Only-C1/SD-CG/Try1-3A/FIRE-CG
REM
REM
REM
REM
REM
REM ./C.cell (11c1c37f851c82e70ff6c80c92926a4b)
REM
REM compiler GCC version 9.2.1 20190827 (Red Hat 9.2.1-1)
REM options -cpp -mtune=generic -march=x86-64 -g -O0 -fpre-include=/usr/include/finclude/math-vector-fortran.h
REM seed -1698515210 -1594680426 -1612078676 506553199 -1525299017 502571002 1684266054 785290904 -1794316785 508237619 1311296358 217801418 -343402252 1337510224 -2032803001 993102268 -1205958014 281378583 2108860824 364847859 1294228731 -2077328477 232473419 1445522383 782469767 -1388686016 878058550 -1446862802 1132200313 -1839948880 423611836 679849748 -1095769377
REM
CELL 1.54180   50.00000   50.00000   50.00000   90.00000   90.00000   90.00000
LATT -1
SFAC C  
C      1  0.5738030000000  0.5959320000000  0.4812270000000 1.0
C      1  0.4625350000000  0.5269770000000  0.6053460000000 1.0
C      1  0.4406370000000  0.5569030000000  0.5845730000000 1.0
C      1  0.4953720000000  0.5149670000000  0.3820070000000 1.0
C      1  0.5889310000000  0.4367630000000  0.4883360000000 1.0
C      1  0.4381600000000  0.5056040000000  0.4029200000000 1.0
C      1  0.4091280000000  0.5865740000000  0.4676560000000 1.0
C      1  0.4766800000000  0.5406780000000  0.4167950000000 1.0
C      1  0.3909500000000  0.5281920000000  0.5158250000000 1.0
C      1  0.5312880000000  0.5976400000000  0.4597970000000 1.0
C      1  0.4908750000000  0.5209870000000  0.4320000000000 1.0
C      1  0.4890640000000  0.6049820000000  0.4637840000000 1.0
C      1  0.5766660000000  0.5490450000000  0.5581940000000 1.0
C      1  0.5474760000000  0.4399510000000  0.5744870000000 1.0
C      1  0.4815370000000  0.5649980000000  0.5464110000000 1.0
C      1  0.6021410000000  0.4604600000000  0.4969260000000 1.0
C      1  0.5450670000000  0.5039070000000  0.4551990000000 1.0
C      1  0.5716730000000  0.5190440000000  0.5678670000000 1.0
C      1  0.5005820000000  0.6131000000000  0.4899110000000 1.0
C      1  0.5285190000000  0.4843640000000  0.3986220000000 1.0
C      1  0.4109890000000  0.4523060000000  0.4494290000000 1.0
C      1  0.4610770000000  0.5857370000000  0.5488550000000 1.0
C      1  0.4455020000000  0.4782900000000  0.5172160000000 1.0
C      1  0.4639610000000  0.4312600000000  0.4508770000000 1.0
C      1  0.5335860000000  0.4392100000000  0.5284850000000 1.0
C      1  0.4919840000000  0.4798930000000  0.5185490000000 1.0
C      1  0.5312780000000  0.4786200000000  0.4487040000000 1.0
C      1  0.5040590000000  0.4015380000000  0.5120930000000 1.0
C      1  0.4515250000000  0.4870660000000  0.4720370000000 1.0
C      1  0.4145140000000  0.5665930000000  0.5416590000000 1.0
C      1  0.4142780000000  0.5048070000000  0.4907530000000 1.0
C      1  0.5387870000000  0.4778750000000  0.6014170000000 1.0
C      1  0.4896940000000  0.4163550000000  0.4451660000000 1.0
C      1  0.4819790000000  0.4894200000000  0.3882660000000 1.0
C      1  0.4562040000000  0.4995900000000  0.4467970000000 1.0
C      1  0.5080150000000  0.5976450000000  0.4420800000000 1.0
C      1  0.4934080000000  0.5535000000000  0.6010580000000 1.0
C      1  0.4268180000000  0.5324300000000  0.5858490000000 1.0
C      1  0.4441090000000  0.3945870000000  0.5293900000000 1.0
C      1  0.4254090000000  0.4527700000000  0.4274670000000 1.0
C      1  0.5646000000000  0.5567870000000  0.4527410000000 1.0
C      1  0.5486070000000  0.3836100000000  0.4900390000000 1.0
C      1  0.5361500000000  0.4254810000000  0.4249510000000 1.0
C      1  0.4293240000000  0.5479970000000  0.4918630000000 1.0
C      1  0.5366150000000  0.4202800000000  0.5536710000000 1.0
C      1  0.5099730000000  0.5666200000000  0.4941700000000 1.0
C      1  0.5915080000000  0.5011600000000  0.4336600000000 1.0
C      1  0.3953770000000  0.4985980000000  0.5123660000000 1.0
C      1  0.4993580000000  0.4456610000000  0.6026580000000 1.0
C      1  0.4884720000000  0.3932130000000  0.4867420000000 1.0
C      1  0.4536780000000  0.4835200000000  0.3944630000000 1.0
C      1  0.5176900000000  0.4911740000000  0.5854190000000 1.0
C      1  0.4836240000000  0.4533580000000  0.5642160000000 1.0
C      1  0.5682320000000  0.4835800000000  0.5979710000000 1.0
C      1  0.5806740000000  0.5506620000000  0.4780740000000 1.0
C      1  0.5073130000000  0.5774450000000  0.5557390000000 1.0
C      1  0.4848730000000  0.4639730000000  0.4738930000000 1.0
C      1  0.4890350000000  0.5058150000000  0.5046250000000 1.0
C      1  0.4897760000000  0.5427650000000  0.3912480000000 1.0
C      1  0.4659390000000  0.4451080000000  0.4251160000000 1.0
C      1  0.5072620000000  0.3966500000000  0.5898520000000 1.0
C      1  0.5135100000000  0.5068440000000  0.4889570000000 1.0
C      1  0.4669300000000  0.5055060000000  0.5871240000000 1.0
C      1  0.4027960000000  0.4730660000000  0.5250630000000 1.0
C      1  0.5535020000000  0.5663960000000  0.5200190000000 1.0
C      1  0.4154830000000  0.4666810000000  0.5527260000000 1.0
C      1  0.4974520000000  0.4172850000000  0.6100620000000 1.0
C      1  0.4412420000000  0.5493120000000  0.4599960000000 1.0
C      1  0.5807870000000  0.4231770000000  0.5432750000000 1.0
C      1  0.5883530000000  0.4609180000000  0.4481160000000 1.0
C      1  0.3968340000000  0.5755150000000  0.4924760000000 1.0
C      1  0.5284680000000  0.3880790000000  0.5068480000000 1.0
C      1  0.4625010000000  0.5904400000000  0.4716050000000 1.0
C      1  0.5947160000000  0.5273090000000  0.4851000000000 1.0
C      1  0.4742400000000  0.4304370000000  0.5476220000000 1.0
C      1  0.5479670000000  0.4740590000000  0.4192990000000 1.0
C      1  0.4614260000000  0.4469760000000  0.4755620000000 1.0
C      1  0.5238650000000  0.5106130000000  0.3863690000000 1.0
C      1  0.4894170000000  0.4039770000000  0.5427410000000 1.0
C      1  0.4250430000000  0.5715850000000  0.4504970000000 1.0
C      1  0.5305420000000  0.4989820000000  0.5305840000000 1.0
C      1  0.5522610000000  0.4753450000000  0.4935120000000 1.0
C      1  0.5814320000000  0.5529720000000  0.4242910000000 1.0
C      1  0.5344070000000  0.4066870000000  0.4676870000000 1.0
C      1  0.4781410000000  0.5160120000000  0.5606380000000 1.0
C      1  0.5545990000000  0.5064470000000  0.5521960000000 1.0
C      1  0.4601670000000  0.3909160000000  0.4908210000000 1.0
C      1  0.5586850000000  0.5860050000000  0.4571060000000 1.0
C      1  0.4289320000000  0.5230190000000  0.4155980000000 1.0
C      1  0.5355300000000  0.5436000000000  0.5182010000000 1.0
C      1  0.4121660000000  0.5819270000000  0.5167540000000 1.0
C      1  0.4359540000000  0.5720630000000  0.5081000000000 1.0
C      1  0.5455900000000  0.5876160000000  0.5389920000000 1.0
C      1  0.5160970000000  0.5252790000000  0.5288830000000 1.0
C      1  0.5992220000000  0.5007180000000  0.5269820000000 1.0
C      1  0.6021590000000  0.5257450000000  0.5146840000000 1.0
C      1  0.5131120000000  0.5609740000000  0.3970030000000 1.0
C      1  0.5049380000000  0.5258730000000  0.5560600000000 1.0
C      1  0.5320220000000  0.5486900000000  0.4904790000000 1.0
C      1  0.5490580000000  0.4482890000000  0.4203890000000 1.0
C      1  0.5195580000000  0.5466470000000  0.5939140000000 1.0
C      1  0.4632240000000  0.5077150000000  0.4899760000000 1.0
C      1  0.5037790000000  0.3996380000000  0.4635320000000 1.0
C      1  0.5554510000000  0.4523920000000  0.5164360000000 1.0
C      1  0.4946820000000  0.4539940000000  0.4214570000000 1.0
C      1  0.5169680000000  0.5972650000000  0.5373750000000 1.0
C      1  0.5161240000000  0.5757110000000  0.4233550000000 1.0
C      1  0.5870600000000  0.5260570000000  0.4251610000000 1.0
C      1  0.4832310000000  0.5547090000000  0.4956470000000 1.0
C      1  0.5294040000000  0.4512610000000  0.5943670000000 1.0
C      1  0.5102540000000  0.4805940000000  0.5388740000000 1.0
C      1  0.4050060000000  0.4601420000000  0.4754610000000 1.0
C      1  0.5001320000000  0.4750370000000  0.4481190000000 1.0
C      1  0.4353980000000  0.5950460000000  0.4589670000000 1.0
C      1  0.5339830000000  0.4937440000000  0.5033420000000 1.0
C      1  0.5382730000000  0.5354860000000  0.4507750000000 1.0
C      1  0.5853400000000  0.4908410000000  0.5756010000000 1.0
C      1  0.4190770000000  0.5140450000000  0.5484370000000 1.0
C      1  0.5550150000000  0.5706000000000  0.5614460000000 1.0
C      1  0.5171400000000  0.5526040000000  0.4403700000000 1.0
C      1  0.4833460000000  0.4974620000000  0.4412590000000 1.0
C      1  0.5939560000000  0.5023390000000  0.4670660000000 1.0
C      1  0.4649120000000  0.5220130000000  0.5359760000000 1.0
C      1  0.5640250000000  0.4015530000000  0.5502620000000 1.0
C      1  0.4659730000000  0.5551780000000  0.6050140000000 1.0
C      1  0.4458750000000  0.4580800000000  0.4090650000000 1.0
C      1  0.5753420000000  0.4316550000000  0.5135030000000 1.0
C      1  0.5876640000000  0.4700940000000  0.5538590000000 1.0
C      1  0.5739940000000  0.5713650000000  0.4986480000000 1.0
C      1  0.4684280000000  0.6007960000000  0.5240310000000 1.0
C      1  0.4383480000000  0.5203120000000  0.4958000000000 1.0
C      1  0.4370210000000  0.5731830000000  0.5598090000000 1.0
C      1  0.4393100000000  0.5233270000000  0.4407450000000 1.0
C      1  0.5125470000000  0.4028190000000  0.5618740000000 1.0
C      1  0.5203570000000  0.5302860000000  0.4736840000000 1.0
C      1  0.4429080000000  0.5019450000000  0.5330990000000 1.0
C      1  0.6031750000000  0.4726860000000  0.4708210000000 1.0
C      1  0.5289150000000  0.5667080000000  0.5733920000000 1.0
C      1  0.5028750000000  0.4724760000000  0.3984540000000 1.0
C      1  0.5140350000000  0.4340060000000  0.5061470000000 1.0
C      1  0.4051220000000  0.5380780000000  0.5395290000000 1.0
C      1  0.4137490000000  0.4542410000000  0.5039580000000 1.0
C      1  0.4753240000000  0.5471320000000  0.5235020000000 1.0
C      1  0.5991190000000  0.4748490000000  0.5264830000000 1.0
C      1  0.4692510000000  0.5578610000000  0.4692990000000 1.0
C      1  0.5326060000000  0.5395550000000  0.3907480000000 1.0
C      1  0.4430030000000  0.4557150000000  0.5006460000000 1.0
C      1  0.5735970000000  0.4456850000000  0.5621250000000 1.0
C      1  0.4962860000000  0.6076320000000  0.5187040000000 1.0
C      1  0.4217180000000  0.4843500000000  0.4724280000000 1.0
C      1  0.5211280000000  0.5929090000000  0.4875990000000 1.0
C      1  0.5049980000000  0.4739690000000  0.5639150000000 1.0
C      1  0.5646930000000  0.4984730000000  0.4750010000000 1.0
C      1  0.4732690000000  0.4554880000000  0.5914210000000 1.0
C      1  0.4662210000000  0.3817500000000  0.5425040000000 1.0
C      1  0.5298000000000  0.4334540000000  0.4803660000000 1.0
C      1  0.4392040000000  0.3899810000000  0.5001960000000 1.0
C      1  0.5197010000000  0.5196120000000  0.5805860000000 1.0
C      1  0.4542750000000  0.4782660000000  0.5894800000000 1.0
C      1  0.5906470000000  0.5407290000000  0.5362500000000 1.0
C      1  0.4163360000000  0.5072780000000  0.5772690000000 1.0
C      1  0.5437680000000  0.4570300000000  0.4701210000000 1.0
C      1  0.4473380000000  0.4248210000000  0.5413270000000 1.0
C      1  0.5538420000000  0.4183900000000  0.4477820000000 1.0
C      1  0.3983270000000  0.5467370000000  0.4941540000000 1.0
C      1  0.4546840000000  0.5909110000000  0.5011590000000 1.0
C      1  0.5713680000000  0.4397440000000  0.4612550000000 1.0
C      1  0.4268680000000  0.4441320000000  0.5431960000000 1.0
C      1  0.5778330000000  0.4767670000000  0.4258220000000 1.0
C      1  0.4938250000000  0.4577400000000  0.5009020000000 1.0
C      1  0.4889190000000  0.5465780000000  0.4437410000000 1.0
C      1  0.5071580000000  0.4288100000000  0.4264800000000 1.0
C      1  0.4280270000000  0.4801690000000  0.5770070000000 1.0
END
