TITL C-884128-4793-28 -649689.306274773 125000 -8022.94538543902 0 0 55 (C1) n - 1
REM
REM in /home/nfs/bkarasulu/CARBON/AIRSS/Generating-Clusters/ReaxFF-fromJPCA2015/Units_Real/with-SteepDescent/Only-C1/SD-CG/Try1-3A/FIRE-CG
REM
REM
REM
REM
REM
REM ./C.cell (11c1c37f851c82e70ff6c80c92926a4b)
REM
REM compiler GCC version 9.2.1 20190827 (Red Hat 9.2.1-1)
REM options -cpp -mtune=generic -march=x86-64 -g -O0 -fpre-include=/usr/include/finclude/math-vector-fortran.h
REM seed -1194495307 1591431170 299002830 885987349 1205630691 556309949 -1712145113 -167851182 1152701262 1243061887 1484435060 1265293127 -758936612 208791 1572648388 1764232886 -2095315264 1297253639 1924311319 2128987150 106414657 -282867478 546602531 -1173144406 933046906 -195375513 1742878598 1018264456 1698586748 -149420827 1560368526 -1239822437 -1303195213
REM
CELL 1.54180   50.00000   50.00000   50.00000   90.00000   90.00000   90.00000
LATT -1
SFAC C  
C      1  0.4768490000000  0.5205740000000  0.4666240000000 1.0
C      1  0.5465010000000  0.5323940000000  0.5451120000000 1.0
C      1  0.5185310000000  0.5669140000000  0.4853180000000 1.0
C      1  0.4939860000000  0.4714640000000  0.5532000000000 1.0
C      1  0.4736800000000  0.4429290000000  0.4540340000000 1.0
C      1  0.4899200000000  0.4796730000000  0.4210260000000 1.0
C      1  0.4775050000000  0.4877170000000  0.5003980000000 1.0
C      1  0.5658530000000  0.4778100000000  0.4698600000000 1.0
C      1  0.5464320000000  0.4665040000000  0.4504050000000 1.0
C      1  0.4981580000000  0.5232640000000  0.5574070000000 1.0
C      1  0.5432270000000  0.5369330000000  0.4702170000000 1.0
C      1  0.4305990000000  0.5156980000000  0.5144930000000 1.0
C      1  0.4475560000000  0.4545760000000  0.4918300000000 1.0
C      1  0.5176690000000  0.5389900000000  0.4827930000000 1.0
C      1  0.4501800000000  0.5243390000000  0.5328410000000 1.0
C      1  0.5193390000000  0.4476750000000  0.4845300000000 1.0
C      1  0.5158320000000  0.4570310000000  0.5401210000000 1.0
C      1  0.4561110000000  0.4726580000000  0.5157680000000 1.0
C      1  0.5125400000000  0.5214910000000  0.5045560000000 1.0
C      1  0.5112110000000  0.5130400000000  0.4369870000000 1.0
C      1  0.5198750000000  0.4564570000000  0.4570970000000 1.0
C      1  0.5316320000000  0.4698440000000  0.4997730000000 1.0
C      1  0.5604290000000  0.4743140000000  0.4987740000000 1.0
C      1  0.4921230000000  0.5782360000000  0.4927010000000 1.0
C      1  0.4688360000000  0.4615160000000  0.5422280000000 1.0
C      1  0.5339330000000  0.4906820000000  0.5635910000000 1.0
C      1  0.4369680000000  0.5240540000000  0.4858480000000 1.0
C      1  0.5556340000000  0.4942140000000  0.4478870000000 1.0
C      1  0.5196190000000  0.4943340000000  0.5098070000000 1.0
C      1  0.4921680000000  0.4686270000000  0.4512370000000 1.0
C      1  0.5052530000000  0.5645300000000  0.5355700000000 1.0
C      1  0.5060910000000  0.4964420000000  0.5637890000000 1.0
C      1  0.4772080000000  0.5571770000000  0.5309940000000 1.0
C      1  0.4943110000000  0.5028410000000  0.5143570000000 1.0
C      1  0.4974470000000  0.4343050000000  0.4983480000000 1.0
C      1  0.5138420000000  0.5793380000000  0.5119240000000 1.0
C      1  0.5187990000000  0.5417420000000  0.5489730000000 1.0
C      1  0.4285760000000  0.4866830000000  0.5097400000000 1.0
C      1  0.5032320000000  0.4359110000000  0.5255220000000 1.0
C      1  0.4579240000000  0.5120490000000  0.4462780000000 1.0
C      1  0.5600830000000  0.4878860000000  0.5246650000000 1.0
C      1  0.5415140000000  0.4729240000000  0.5435960000000 1.0
C      1  0.5604330000000  0.5189500000000  0.5204670000000 1.0
C      1  0.4840980000000  0.5075780000000  0.4273980000000 1.0
C      1  0.4701170000000  0.4382770000000  0.4821630000000 1.0
C      1  0.4827080000000  0.4922840000000  0.4726910000000 1.0
C      1  0.5551660000000  0.5284870000000  0.4943130000000 1.0
C      1  0.4376730000000  0.5027620000000  0.4656740000000 1.0
C      1  0.4798730000000  0.4374260000000  0.5342950000000 1.0
C      1  0.4609560000000  0.5397510000000  0.4839700000000 1.0
C      1  0.4706700000000  0.5607310000000  0.5022220000000 1.0
C      1  0.4707340000000  0.5337950000000  0.5487400000000 1.0
C      1  0.5370190000000  0.5172220000000  0.4465700000000 1.0
C      1  0.4323190000000  0.4780060000000  0.4823260000000 1.0
C      1  0.5510590000000  0.5089480000000  0.5589560000000 1.0
END
