TITL C-883726-8501-93 6.56817145986716 125000 -7874.84250329068 0 0 54 (C1) n - 1
REM
REM in /home/nfs/bkarasulu/CARBON/AIRSS/Generating-Clusters/ReaxFF-fromJPCA2015/Units_Real/with-SteepDescent/Only-C1/SD-CG/Try1-3A/FIRE-CG
REM
REM
REM
REM
REM
REM ./C.cell (11c1c37f851c82e70ff6c80c92926a4b)
REM
REM compiler GCC version 9.2.1 20190827 (Red Hat 9.2.1-1)
REM options -cpp -mtune=generic -march=x86-64 -g -O0 -fpre-include=/usr/include/finclude/math-vector-fortran.h
REM seed 162316646 -1390292550 -1545265724 847317714 -1331558122 -804917581 -631775703 1132234728 779296623 -1622573691 -1530807883 830802629 925791941 818694575 16095746 1624720900 -1674044599 -1287053534 1648084292 -865918481 133442098 527032485 1806471985 -1649312091 -1868120750 367206836 253427489 604630847 641862495 502677200 1876342905 -276849656 -317495406
REM
CELL 1.54180   50.00000   50.00000   50.00000   90.00000   90.00000   90.00000
LATT -1
SFAC C  
C      1  0.5359490000000  0.5568090000000  0.4690360000000 1.0
C      1  0.5083320000000  0.5694200000000  0.5081850000000 1.0
C      1  0.4193180000000  0.4967500000000  0.5184730000000 1.0
C      1  0.4316910000000  0.4973400000000  0.4741430000000 1.0
C      1  0.5286900000000  0.5396710000000  0.4475610000000 1.0
C      1  0.4504400000000  0.4507630000000  0.5225550000000 1.0
C      1  0.4167760000000  0.5124760000000  0.4943550000000 1.0
C      1  0.4759590000000  0.5457430000000  0.4522570000000 1.0
C      1  0.5401490000000  0.5038330000000  0.5500420000000 1.0
C      1  0.4568880000000  0.4993730000000  0.5436840000000 1.0
C      1  0.4811260000000  0.4349380000000  0.4875830000000 1.0
C      1  0.5261400000000  0.4632960000000  0.4495210000000 1.0
C      1  0.5356630000000  0.5690990000000  0.4941520000000 1.0
C      1  0.5604970000000  0.4636040000000  0.4886550000000 1.0
C      1  0.5628720000000  0.5309700000000  0.5169300000000 1.0
C      1  0.4524060000000  0.4381000000000  0.4962010000000 1.0
C      1  0.5517200000000  0.5142110000000  0.4953470000000 1.0
C      1  0.4520130000000  0.5267740000000  0.5343290000000 1.0
C      1  0.5577560000000  0.4905450000000  0.4771840000000 1.0
C      1  0.4811080000000  0.4921970000000  0.5548800000000 1.0
C      1  0.5320800000000  0.4754580000000  0.5551540000000 1.0
C      1  0.5190670000000  0.5170210000000  0.5335710000000 1.0
C      1  0.4979200000000  0.5120790000000  0.4376850000000 1.0
C      1  0.5151230000000  0.4530960000000  0.4763550000000 1.0
C      1  0.4970460000000  0.4302930000000  0.5131070000000 1.0
C      1  0.4784120000000  0.4463930000000  0.5289160000000 1.0
C      1  0.4641420000000  0.4579390000000  0.4791580000000 1.0
C      1  0.4569710000000  0.4861290000000  0.4888470000000 1.0
C      1  0.5210270000000  0.5605640000000  0.5328750000000 1.0
C      1  0.4757990000000  0.5436390000000  0.5300000000000 1.0
C      1  0.4761980000000  0.5094940000000  0.4862720000000 1.0
C      1  0.5023540000000  0.5395560000000  0.5422440000000 1.0
C      1  0.5051560000000  0.4740940000000  0.4950080000000 1.0
C      1  0.5054180000000  0.5023890000000  0.4837770000000 1.0
C      1  0.5247290000000  0.5155720000000  0.5046510000000 1.0
C      1  0.5395320000000  0.4890850000000  0.4529360000000 1.0
C      1  0.4756500000000  0.5234050000000  0.4320730000000 1.0
C      1  0.5406290000000  0.4510550000000  0.5397230000000 1.0
C      1  0.5744630000000  0.4854480000000  0.5371810000000 1.0
C      1  0.4364500000000  0.5031890000000  0.4479840000000 1.0
C      1  0.5388530000000  0.4430930000000  0.4926150000000 1.0
C      1  0.5029190000000  0.5524150000000  0.4461390000000 1.0
C      1  0.5258660000000  0.4368410000000  0.5175690000000 1.0
C      1  0.5667880000000  0.5121170000000  0.5400640000000 1.0
C      1  0.5028470000000  0.4770600000000  0.5511500000000 1.0
C      1  0.5658400000000  0.4623990000000  0.5366580000000 1.0
C      1  0.5469360000000  0.5556020000000  0.5191300000000 1.0
C      1  0.4265960000000  0.5249270000000  0.5196000000000 1.0
C      1  0.4826130000000  0.5553540000000  0.5039830000000 1.0
C      1  0.4475320000000  0.5089130000000  0.4230850000000 1.0
C      1  0.4930160000000  0.4714130000000  0.5216030000000 1.0
C      1  0.4730960000000  0.5379940000000  0.4819130000000 1.0
C      1  0.4444580000000  0.4801670000000  0.5214390000000 1.0
C      1  0.5189790000000  0.5098950000000  0.4524600000000 1.0
END
