TITL C-884134-5972-65 35.1892427734973 125000 -27750.818610408 0 0 187 (C1) n - 1
REM
REM in /home/nfs/bkarasulu/CARBON/AIRSS/Generating-Clusters/ReaxFF-fromJPCA2015/Units_Real/with-SteepDescent/Only-C1/SD-CG/Try1-3A/FIRE-CG
REM
REM
REM
REM
REM
REM ./C.cell (11c1c37f851c82e70ff6c80c92926a4b)
REM
REM compiler GCC version 9.2.1 20190827 (Red Hat 9.2.1-1)
REM options -cpp -mtune=generic -march=x86-64 -g -O0 -fpre-include=/usr/include/finclude/math-vector-fortran.h
REM seed -963491563 1140826140 -69810754 955732942 -1008029826 -574012031 -1992164983 -1567958559 -694081027 1064305904 1650928457 234355044 -727734574 2094397450 -5025030 336071839 -78726627 1317466296 1313050540 -3367077 1452499363 1927620947 -1605090133 1559923002 601109296 -487972057 1928138396 -1381015100 -1128337659 -2120623913 204513707 779067495 -2025378530
REM
CELL 1.54180   50.00000   50.00000   50.00000   90.00000   90.00000   90.00000
LATT -1
SFAC C  
C      1  0.4974110000000  0.5778830000000  0.4333030000000 1.0
C      1  0.4322640000000  0.5751190000000  0.5427980000000 1.0
C      1  0.5371050000000  0.4913220000000  0.3893090000000 1.0
C      1  0.5564380000000  0.5048430000000  0.4799230000000 1.0
C      1  0.4710170000000  0.4597280000000  0.4958810000000 1.0
C      1  0.4140940000000  0.4291890000000  0.5302840000000 1.0
C      1  0.5954290000000  0.5538910000000  0.4703510000000 1.0
C      1  0.4303510000000  0.5082110000000  0.4523170000000 1.0
C      1  0.4490160000000  0.4160220000000  0.4821640000000 1.0
C      1  0.5589990000000  0.4045300000000  0.4477290000000 1.0
C      1  0.5096430000000  0.4873580000000  0.4189140000000 1.0
C      1  0.4002080000000  0.4278270000000  0.5018900000000 1.0
C      1  0.4784140000000  0.4952790000000  0.4628340000000 1.0
C      1  0.5086930000000  0.5324790000000  0.6147080000000 1.0
C      1  0.4268410000000  0.5542800000000  0.5630180000000 1.0
C      1  0.5625360000000  0.4856410000000  0.5208080000000 1.0
C      1  0.4046560000000  0.4498890000000  0.4845700000000 1.0
C      1  0.5614740000000  0.5434330000000  0.5832900000000 1.0
C      1  0.6189990000000  0.5041920000000  0.4521100000000 1.0
C      1  0.4580920000000  0.5541140000000  0.5326750000000 1.0
C      1  0.4757950000000  0.6055590000000  0.5502620000000 1.0
C      1  0.5481970000000  0.4800290000000  0.4954330000000 1.0
C      1  0.5334750000000  0.3897160000000  0.4566990000000 1.0
C      1  0.3995480000000  0.5254840000000  0.4901160000000 1.0
C      1  0.5269470000000  0.6050200000000  0.5215850000000 1.0
C      1  0.4882140000000  0.5651250000000  0.5762180000000 1.0
C      1  0.4164240000000  0.4438230000000  0.4535240000000 1.0
C      1  0.3897880000000  0.4766850000000  0.4548730000000 1.0
C      1  0.5800620000000  0.5541430000000  0.5655210000000 1.0
C      1  0.4875810000000  0.5056350000000  0.4186010000000 1.0
C      1  0.5993210000000  0.4919020000000  0.5491310000000 1.0
C      1  0.4574550000000  0.5261120000000  0.3967170000000 1.0
C      1  0.5087750000000  0.5479520000000  0.3916640000000 1.0
C      1  0.4448760000000  0.5207880000000  0.5911670000000 1.0
C      1  0.6035330000000  0.5209440000000  0.5067290000000 1.0
C      1  0.4185040000000  0.5301880000000  0.5475380000000 1.0
C      1  0.5875390000000  0.5072190000000  0.4791830000000 1.0
C      1  0.5589060000000  0.4960300000000  0.4251310000000 1.0
C      1  0.5441870000000  0.4036190000000  0.5074420000000 1.0
C      1  0.4223620000000  0.5774200000000  0.4642610000000 1.0
C      1  0.4917060000000  0.4291460000000  0.5600220000000 1.0
C      1  0.4500700000000  0.5002520000000  0.4977230000000 1.0
C      1  0.4208800000000  0.5867510000000  0.4916260000000 1.0
C      1  0.4790540000000  0.5470240000000  0.3927220000000 1.0
C      1  0.4950250000000  0.5915320000000  0.5625650000000 1.0
C      1  0.4081030000000  0.4521410000000  0.5459420000000 1.0
C      1  0.4769370000000  0.4628960000000  0.5405620000000 1.0
C      1  0.4896060000000  0.4748730000000  0.5144040000000 1.0
C      1  0.4129070000000  0.4754420000000  0.5645030000000 1.0
C      1  0.4095350000000  0.4706720000000  0.4369330000000 1.0
C      1  0.4441010000000  0.4394280000000  0.4644610000000 1.0
C      1  0.5254160000000  0.3998940000000  0.5456480000000 1.0
C      1  0.6235510000000  0.4988710000000  0.5028210000000 1.0
C      1  0.5774420000000  0.5669780000000  0.5180290000000 1.0
C      1  0.5102300000000  0.5527650000000  0.5934010000000 1.0
C      1  0.4585270000000  0.3931560000000  0.4686130000000 1.0
C      1  0.5346080000000  0.4135390000000  0.6036240000000 1.0
C      1  0.5201390000000  0.5941290000000  0.5491280000000 1.0
C      1  0.5632970000000  0.5170830000000  0.5694960000000 1.0
C      1  0.4512030000000  0.5003500000000  0.4704440000000 1.0
C      1  0.5265550000000  0.5083830000000  0.5409660000000 1.0
C      1  0.5746390000000  0.4133400000000  0.4722730000000 1.0
C      1  0.5344820000000  0.5417900000000  0.4043970000000 1.0
C      1  0.5174340000000  0.3935800000000  0.5182680000000 1.0
C      1  0.5227800000000  0.4663480000000  0.4333330000000 1.0
C      1  0.4824040000000  0.4630590000000  0.4666930000000 1.0
C      1  0.4969170000000  0.5041390000000  0.6156820000000 1.0
C      1  0.5090250000000  0.4315780000000  0.4899610000000 1.0
C      1  0.5932420000000  0.4721570000000  0.5285610000000 1.0
C      1  0.4837410000000  0.4342680000000  0.5050540000000 1.0
C      1  0.5281570000000  0.5411580000000  0.4488280000000 1.0
C      1  0.4055130000000  0.5489380000000  0.5046530000000 1.0
C      1  0.5939110000000  0.5525250000000  0.4989550000000 1.0
C      1  0.4214360000000  0.4148830000000  0.4403000000000 1.0
C      1  0.5155330000000  0.5173820000000  0.4927800000000 1.0
C      1  0.4760890000000  0.4873230000000  0.6047030000000 1.0
C      1  0.4414070000000  0.4746050000000  0.5105190000000 1.0
C      1  0.4664490000000  0.5041910000000  0.5428950000000 1.0
C      1  0.4862740000000  0.3887190000000  0.4784820000000 1.0
C      1  0.4421590000000  0.4176390000000  0.5328370000000 1.0
C      1  0.5452250000000  0.5298410000000  0.5248020000000 1.0
C      1  0.4466820000000  0.4277400000000  0.5571460000000 1.0
C      1  0.5489300000000  0.4164810000000  0.5553420000000 1.0
C      1  0.4526590000000  0.4791390000000  0.5382680000000 1.0
C      1  0.5416140000000  0.5263090000000  0.4957630000000 1.0
C      1  0.4765300000000  0.4397070000000  0.5836120000000 1.0
C      1  0.4964020000000  0.5491060000000  0.5189100000000 1.0
C      1  0.5221470000000  0.5141460000000  0.4495800000000 1.0
C      1  0.4523890000000  0.6156300000000  0.5183430000000 1.0
C      1  0.4131410000000  0.4743300000000  0.4997520000000 1.0
C      1  0.4383980000000  0.5339840000000  0.5258530000000 1.0
C      1  0.5037490000000  0.5075330000000  0.4713260000000 1.0
C      1  0.4685650000000  0.4986130000000  0.3969250000000 1.0
C      1  0.5588430000000  0.4585920000000  0.4599300000000 1.0
C      1  0.5831020000000  0.4765010000000  0.5677430000000 1.0
C      1  0.4482950000000  0.6005260000000  0.5432380000000 1.0
C      1  0.4863520000000  0.5165200000000  0.5605940000000 1.0
C      1  0.5750350000000  0.5665590000000  0.4540570000000 1.0
C      1  0.5112940000000  0.3979740000000  0.5938730000000 1.0
C      1  0.5245260000000  0.4937150000000  0.6135750000000 1.0
C      1  0.4128000000000  0.5535730000000  0.4504960000000 1.0
C      1  0.4781540000000  0.5031390000000  0.5147970000000 1.0
C      1  0.5317870000000  0.4847110000000  0.5841370000000 1.0
C      1  0.4706380000000  0.5583180000000  0.5064750000000 1.0
C      1  0.4106460000000  0.5035540000000  0.5562130000000 1.0
C      1  0.5559110000000  0.5488910000000  0.4398620000000 1.0
C      1  0.5427200000000  0.4488160000000  0.4184970000000 1.0
C      1  0.5732650000000  0.4426440000000  0.4808170000000 1.0
C      1  0.5076310000000  0.4519960000000  0.4709610000000 1.0
C      1  0.4343090000000  0.5241980000000  0.4136260000000 1.0
C      1  0.4469060000000  0.4007410000000  0.4413040000000 1.0
C      1  0.5676400000000  0.3921050000000  0.4919190000000 1.0
C      1  0.5565970000000  0.5945650000000  0.4848850000000 1.0
C      1  0.4686580000000  0.4598000000000  0.4143070000000 1.0
C      1  0.4666150000000  0.5990390000000  0.4733660000000 1.0
C      1  0.4967910000000  0.4696290000000  0.5608470000000 1.0
C      1  0.5237870000000  0.4715660000000  0.5108920000000 1.0
C      1  0.4100710000000  0.5272830000000  0.4623700000000 1.0
C      1  0.5320850000000  0.4549390000000  0.5741160000000 1.0
C      1  0.4838470000000  0.5445260000000  0.5512600000000 1.0
C      1  0.4812880000000  0.6179300000000  0.5241440000000 1.0
C      1  0.5513700000000  0.4256170000000  0.4317290000000 1.0
C      1  0.4962850000000  0.5228830000000  0.5071250000000 1.0
C      1  0.5444950000000  0.5652650000000  0.4189620000000 1.0
C      1  0.5995530000000  0.5258740000000  0.4589620000000 1.0
C      1  0.4649090000000  0.4459790000000  0.4435310000000 1.0
C      1  0.4456990000000  0.6045930000000  0.4921050000000 1.0
C      1  0.5649360000000  0.4330870000000  0.5383420000000 1.0
C      1  0.4317610000000  0.5492530000000  0.4278040000000 1.0
C      1  0.3949130000000  0.4963570000000  0.4971600000000 1.0
C      1  0.5527400000000  0.5969490000000  0.5099040000000 1.0
C      1  0.6126470000000  0.4711180000000  0.5041300000000 1.0
C      1  0.4562110000000  0.5610750000000  0.4389000000000 1.0
C      1  0.5144320000000  0.4478740000000  0.5512690000000 1.0
C      1  0.5236420000000  0.4419560000000  0.5143080000000 1.0
C      1  0.5999450000000  0.4834290000000  0.4643900000000 1.0
C      1  0.4978220000000  0.6001020000000  0.4782410000000 1.0
C      1  0.5121960000000  0.5734280000000  0.4813830000000 1.0
C      1  0.5992550000000  0.4593050000000  0.4811350000000 1.0
C      1  0.5048020000000  0.4329150000000  0.4154960000000 1.0
C      1  0.4418270000000  0.5274750000000  0.4984390000000 1.0
C      1  0.5044710000000  0.5574220000000  0.4557480000000 1.0
C      1  0.4274050000000  0.4927770000000  0.4256910000000 1.0
C      1  0.4644290000000  0.4119100000000  0.5094510000000 1.0
C      1  0.4944030000000  0.4538630000000  0.4004030000000 1.0
C      1  0.4136080000000  0.5722430000000  0.5160860000000 1.0
C      1  0.4882730000000  0.4658120000000  0.5891050000000 1.0
C      1  0.4605070000000  0.5446340000000  0.4842950000000 1.0
C      1  0.5616670000000  0.4908280000000  0.5812160000000 1.0
C      1  0.5126120000000  0.5979330000000  0.4469260000000 1.0
C      1  0.4496460000000  0.4795850000000  0.4084280000000 1.0
C      1  0.5638600000000  0.4665470000000  0.4320560000000 1.0
C      1  0.5355610000000  0.5200620000000  0.6235090000000 1.0
C      1  0.5949170000000  0.5193500000000  0.5364370000000 1.0
C      1  0.5663880000000  0.5151300000000  0.5380230000000 1.0
C      1  0.5384510000000  0.5894640000000  0.4373020000000 1.0
C      1  0.5365260000000  0.4819920000000  0.5347660000000 1.0
C      1  0.4767550000000  0.5151750000000  0.4426530000000 1.0
C      1  0.4974770000000  0.4122320000000  0.4326170000000 1.0
C      1  0.5367800000000  0.5718190000000  0.5543980000000 1.0
C      1  0.4734770000000  0.5427720000000  0.4552180000000 1.0
C      1  0.4430840000000  0.5473480000000  0.5854250000000 1.0
C      1  0.5608020000000  0.5919650000000  0.4576180000000 1.0
C      1  0.5129850000000  0.4772350000000  0.3909670000000 1.0
C      1  0.5352370000000  0.5579910000000  0.5798910000000 1.0
C      1  0.5214080000000  0.5611580000000  0.5058410000000 1.0
C      1  0.5077570000000  0.4020100000000  0.4609750000000 1.0
C      1  0.4930670000000  0.5690890000000  0.4051460000000 1.0
C      1  0.5300560000000  0.4652920000000  0.4617050000000 1.0
C      1  0.5462230000000  0.4305210000000  0.5811870000000 1.0
C      1  0.4471240000000  0.4439320000000  0.5805520000000 1.0
C      1  0.4498280000000  0.5849080000000  0.4542420000000 1.0
C      1  0.5915760000000  0.5536360000000  0.5404090000000 1.0
C      1  0.4905300000000  0.3919080000000  0.5064640000000 1.0
C      1  0.4692800000000  0.4182730000000  0.4316020000000 1.0
C      1  0.5453550000000  0.5611810000000  0.5263610000000 1.0
C      1  0.5833220000000  0.4535570000000  0.5485520000000 1.0
C      1  0.4681190000000  0.5544340000000  0.5885170000000 1.0
C      1  0.5139140000000  0.5063370000000  0.5659200000000 1.0
C      1  0.5483450000000  0.5133060000000  0.4029910000000 1.0
C      1  0.5034900000000  0.4031010000000  0.5650530000000 1.0
C      1  0.4349320000000  0.4706440000000  0.5835810000000 1.0
C      1  0.5527330000000  0.4324180000000  0.5106910000000 1.0
C      1  0.5035450000000  0.6118440000000  0.5062780000000 1.0
C      1  0.3735260000000  0.4861230000000  0.4777140000000 1.0
C      1  0.5493820000000  0.5057620000000  0.4502970000000 1.0
C      1  0.4480500000000  0.4934840000000  0.5969690000000 1.0
END
