TITL C-884131-4643-169 25.1827379903937 125000 -28536.467194171 0 0 191 (C1) n - 1
REM
REM in /home/nfs/bkarasulu/CARBON/AIRSS/Generating-Clusters/ReaxFF-fromJPCA2015/Units_Real/with-SteepDescent/Only-C1/SD-CG/Try1-3A/FIRE-CG
REM
REM
REM
REM
REM
REM ./C.cell (11c1c37f851c82e70ff6c80c92926a4b)
REM
REM compiler GCC version 9.2.1 20190827 (Red Hat 9.2.1-1)
REM options -cpp -mtune=generic -march=x86-64 -g -O0 -fpre-include=/usr/include/finclude/math-vector-fortran.h
REM seed -2080407308 -987430668 910309804 1823516555 -1532110755 -333242053 -1501232612 985721742 1233667995 778803215 -1606751457 -100278934 1433909125 1384548317 -26341487 1371631078 835429981 32409243 -2048110718 384644109 480309468 -837475890 907585691 -695558054 1455556977 1249150073 219949754 -1820584080 1213492307 -1385481704 1843814387 260062906 -1070545406
REM
CELL 1.54180   50.00000   50.00000   50.00000   90.00000   90.00000   90.00000
LATT -1
SFAC C  
C      1  0.5393360000000  0.3958590000000  0.4784710000000 1.0
C      1  0.5943250000000  0.5238700000000  0.5419730000000 1.0
C      1  0.5078190000000  0.5250950000000  0.4624680000000 1.0
C      1  0.5224970000000  0.4691510000000  0.4409060000000 1.0
C      1  0.5228500000000  0.5316170000000  0.5262420000000 1.0
C      1  0.3971470000000  0.5021990000000  0.5387730000000 1.0
C      1  0.3693850000000  0.4617080000000  0.5137710000000 1.0
C      1  0.4189070000000  0.4662570000000  0.4237860000000 1.0
C      1  0.5730910000000  0.5595910000000  0.4335280000000 1.0
C      1  0.5595440000000  0.5463570000000  0.4829830000000 1.0
C      1  0.5251450000000  0.5963990000000  0.5387020000000 1.0
C      1  0.5956910000000  0.4635820000000  0.5141830000000 1.0
C      1  0.3713960000000  0.4811810000000  0.5358070000000 1.0
C      1  0.4880720000000  0.4321510000000  0.4599820000000 1.0
C      1  0.5254790000000  0.5761160000000  0.4249940000000 1.0
C      1  0.4077020000000  0.5656920000000  0.4794190000000 1.0
C      1  0.5567820000000  0.4903810000000  0.5383320000000 1.0
C      1  0.4213050000000  0.5123080000000  0.5832690000000 1.0
C      1  0.5080490000000  0.5965050000000  0.4322190000000 1.0
C      1  0.4837200000000  0.6044240000000  0.4439260000000 1.0
C      1  0.5470800000000  0.4645510000000  0.4009750000000 1.0
C      1  0.4941450000000  0.4022770000000  0.5700630000000 1.0
C      1  0.5152800000000  0.5776910000000  0.5813230000000 1.0
C      1  0.4645610000000  0.4156710000000  0.5698420000000 1.0
C      1  0.4724780000000  0.4816490000000  0.4674940000000 1.0
C      1  0.4903400000000  0.5318910000000  0.5512370000000 1.0
C      1  0.4080600000000  0.4474640000000  0.4427960000000 1.0
C      1  0.4280820000000  0.4287050000000  0.5138340000000 1.0
C      1  0.5092860000000  0.4423180000000  0.5975980000000 1.0
C      1  0.5504210000000  0.4668160000000  0.4951240000000 1.0
C      1  0.5727090000000  0.5950720000000  0.4809750000000 1.0
C      1  0.5393420000000  0.5534470000000  0.4636960000000 1.0
C      1  0.5568120000000  0.4413000000000  0.6092480000000 1.0
C      1  0.3799890000000  0.4673390000000  0.4864090000000 1.0
C      1  0.5155180000000  0.3909790000000  0.4625210000000 1.0
C      1  0.5806710000000  0.5667630000000  0.4758440000000 1.0
C      1  0.5979150000000  0.4767160000000  0.4842180000000 1.0
C      1  0.5333690000000  0.4482090000000  0.6051290000000 1.0
C      1  0.4329810000000  0.5164090000000  0.4425300000000 1.0
C      1  0.5041080000000  0.4023280000000  0.4367470000000 1.0
C      1  0.4875670000000  0.5425370000000  0.4041220000000 1.0
C      1  0.5085850000000  0.5730470000000  0.5284150000000 1.0
C      1  0.6100010000000  0.4999140000000  0.5526090000000 1.0
C      1  0.5425190000000  0.3980280000000  0.4525960000000 1.0
C      1  0.4308890000000  0.4875580000000  0.5705670000000 1.0
C      1  0.5965590000000  0.4851310000000  0.5748680000000 1.0
C      1  0.4628650000000  0.4428710000000  0.4500090000000 1.0
C      1  0.4334700000000  0.4572440000000  0.5197260000000 1.0
C      1  0.4721970000000  0.3889830000000  0.5037780000000 1.0
C      1  0.4473540000000  0.4590990000000  0.5455260000000 1.0
C      1  0.5135240000000  0.5513210000000  0.4719690000000 1.0
C      1  0.4641110000000  0.4815170000000  0.5394270000000 1.0
C      1  0.4144530000000  0.5598400000000  0.5263550000000 1.0
C      1  0.5416010000000  0.4145830000000  0.4992900000000 1.0
C      1  0.4582850000000  0.5977940000000  0.5144470000000 1.0
C      1  0.4610320000000  0.5001710000000  0.4930120000000 1.0
C      1  0.5434480000000  0.4228440000000  0.4370710000000 1.0
C      1  0.6190890000000  0.5177530000000  0.4920990000000 1.0
C      1  0.5130930000000  0.4228630000000  0.5773460000000 1.0
C      1  0.6051440000000  0.5521030000000  0.4721370000000 1.0
C      1  0.5636860000000  0.5152870000000  0.4853100000000 1.0
C      1  0.3978800000000  0.5573470000000  0.5040930000000 1.0
C      1  0.5144000000000  0.4811690000000  0.3823670000000 1.0
C      1  0.5858190000000  0.4860810000000  0.4333130000000 1.0
C      1  0.5619790000000  0.5641930000000  0.5137470000000 1.0
C      1  0.3854560000000  0.4957700000000  0.4917740000000 1.0
C      1  0.4755940000000  0.4522510000000  0.4995020000000 1.0
C      1  0.5233410000000  0.4452830000000  0.5305340000000 1.0
C      1  0.5880390000000  0.4686920000000  0.4586670000000 1.0
C      1  0.4363880000000  0.5650090000000  0.5606890000000 1.0
C      1  0.5192320000000  0.3825620000000  0.5256760000000 1.0
C      1  0.5643170000000  0.4558050000000  0.4689370000000 1.0
C      1  0.5191230000000  0.4232890000000  0.4215850000000 1.0
C      1  0.5937130000000  0.4109620000000  0.5266430000000 1.0
C      1  0.4236480000000  0.4209100000000  0.4427530000000 1.0
C      1  0.4164350000000  0.4983690000000  0.4578040000000 1.0
C      1  0.5413180000000  0.4883900000000  0.3833400000000 1.0
C      1  0.5268390000000  0.5261270000000  0.4374310000000 1.0
C      1  0.4450340000000  0.5249620000000  0.5963210000000 1.0
C      1  0.4087510000000  0.4781480000000  0.5538320000000 1.0
C      1  0.4712000000000  0.4410760000000  0.5508030000000 1.0
C      1  0.5823200000000  0.5674980000000  0.5348190000000 1.0
C      1  0.4756650000000  0.4823990000000  0.6034130000000 1.0
C      1  0.5475570000000  0.5750320000000  0.4462160000000 1.0
C      1  0.5445390000000  0.4495830000000  0.4489060000000 1.0
C      1  0.5183470000000  0.5477190000000  0.4136470000000 1.0
C      1  0.4532380000000  0.4349100000000  0.5952240000000 1.0
C      1  0.5587880000000  0.4242010000000  0.5611160000000 1.0
C      1  0.4890220000000  0.5634060000000  0.4639450000000 1.0
C      1  0.5310660000000  0.4299790000000  0.5547010000000 1.0
C      1  0.5384770000000  0.5826250000000  0.5645560000000 1.0
C      1  0.4311840000000  0.5259810000000  0.4146310000000 1.0
C      1  0.5683190000000  0.5513040000000  0.4062170000000 1.0
C      1  0.4391280000000  0.5546990000000  0.4190820000000 1.0
C      1  0.4062500000000  0.5233240000000  0.5609730000000 1.0
C      1  0.6241930000000  0.5002980000000  0.5137170000000 1.0
C      1  0.5187050000000  0.4516840000000  0.4122380000000 1.0
C      1  0.6027100000000  0.5482450000000  0.5274240000000 1.0
C      1  0.4520780000000  0.5252360000000  0.4846810000000 1.0
C      1  0.5708610000000  0.4718280000000  0.5790440000000 1.0
C      1  0.5654760000000  0.5947460000000  0.5099170000000 1.0
C      1  0.5324090000000  0.5455000000000  0.6072670000000 1.0
C      1  0.5670600000000  0.4705590000000  0.5195590000000 1.0
C      1  0.4680360000000  0.5606050000000  0.4153780000000 1.0
C      1  0.5909420000000  0.5403560000000  0.4455290000000 1.0
C      1  0.4566840000000  0.4588280000000  0.4742400000000 1.0
C      1  0.4309220000000  0.4840520000000  0.4069690000000 1.0
C      1  0.4795030000000  0.5609290000000  0.4903750000000 1.0
C      1  0.5787140000000  0.5235000000000  0.4029760000000 1.0
C      1  0.4895260000000  0.5017390000000  0.5055450000000 1.0
C      1  0.5009170000000  0.3833790000000  0.5009030000000 1.0
C      1  0.4528310000000  0.5968110000000  0.4857510000000 1.0
C      1  0.4479530000000  0.3998180000000  0.5504790000000 1.0
C      1  0.5674290000000  0.4053470000000  0.5401640000000 1.0
C      1  0.6168350000000  0.4804510000000  0.5310000000000 1.0
C      1  0.5080710000000  0.5194710000000  0.5745970000000 1.0
C      1  0.4600680000000  0.4625090000000  0.4265250000000 1.0
C      1  0.4640490000000  0.5260490000000  0.5582780000000 1.0
C      1  0.4915660000000  0.4594250000000  0.5619300000000 1.0
C      1  0.4079120000000  0.5024180000000  0.5096720000000 1.0
C      1  0.5913900000000  0.5049860000000  0.4855400000000 1.0
C      1  0.5349000000000  0.5094250000000  0.5784890000000 1.0
C      1  0.5473970000000  0.5396230000000  0.5284650000000 1.0
C      1  0.5297240000000  0.6104460000000  0.4876050000000 1.0
C      1  0.4336250000000  0.5686230000000  0.4435360000000 1.0
C      1  0.4542370000000  0.5001100000000  0.5559730000000 1.0
C      1  0.5010580000000  0.4472110000000  0.4820680000000 1.0
C      1  0.4702200000000  0.5117640000000  0.6036300000000 1.0
C      1  0.5020060000000  0.5754910000000  0.5009540000000 1.0
C      1  0.4860370000000  0.4766590000000  0.5208840000000 1.0
C      1  0.5521460000000  0.5290090000000  0.5952610000000 1.0
C      1  0.5405850000000  0.6083530000000  0.5139320000000 1.0
C      1  0.4682310000000  0.4855720000000  0.4387600000000 1.0
C      1  0.4020150000000  0.4562600000000  0.4704650000000 1.0
C      1  0.4261800000000  0.4737410000000  0.4748560000000 1.0
C      1  0.5670380000000  0.5181480000000  0.5368620000000 1.0
C      1  0.5692530000000  0.4412620000000  0.5838150000000 1.0
C      1  0.5287140000000  0.4981520000000  0.4343050000000 1.0
C      1  0.5286460000000  0.4412300000000  0.5015830000000 1.0
C      1  0.4111040000000  0.5510290000000  0.5545930000000 1.0
C      1  0.4514800000000  0.4148310000000  0.4406260000000 1.0
C      1  0.4932570000000  0.5880490000000  0.5648840000000 1.0
C      1  0.5073920000000  0.5565270000000  0.6022930000000 1.0
C      1  0.4974800000000  0.6093500000000  0.5454130000000 1.0
C      1  0.4557500000000  0.5281960000000  0.4578560000000 1.0
C      1  0.4496380000000  0.4044460000000  0.5211540000000 1.0
C      1  0.5478840000000  0.5999350000000  0.4678560000000 1.0
C      1  0.4058080000000  0.5370720000000  0.4863750000000 1.0
C      1  0.4899910000000  0.4106480000000  0.5013390000000 1.0
C      1  0.3794470000000  0.4401110000000  0.5322520000000 1.0
C      1  0.4983020000000  0.5236120000000  0.5240190000000 1.0
C      1  0.4314670000000  0.4843170000000  0.5037690000000 1.0
C      1  0.4462890000000  0.5070480000000  0.3978650000000 1.0
C      1  0.4033790000000  0.4293390000000  0.5226030000000 1.0
C      1  0.5026580000000  0.4741360000000  0.4681470000000 1.0
C      1  0.4820470000000  0.5247580000000  0.4482740000000 1.0
C      1  0.4955260000000  0.4638990000000  0.3929850000000 1.0
C      1  0.4516640000000  0.5454800000000  0.5764410000000 1.0
C      1  0.5481800000000  0.4864580000000  0.5661480000000 1.0
C      1  0.4828040000000  0.6112740000000  0.5201820000000 1.0
C      1  0.4787570000000  0.4061740000000  0.4511240000000 1.0
C      1  0.5897020000000  0.5156010000000  0.4290490000000 1.0
C      1  0.4309720000000  0.5802020000000  0.4690610000000 1.0
C      1  0.4753400000000  0.5166340000000  0.3992760000000 1.0
C      1  0.3839850000000  0.4619430000000  0.5533790000000 1.0
C      1  0.5453790000000  0.3972100000000  0.5222530000000 1.0
C      1  0.4559390000000  0.5473110000000  0.4996630000000 1.0
C      1  0.4554120000000  0.5749470000000  0.5371190000000 1.0
C      1  0.4745400000000  0.5757430000000  0.4409090000000 1.0
C      1  0.5425190000000  0.4964080000000  0.4883810000000 1.0
C      1  0.5532810000000  0.5158790000000  0.3891460000000 1.0
C      1  0.4423950000000  0.5561950000000  0.5219140000000 1.0
C      1  0.5134830000000  0.4988490000000  0.4825060000000 1.0
C      1  0.4860040000000  0.5658270000000  0.5462080000000 1.0
C      1  0.5054290000000  0.3906110000000  0.5481110000000 1.0
C      1  0.5416290000000  0.5417880000000  0.3954700000000 1.0
C      1  0.4688400000000  0.4705940000000  0.4011460000000 1.0
C      1  0.5629340000000  0.5508990000000  0.5805550000000 1.0
C      1  0.5652110000000  0.5710540000000  0.5621410000000 1.0
C      1  0.4947790000000  0.5284800000000  0.5989080000000 1.0
C      1  0.4830780000000  0.5069710000000  0.4254440000000 1.0
C      1  0.4995230000000  0.4668190000000  0.5898120000000 1.0
C      1  0.4608100000000  0.4592770000000  0.6020710000000 1.0
C      1  0.4736160000000  0.4290580000000  0.5185030000000 1.0
C      1  0.4760540000000  0.6077510000000  0.4726630000000 1.0
C      1  0.5963550000000  0.4323600000000  0.5205130000000 1.0
C      1  0.5665950000000  0.4748830000000  0.4170190000000 1.0
C      1  0.3953030000000  0.5136510000000  0.4707980000000 1.0
C      1  0.6134990000000  0.5455480000000  0.4993310000000 1.0
C      1  0.4982660000000  0.6066290000000  0.4930890000000 1.0
C      1  0.5067090000000  0.4667630000000  0.5389490000000 1.0
END
