TITL C-884128-4793-378 48.9137976911241 125000 -24994.692880459 0 0 166 (C1) n - 1
REM
REM in /home/nfs/bkarasulu/CARBON/AIRSS/Generating-Clusters/ReaxFF-fromJPCA2015/Units_Real/with-SteepDescent/Only-C1/SD-CG/Try1-3A/FIRE-CG
REM
REM
REM
REM
REM
REM ./C.cell (11c1c37f851c82e70ff6c80c92926a4b)
REM
REM compiler GCC version 9.2.1 20190827 (Red Hat 9.2.1-1)
REM options -cpp -mtune=generic -march=x86-64 -g -O0 -fpre-include=/usr/include/finclude/math-vector-fortran.h
REM seed -1877050799 -1963525040 811385791 1900300016 368263655 27262414 -778084778 -1131711620 865611361 -1258081537 -606565170 -1130864540 991264417 -886263934 -566927381 1929105361 -318162919 -1744163554 -592356150 439747021 -1179102913 -1746300327 -1898690828 -481320848 -971897135 -156601328 -1990733505 535331751 1762118416 1626519596 -457009986 -1579111519 -955846857
REM
CELL 1.54180   50.00000   50.00000   50.00000   90.00000   90.00000   90.00000
LATT -1
SFAC C  
C      1  0.5066390000000  0.5186250000000  0.5426220000000 1.0
C      1  0.4719650000000  0.4702120000000  0.3915710000000 1.0
C      1  0.4660200000000  0.4223680000000  0.5632560000000 1.0
C      1  0.4093530000000  0.5581680000000  0.4914900000000 1.0
C      1  0.5357600000000  0.5340360000000  0.4806000000000 1.0
C      1  0.5674490000000  0.5338680000000  0.5542340000000 1.0
C      1  0.5204610000000  0.4163790000000  0.4332070000000 1.0
C      1  0.4615590000000  0.4292610000000  0.4283490000000 1.0
C      1  0.5290430000000  0.5409000000000  0.5928290000000 1.0
C      1  0.5583160000000  0.4239880000000  0.5424120000000 1.0
C      1  0.5118610000000  0.5640000000000  0.5061640000000 1.0
C      1  0.4635300000000  0.5486530000000  0.4183190000000 1.0
C      1  0.3951170000000  0.4972770000000  0.5192560000000 1.0
C      1  0.4691820000000  0.5957470000000  0.4732910000000 1.0
C      1  0.5177570000000  0.4071030000000  0.5123150000000 1.0
C      1  0.4392100000000  0.4095710000000  0.4978880000000 1.0
C      1  0.4565420000000  0.4493760000000  0.4069780000000 1.0
C      1  0.4470670000000  0.5594530000000  0.4398680000000 1.0
C      1  0.4448200000000  0.4425860000000  0.5583230000000 1.0
C      1  0.4413620000000  0.4254310000000  0.4483070000000 1.0
C      1  0.5061410000000  0.4889570000000  0.5356960000000 1.0
C      1  0.5165990000000  0.4713420000000  0.5583680000000 1.0
C      1  0.4649050000000  0.4550300000000  0.6036930000000 1.0
C      1  0.5203830000000  0.6015460000000  0.4650850000000 1.0
C      1  0.4965530000000  0.4057000000000  0.4926260000000 1.0
C      1  0.5089740000000  0.5364650000000  0.4075060000000 1.0
C      1  0.4211260000000  0.5389290000000  0.5384690000000 1.0
C      1  0.5710650000000  0.4327690000000  0.4966540000000 1.0
C      1  0.5234680000000  0.4657670000000  0.4565360000000 1.0
C      1  0.4846630000000  0.5068570000000  0.4883310000000 1.0
C      1  0.5663660000000  0.4734360000000  0.4238750000000 1.0
C      1  0.5445760000000  0.4871390000000  0.4465410000000 1.0
C      1  0.5174850000000  0.5140970000000  0.4648140000000 1.0
C      1  0.4836410000000  0.4942890000000  0.5795300000000 1.0
C      1  0.4231240000000  0.5419270000000  0.4452140000000 1.0
C      1  0.4823550000000  0.4483050000000  0.4945830000000 1.0
C      1  0.4162520000000  0.4306420000000  0.5039890000000 1.0
C      1  0.4781370000000  0.5353920000000  0.4858220000000 1.0
C      1  0.5572810000000  0.5166220000000  0.4035720000000 1.0
C      1  0.4077280000000  0.4492270000000  0.5240420000000 1.0
C      1  0.4176220000000  0.5614410000000  0.5199740000000 1.0
C      1  0.4712460000000  0.4969330000000  0.5532020000000 1.0
C      1  0.4632260000000  0.5219190000000  0.4073960000000 1.0
C      1  0.5309610000000  0.5126820000000  0.5564980000000 1.0
C      1  0.4686070000000  0.5751910000000  0.4528950000000 1.0
C      1  0.6006630000000  0.5239820000000  0.4712940000000 1.0
C      1  0.5316680000000  0.6041090000000  0.5123230000000 1.0
C      1  0.5751210000000  0.4606720000000  0.5671760000000 1.0
C      1  0.3916260000000  0.5137330000000  0.4699310000000 1.0
C      1  0.5602630000000  0.5617130000000  0.5562970000000 1.0
C      1  0.5113460000000  0.4580550000000  0.5060650000000 1.0
C      1  0.5669160000000  0.5651260000000  0.4546830000000 1.0
C      1  0.4477050000000  0.4677780000000  0.4621240000000 1.0
C      1  0.5398300000000  0.5255650000000  0.5086120000000 1.0
C      1  0.5648510000000  0.4314250000000  0.4557430000000 1.0
C      1  0.5982610000000  0.5538630000000  0.5086180000000 1.0
C      1  0.5231080000000  0.4398870000000  0.4689210000000 1.0
C      1  0.4949490000000  0.4535600000000  0.4270570000000 1.0
C      1  0.4783980000000  0.4173070000000  0.5377770000000 1.0
C      1  0.5030960000000  0.6128450000000  0.5076910000000 1.0
C      1  0.4356090000000  0.5637310000000  0.4803040000000 1.0
C      1  0.4284750000000  0.4585520000000  0.5763490000000 1.0
C      1  0.5413780000000  0.4856530000000  0.5539800000000 1.0
C      1  0.4813320000000  0.4951560000000  0.4612670000000 1.0
C      1  0.5505380000000  0.4799290000000  0.5264880000000 1.0
C      1  0.4465410000000  0.5884580000000  0.4910020000000 1.0
C      1  0.5150040000000  0.4155330000000  0.5648450000000 1.0
C      1  0.4695270000000  0.4998830000000  0.5124090000000 1.0
C      1  0.4511620000000  0.5380460000000  0.4771660000000 1.0
C      1  0.4611050000000  0.5388010000000  0.5890300000000 1.0
C      1  0.5946810000000  0.5571410000000  0.5365660000000 1.0
C      1  0.4445970000000  0.5025940000000  0.4204870000000 1.0
C      1  0.5766810000000  0.4910490000000  0.5358260000000 1.0
C      1  0.4401340000000  0.4691600000000  0.5094030000000 1.0
C      1  0.4064370000000  0.4445620000000  0.4807360000000 1.0
C      1  0.4468560000000  0.4767740000000  0.4038170000000 1.0
C      1  0.4403530000000  0.5000460000000  0.5048180000000 1.0
C      1  0.5353150000000  0.4527560000000  0.5154990000000 1.0
C      1  0.5288920000000  0.5810060000000  0.5288020000000 1.0
C      1  0.5057380000000  0.4058960000000  0.5382790000000 1.0
C      1  0.4665710000000  0.4009670000000  0.4922670000000 1.0
C      1  0.5371520000000  0.5632670000000  0.5743340000000 1.0
C      1  0.4792650000000  0.4803620000000  0.5305190000000 1.0
C      1  0.4245070000000  0.4510930000000  0.4549900000000 1.0
C      1  0.5909400000000  0.5299090000000  0.5416600000000 1.0
C      1  0.5419470000000  0.6008270000000  0.4850580000000 1.0
C      1  0.3897770000000  0.4683290000000  0.4761990000000 1.0
C      1  0.5997520000000  0.5248750000000  0.5014670000000 1.0
C      1  0.4957320000000  0.4286930000000  0.4735520000000 1.0
C      1  0.4863820000000  0.5526880000000  0.5089170000000 1.0
C      1  0.5242370000000  0.4776740000000  0.3941630000000 1.0
C      1  0.5299670000000  0.4949070000000  0.4830950000000 1.0
C      1  0.3998590000000  0.4712810000000  0.4493060000000 1.0
C      1  0.5926680000000  0.4922410000000  0.4319240000000 1.0
C      1  0.4153920000000  0.4807560000000  0.5633290000000 1.0
C      1  0.4972150000000  0.4747040000000  0.4481410000000 1.0
C      1  0.3876890000000  0.4941540000000  0.4910960000000 1.0
C      1  0.4964570000000  0.4875950000000  0.3926030000000 1.0
C      1  0.5877660000000  0.4484680000000  0.5149140000000 1.0
C      1  0.5507990000000  0.4883280000000  0.4013080000000 1.0
C      1  0.4407060000000  0.4682460000000  0.6022420000000 1.0
C      1  0.4650120000000  0.5258940000000  0.5474370000000 1.0
C      1  0.5166400000000  0.4526510000000  0.4066680000000 1.0
C      1  0.4708080000000  0.5508510000000  0.5346900000000 1.0
C      1  0.4974260000000  0.5646960000000  0.4505140000000 1.0
C      1  0.4173810000000  0.5154750000000  0.5224430000000 1.0
C      1  0.5579130000000  0.5766230000000  0.5301040000000 1.0
C      1  0.5990260000000  0.4995100000000  0.5179070000000 1.0
C      1  0.5461120000000  0.4236220000000  0.5144870000000 1.0
C      1  0.5752550000000  0.4760500000000  0.4762410000000 1.0
C      1  0.5613680000000  0.4446220000000  0.4294250000000 1.0
C      1  0.4393670000000  0.5306080000000  0.5634840000000 1.0
C      1  0.4825020000000  0.5578730000000  0.5881050000000 1.0
C      1  0.5325690000000  0.5333420000000  0.5356200000000 1.0
C      1  0.4042220000000  0.5402540000000  0.4687460000000 1.0
C      1  0.5842730000000  0.5439110000000  0.4607760000000 1.0
C      1  0.5507490000000  0.5188910000000  0.5966060000000 1.0
C      1  0.4924410000000  0.5814830000000  0.5699420000000 1.0
C      1  0.6061100000000  0.4977890000000  0.4570800000000 1.0
C      1  0.4572600000000  0.4614880000000  0.4879270000000 1.0
C      1  0.4893720000000  0.4450890000000  0.5984140000000 1.0
C      1  0.4274720000000  0.5050560000000  0.5752320000000 1.0
C      1  0.4001990000000  0.5000050000000  0.4451130000000 1.0
C      1  0.5312750000000  0.4982320000000  0.5110440000000 1.0
C      1  0.5669630000000  0.4492270000000  0.4765730000000 1.0
C      1  0.5796900000000  0.4432950000000  0.5429300000000 1.0
C      1  0.5369470000000  0.5349370000000  0.4203580000000 1.0
C      1  0.4374460000000  0.5834070000000  0.5186430000000 1.0
C      1  0.4956500000000  0.6074000000000  0.4790690000000 1.0
C      1  0.4200250000000  0.5167740000000  0.4314310000000 1.0
C      1  0.4428590000000  0.4979700000000  0.5983160000000 1.0
C      1  0.4491820000000  0.4526230000000  0.5312260000000 1.0
C      1  0.5720810000000  0.5156350000000  0.5755830000000 1.0
C      1  0.5818820000000  0.5114640000000  0.4160230000000 1.0
C      1  0.4907390000000  0.4227240000000  0.5793870000000 1.0
C      1  0.5567040000000  0.4983940000000  0.4725030000000 1.0
C      1  0.6034540000000  0.4720770000000  0.5057260000000 1.0
C      1  0.5295710000000  0.5117070000000  0.4384810000000 1.0
C      1  0.4696430000000  0.5125690000000  0.5985780000000 1.0
C      1  0.5228330000000  0.5808600000000  0.4437550000000 1.0
C      1  0.6046530000000  0.4764010000000  0.4766390000000 1.0
C      1  0.5637820000000  0.5826570000000  0.4803940000000 1.0
C      1  0.4740950000000  0.5973500000000  0.5525080000000 1.0
C      1  0.5422270000000  0.4936450000000  0.5989120000000 1.0
C      1  0.4735880000000  0.4415920000000  0.5221330000000 1.0
C      1  0.5013660000000  0.5387830000000  0.5951210000000 1.0
C      1  0.5521780000000  0.4499980000000  0.5814680000000 1.0
C      1  0.5738510000000  0.5736510000000  0.5052970000000 1.0
C      1  0.5803940000000  0.4893420000000  0.5646030000000 1.0
C      1  0.4865840000000  0.6060080000000  0.5292390000000 1.0
C      1  0.5183810000000  0.5790480000000  0.5600120000000 1.0
C      1  0.4464790000000  0.4063490000000  0.4702490000000 1.0
C      1  0.5374520000000  0.4334390000000  0.4166610000000 1.0
C      1  0.5033260000000  0.4713150000000  0.5855530000000 1.0
C      1  0.4903380000000  0.5155550000000  0.3987170000000 1.0
C      1  0.4018560000000  0.4741210000000  0.5373130000000 1.0
C      1  0.5342730000000  0.4682580000000  0.5969920000000 1.0
C      1  0.5379350000000  0.4177120000000  0.4562810000000 1.0
C      1  0.4921990000000  0.5528080000000  0.4230950000000 1.0
C      1  0.4564430000000  0.5765260000000  0.5396960000000 1.0
C      1  0.4424030000000  0.5107420000000  0.4769740000000 1.0
C      1  0.5439080000000  0.5624970000000  0.4368260000000 1.0
C      1  0.5420900000000  0.4265100000000  0.5665810000000 1.0
C      1  0.4922180000000  0.4264030000000  0.4392140000000 1.0
C      1  0.5163740000000  0.5562160000000  0.4789620000000 1.0
C      1  0.4527620000000  0.4946760000000  0.4553170000000 1.0
END
