TITL C-884134-5972-468 29.1109543086309 125000 -18496.995738773 0 0 126 (C1) n - 1
REM
REM in /home/nfs/bkarasulu/CARBON/AIRSS/Generating-Clusters/ReaxFF-fromJPCA2015/Units_Real/with-SteepDescent/Only-C1/SD-CG/Try1-3A/FIRE-CG
REM
REM
REM
REM
REM
REM ./C.cell (11c1c37f851c82e70ff6c80c92926a4b)
REM
REM compiler GCC version 9.2.1 20190827 (Red Hat 9.2.1-1)
REM options -cpp -mtune=generic -march=x86-64 -g -O0 -fpre-include=/usr/include/finclude/math-vector-fortran.h
REM seed 198565659 1720169738 -217667784 -1090171205 531605140 -1408089021 -1009832876 993998500 344805036 1722874120 -308703944 -994706212 -267042111 820577743 1629364657 -580040850 2099714854 -1493363771 -851441628 -48172979 1499755945 2086607669 -636830555 -967907529 279305812 302908501 -1273689531 -48635372 -1370294276 -401932469 572934098 1686593836 63305384
REM
CELL 1.54180   50.00000   50.00000   50.00000   90.00000   90.00000   90.00000
LATT -1
SFAC C  
C      1  0.5574620000000  0.4682970000000  0.4180680000000 1.0
C      1  0.4827320000000  0.4669670000000  0.4125470000000 1.0
C      1  0.4800800000000  0.5353690000000  0.4271570000000 1.0
C      1  0.4692150000000  0.5073430000000  0.4272310000000 1.0
C      1  0.5284520000000  0.4925920000000  0.5873380000000 1.0
C      1  0.4009050000000  0.5170030000000  0.4856420000000 1.0
C      1  0.4732310000000  0.4490650000000  0.4781500000000 1.0
C      1  0.5052740000000  0.4693660000000  0.5504960000000 1.0
C      1  0.5312090000000  0.5424010000000  0.5074490000000 1.0
C      1  0.5491360000000  0.4912750000000  0.5207520000000 1.0
C      1  0.4688530000000  0.5191960000000  0.6010900000000 1.0
C      1  0.5819700000000  0.4693430000000  0.5341230000000 1.0
C      1  0.5126900000000  0.4186280000000  0.5610350000000 1.0
C      1  0.5021570000000  0.4196190000000  0.4416950000000 1.0
C      1  0.4579660000000  0.4938640000000  0.5922240000000 1.0
C      1  0.5317910000000  0.4613190000000  0.5548340000000 1.0
C      1  0.5679630000000  0.5663890000000  0.5031720000000 1.0
C      1  0.4555090000000  0.5008580000000  0.5303130000000 1.0
C      1  0.4443520000000  0.5453870000000  0.4958740000000 1.0
C      1  0.4028550000000  0.5420080000000  0.5000750000000 1.0
C      1  0.5217760000000  0.5011000000000  0.5188690000000 1.0
C      1  0.4824540000000  0.4593270000000  0.5827410000000 1.0
C      1  0.5473980000000  0.5273740000000  0.4871970000000 1.0
C      1  0.4523120000000  0.4951770000000  0.5024250000000 1.0
C      1  0.4620970000000  0.5280420000000  0.5410000000000 1.0
C      1  0.4941640000000  0.4105920000000  0.5407490000000 1.0
C      1  0.5524470000000  0.5597880000000  0.4517300000000 1.0
C      1  0.4866430000000  0.5443970000000  0.5016950000000 1.0
C      1  0.5488940000000  0.5729760000000  0.5252830000000 1.0
C      1  0.5447560000000  0.5206340000000  0.4254760000000 1.0
C      1  0.5476300000000  0.4305410000000  0.4466550000000 1.0
C      1  0.5374840000000  0.4180350000000  0.4712680000000 1.0
C      1  0.4091640000000  0.5330970000000  0.5279770000000 1.0
C      1  0.5845380000000  0.4545880000000  0.5118910000000 1.0
C      1  0.4759600000000  0.4913630000000  0.3984400000000 1.0
C      1  0.5636100000000  0.4551680000000  0.4444750000000 1.0
C      1  0.5576190000000  0.5766270000000  0.4780100000000 1.0
C      1  0.5317100000000  0.4539630000000  0.4122100000000 1.0
C      1  0.4786390000000  0.4341140000000  0.4484860000000 1.0
C      1  0.4843160000000  0.4732070000000  0.4646460000000 1.0
C      1  0.4434070000000  0.4480490000000  0.4730570000000 1.0
C      1  0.4462680000000  0.5745110000000  0.5415240000000 1.0
C      1  0.4387800000000  0.4625050000000  0.5548280000000 1.0
C      1  0.5849950000000  0.4925850000000  0.4739460000000 1.0
C      1  0.4011250000000  0.4946240000000  0.5050890000000 1.0
C      1  0.5745330000000  0.4430950000000  0.4893520000000 1.0
C      1  0.4599470000000  0.5115940000000  0.4790010000000 1.0
C      1  0.4933260000000  0.4664670000000  0.5243140000000 1.0
C      1  0.5087930000000  0.4100420000000  0.4687730000000 1.0
C      1  0.4925150000000  0.4050930000000  0.4928440000000 1.0
C      1  0.5670440000000  0.4658570000000  0.5737390000000 1.0
C      1  0.5096890000000  0.5275240000000  0.4987260000000 1.0
C      1  0.5012890000000  0.4879610000000  0.5738890000000 1.0
C      1  0.5096420000000  0.4054520000000  0.5170440000000 1.0
C      1  0.5835720000000  0.5412140000000  0.4992090000000 1.0
C      1  0.4401980000000  0.5082420000000  0.4272440000000 1.0
C      1  0.5233960000000  0.5787210000000  0.5083770000000 1.0
C      1  0.4403640000000  0.4621440000000  0.4470970000000 1.0
C      1  0.4270130000000  0.4883720000000  0.4438730000000 1.0
C      1  0.4257350000000  0.4322880000000  0.5159290000000 1.0
C      1  0.4627700000000  0.5474280000000  0.4475920000000 1.0
C      1  0.4383920000000  0.5376770000000  0.5248510000000 1.0
C      1  0.4829900000000  0.5654160000000  0.5846560000000 1.0
C      1  0.4694900000000  0.5736890000000  0.4516950000000 1.0
C      1  0.5914150000000  0.5197490000000  0.5166750000000 1.0
C      1  0.5397600000000  0.4666070000000  0.5829360000000 1.0
C      1  0.4822750000000  0.4475080000000  0.5090710000000 1.0
C      1  0.5640490000000  0.4382600000000  0.5601210000000 1.0
C      1  0.5266040000000  0.4296220000000  0.4271370000000 1.0
C      1  0.4402530000000  0.4240050000000  0.4902640000000 1.0
C      1  0.5103840000000  0.4758220000000  0.4769180000000 1.0
C      1  0.5509300000000  0.5553190000000  0.5488440000000 1.0
C      1  0.4689420000000  0.4958630000000  0.4559470000000 1.0
C      1  0.5323960000000  0.5378970000000  0.5357690000000 1.0
C      1  0.5140490000000  0.5847890000000  0.4565930000000 1.0
C      1  0.5227660000000  0.4971390000000  0.4321330000000 1.0
C      1  0.4939570000000  0.5859040000000  0.5115250000000 1.0
C      1  0.4081740000000  0.5035810000000  0.5322170000000 1.0
C      1  0.4426960000000  0.4386240000000  0.5389180000000 1.0
C      1  0.5107950000000  0.5754130000000  0.5839050000000 1.0
C      1  0.5204240000000  0.5450210000000  0.4205790000000 1.0
C      1  0.4972280000000  0.5401310000000  0.4034610000000 1.0
C      1  0.5208270000000  0.5486870000000  0.5880740000000 1.0
C      1  0.5373170000000  0.4161820000000  0.5196990000000 1.0
C      1  0.5313300000000  0.5871940000000  0.4801580000000 1.0
C      1  0.4691800000000  0.4264800000000  0.5267370000000 1.0
C      1  0.4340900000000  0.5297820000000  0.4449510000000 1.0
C      1  0.5185390000000  0.4977820000000  0.4601400000000 1.0
C      1  0.4170890000000  0.5128530000000  0.4609500000000 1.0
C      1  0.4780250000000  0.5353650000000  0.4750710000000 1.0
C      1  0.4646020000000  0.4525730000000  0.4315900000000 1.0
C      1  0.4897460000000  0.5349100000000  0.5844860000000 1.0
C      1  0.5591780000000  0.4970860000000  0.4115930000000 1.0
C      1  0.5737700000000  0.5225700000000  0.4717290000000 1.0
C      1  0.5259070000000  0.5683180000000  0.4359900000000 1.0
C      1  0.4545790000000  0.4674880000000  0.5794900000000 1.0
C      1  0.4253000000000  0.5676920000000  0.5423870000000 1.0
C      1  0.5646800000000  0.5329120000000  0.4451670000000 1.0
C      1  0.4900590000000  0.5856010000000  0.5655690000000 1.0
C      1  0.5417960000000  0.4227380000000  0.5480910000000 1.0
C      1  0.4846710000000  0.5884680000000  0.4606050000000 1.0
C      1  0.4743810000000  0.5870940000000  0.4900060000000 1.0
C      1  0.4212900000000  0.5613150000000  0.4873000000000 1.0
C      1  0.5113840000000  0.4746430000000  0.4156260000000 1.0
C      1  0.5155100000000  0.5157690000000  0.5430100000000 1.0
C      1  0.5083290000000  0.5264850000000  0.4680680000000 1.0
C      1  0.6025510000000  0.5000180000000  0.4967140000000 1.0
C      1  0.5444290000000  0.5405140000000  0.5744480000000 1.0
C      1  0.4644410000000  0.4107310000000  0.5003450000000 1.0
C      1  0.5494700000000  0.5108440000000  0.5784940000000 1.0
C      1  0.5509450000000  0.4664290000000  0.5338790000000 1.0
C      1  0.4937320000000  0.5148240000000  0.5616900000000 1.0
C      1  0.4315190000000  0.4894930000000  0.5434910000000 1.0
C      1  0.5736300000000  0.5008480000000  0.5350380000000 1.0
C      1  0.5511240000000  0.4244580000000  0.4953500000000 1.0
C      1  0.4948170000000  0.4361180000000  0.5730570000000 1.0
C      1  0.5698560000000  0.4943070000000  0.5655790000000 1.0
C      1  0.4471840000000  0.5748380000000  0.4941220000000 1.0
C      1  0.4903750000000  0.5145420000000  0.3920520000000 1.0
C      1  0.5064460000000  0.4801660000000  0.5059610000000 1.0
C      1  0.4162790000000  0.4559320000000  0.5035190000000 1.0
C      1  0.4787740000000  0.5495200000000  0.5291780000000 1.0
C      1  0.4788260000000  0.5801780000000  0.5378040000000 1.0
C      1  0.5330210000000  0.5416800000000  0.4679430000000 1.0
C      1  0.5750260000000  0.4653490000000  0.4684110000000 1.0
C      1  0.4261940000000  0.4810210000000  0.4962880000000 1.0
END
