TITL C-883740-3686-4 392558.800732584 125000 -11647.2112315513 0 0 79 (C1) n - 1
REM
REM in /home/nfs/bkarasulu/CARBON/AIRSS/Generating-Clusters/ReaxFF-fromJPCA2015/Units_Real/with-SteepDescent/Only-C1/SD-CG/Try1-3A/FIRE-CG
REM
REM
REM
REM
REM
REM ./C.cell (11c1c37f851c82e70ff6c80c92926a4b)
REM
REM compiler GCC version 9.2.1 20190827 (Red Hat 9.2.1-1)
REM options -cpp -mtune=generic -march=x86-64 -g -O0 -fpre-include=/usr/include/finclude/math-vector-fortran.h
REM seed 369195313 -1186605219 522288037 657258363 -1022743159 -1911426138 285097545 -686985711 -925370072 -366984632 -965168887 621147701 1814766679 -1048480978 -117336595 -1394801963 -1686876352 845729583 -879276263 -568439983 -805671339 -789433849 -1381241967 -2099801717 1250950340 1845211925 513076710 1859816580 1146325921 1611589903 833183918 991796573 272619071
REM
CELL 1.54180   50.00000   50.00000   50.00000   90.00000   90.00000   90.00000
LATT -1
SFAC C  
C      1  0.4842780000000  0.5741380000000  0.5580880000000 1.0
C      1  0.4913600000000  0.4058630000000  0.4929380000000 1.0
C      1  0.5649750000000  0.5460810000000  0.4617130000000 1.0
C      1  0.5066290000000  0.5751030000000  0.5404180000000 1.0
C      1  0.5465570000000  0.5570390000000  0.5094970000000 1.0
C      1  0.5226310000000  0.4463550000000  0.4442600000000 1.0
C      1  0.4327240000000  0.4786030000000  0.5307440000000 1.0
C      1  0.5558960000000  0.5222710000000  0.4470010000000 1.0
C      1  0.4937110000000  0.5176970000000  0.5417280000000 1.0
C      1  0.5446920000000  0.4597590000000  0.4306190000000 1.0
C      1  0.5580760000000  0.4905130000000  0.5559820000000 1.0
C      1  0.5354150000000  0.4805700000000  0.4107400000000 1.0
C      1  0.5308870000000  0.5260710000000  0.4325960000000 1.0
C      1  0.5754240000000  0.5156350000000  0.5054630000000 1.0
C      1  0.5584380000000  0.4958410000000  0.4645860000000 1.0
C      1  0.5455700000000  0.5123490000000  0.5371040000000 1.0
C      1  0.4879810000000  0.5098510000000  0.5155950000000 1.0
C      1  0.5021490000000  0.4044670000000  0.4648470000000 1.0
C      1  0.4962410000000  0.5743590000000  0.4808320000000 1.0
C      1  0.4280510000000  0.5507150000000  0.4976120000000 1.0
C      1  0.4806010000000  0.4750930000000  0.4334420000000 1.0
C      1  0.4470270000000  0.4356280000000  0.5045030000000 1.0
C      1  0.5357120000000  0.5042330000000  0.5100710000000 1.0
C      1  0.4591600000000  0.5444760000000  0.4295390000000 1.0
C      1  0.4805030000000  0.5565960000000  0.4968350000000 1.0
C      1  0.5136720000000  0.5477060000000  0.4410710000000 1.0
C      1  0.5183290000000  0.5036300000000  0.4167470000000 1.0
C      1  0.4307980000000  0.5472430000000  0.4728800000000 1.0
C      1  0.4796260000000  0.4540020000000  0.4697070000000 1.0
C      1  0.4421100000000  0.5544220000000  0.5330810000000 1.0
C      1  0.5033090000000  0.4939270000000  0.4739570000000 1.0
C      1  0.4223560000000  0.4755130000000  0.4859370000000 1.0
C      1  0.4534630000000  0.5087980000000  0.4604120000000 1.0
C      1  0.5321170000000  0.4983550000000  0.4837580000000 1.0
C      1  0.4630940000000  0.5196160000000  0.5839200000000 1.0
C      1  0.4788140000000  0.5124890000000  0.4737510000000 1.0
C      1  0.4408200000000  0.5342930000000  0.4503070000000 1.0
C      1  0.4313470000000  0.4589100000000  0.5091290000000 1.0
C      1  0.4227160000000  0.5037090000000  0.5206260000000 1.0
C      1  0.5210130000000  0.4568490000000  0.5544470000000 1.0
C      1  0.5203140000000  0.5633140000000  0.4646410000000 1.0
C      1  0.4726160000000  0.5272470000000  0.4999320000000 1.0
C      1  0.4468900000000  0.4750040000000  0.5581000000000 1.0
C      1  0.4722000000000  0.5161970000000  0.5584190000000 1.0
C      1  0.4887080000000  0.4991490000000  0.4191520000000 1.0
C      1  0.4458050000000  0.4943370000000  0.5811590000000 1.0
C      1  0.4963200000000  0.4405290000000  0.5175960000000 1.0
C      1  0.5205080000000  0.5228290000000  0.5563860000000 1.0
C      1  0.4757510000000  0.5251200000000  0.4147040000000 1.0
C      1  0.5255550000000  0.4229250000000  0.4613750000000 1.0
C      1  0.5262770000000  0.5525970000000  0.5691630000000 1.0
C      1  0.5259830000000  0.5669270000000  0.5249770000000 1.0
C      1  0.4714450000000  0.4598380000000  0.5554290000000 1.0
C      1  0.4955660000000  0.4456770000000  0.5478030000000 1.0
C      1  0.5141300000000  0.4201030000000  0.5062060000000 1.0
C      1  0.4048420000000  0.4976020000000  0.4976520000000 1.0
C      1  0.4878410000000  0.5491240000000  0.4265290000000 1.0
C      1  0.5790030000000  0.4938090000000  0.4881660000000 1.0
C      1  0.5756050000000  0.4513620000000  0.4698530000000 1.0
C      1  0.5621750000000  0.4408600000000  0.4941130000000 1.0
C      1  0.4390850000000  0.4828930000000  0.4626860000000 1.0
C      1  0.4612180000000  0.5649040000000  0.5460320000000 1.0
C      1  0.4397550000000  0.5312990000000  0.5157020000000 1.0
C      1  0.4842170000000  0.4593630000000  0.4983020000000 1.0
C      1  0.5135010000000  0.5134880000000  0.5843660000000 1.0
C      1  0.5618510000000  0.4980110000000  0.5845920000000 1.0
C      1  0.4908640000000  0.5307420000000  0.5920270000000 1.0
C      1  0.4988190000000  0.5569160000000  0.5791420000000 1.0
C      1  0.4650530000000  0.4178450000000  0.4992830000000 1.0
C      1  0.5009610000000  0.4658330000000  0.4532000000000 1.0
C      1  0.5376390000000  0.5064110000000  0.6003880000000 1.0
C      1  0.5628440000000  0.5345440000000  0.5214980000000 1.0
C      1  0.5793720000000  0.4651710000000  0.4951060000000 1.0
C      1  0.5398560000000  0.4700970000000  0.5566590000000 1.0
C      1  0.5446510000000  0.5596330000000  0.4796860000000 1.0
C      1  0.4940670000000  0.4864680000000  0.5019270000000 1.0
C      1  0.5638590000000  0.4696290000000  0.4505750000000 1.0
C      1  0.5367380000000  0.4276740000000  0.4891790000000 1.0
C      1  0.4598410000000  0.4657630000000  0.4518100000000 1.0
END
