TITL C-883739-1268-366 11.9768200961353 125000 -18193.8819111847 0 0 122 (C1) n - 1
REM
REM in /home/nfs/bkarasulu/CARBON/AIRSS/Generating-Clusters/ReaxFF-fromJPCA2015/Units_Real/with-SteepDescent/Only-C1/SD-CG/Try1-3A/FIRE-CG
REM
REM
REM
REM
REM
REM ./C.cell (11c1c37f851c82e70ff6c80c92926a4b)
REM
REM compiler GCC version 9.2.1 20190827 (Red Hat 9.2.1-1)
REM options -cpp -mtune=generic -march=x86-64 -g -O0 -fpre-include=/usr/include/finclude/math-vector-fortran.h
REM seed 1123589494 -820486388 229835336 -84999717 172212526 1434710224 -67913411 -892756978 -84770433 58664447 1061706337 1066575407 773144603 -233792168 -1975424916 -2037187376 361925478 464977485 -1916520225 -992074365 -337523859 -423367211 -2087616180 -1132680637 732693934 -1926584571 -117925845 -1572437898 1591958311 717795796 2028920498 -1591182723 -2086456490
REM
CELL 1.54180   50.00000   50.00000   50.00000   90.00000   90.00000   90.00000
LATT -1
SFAC C  
C      1  0.5843630000000  0.4651670000000  0.4618590000000 1.0
C      1  0.4493190000000  0.4061160000000  0.5128170000000 1.0
C      1  0.4760380000000  0.4022800000000  0.5106050000000 1.0
C      1  0.4135640000000  0.5394840000000  0.4744780000000 1.0
C      1  0.5632500000000  0.5563130000000  0.5015830000000 1.0
C      1  0.5363050000000  0.5027050000000  0.5823420000000 1.0
C      1  0.5618730000000  0.4303490000000  0.4908950000000 1.0
C      1  0.4686460000000  0.4608560000000  0.5255850000000 1.0
C      1  0.4916370000000  0.4715650000000  0.5404700000000 1.0
C      1  0.4668870000000  0.4552480000000  0.5799740000000 1.0
C      1  0.5200770000000  0.4928740000000  0.4171240000000 1.0
C      1  0.4865750000000  0.5099540000000  0.5988780000000 1.0
C      1  0.4571410000000  0.5178100000000  0.4163070000000 1.0
C      1  0.4986990000000  0.3993360000000  0.5274010000000 1.0
C      1  0.5191990000000  0.4668510000000  0.5023460000000 1.0
C      1  0.4148840000000  0.4716970000000  0.4921900000000 1.0
C      1  0.5404520000000  0.5275440000000  0.5724670000000 1.0
C      1  0.4752150000000  0.4897940000000  0.4648770000000 1.0
C      1  0.4950330000000  0.4583970000000  0.5820110000000 1.0
C      1  0.5151190000000  0.5696450000000  0.5110370000000 1.0
C      1  0.5422040000000  0.5765820000000  0.4989410000000 1.0
C      1  0.4421630000000  0.4620240000000  0.4921720000000 1.0
C      1  0.5324930000000  0.4953560000000  0.5325850000000 1.0
C      1  0.5270750000000  0.5417060000000  0.4150940000000 1.0
C      1  0.5606280000000  0.4904810000000  0.5740050000000 1.0
C      1  0.5747400000000  0.5379240000000  0.4804310000000 1.0
C      1  0.4701100000000  0.4940620000000  0.4016030000000 1.0
C      1  0.5623070000000  0.4591780000000  0.5728550000000 1.0
C      1  0.5573450000000  0.4545490000000  0.4212050000000 1.0
C      1  0.4955600000000  0.4705060000000  0.4586310000000 1.0
C      1  0.4984500000000  0.4962390000000  0.4024920000000 1.0
C      1  0.5300890000000  0.5391570000000  0.5192520000000 1.0
C      1  0.5392300000000  0.5234330000000  0.4974410000000 1.0
C      1  0.5191630000000  0.5137370000000  0.4796570000000 1.0
C      1  0.5064340000000  0.4912810000000  0.4930160000000 1.0
C      1  0.5440330000000  0.5521710000000  0.5611450000000 1.0
C      1  0.5049970000000  0.5290700000000  0.4606860000000 1.0
C      1  0.4671450000000  0.5156250000000  0.5065590000000 1.0
C      1  0.5133370000000  0.4161860000000  0.5472390000000 1.0
C      1  0.4701190000000  0.4685880000000  0.4143810000000 1.0
C      1  0.4826350000000  0.5384840000000  0.5915690000000 1.0
C      1  0.5860030000000  0.4864180000000  0.4818350000000 1.0
C      1  0.5733760000000  0.4495000000000  0.5485480000000 1.0
C      1  0.4818080000000  0.5789990000000  0.5053370000000 1.0
C      1  0.4510830000000  0.4355260000000  0.5609520000000 1.0
C      1  0.5675220000000  0.4407550000000  0.4643010000000 1.0
C      1  0.4181060000000  0.5532240000000  0.5026580000000 1.0
C      1  0.4416670000000  0.4329850000000  0.4615290000000 1.0
C      1  0.4620750000000  0.5782520000000  0.5280030000000 1.0
C      1  0.4057230000000  0.5132800000000  0.4728530000000 1.0
C      1  0.5892030000000  0.4597530000000  0.5278730000000 1.0
C      1  0.4137240000000  0.4844180000000  0.5164900000000 1.0
C      1  0.4275650000000  0.5369090000000  0.4482380000000 1.0
C      1  0.5180140000000  0.5197480000000  0.5365330000000 1.0
C      1  0.5654730000000  0.5138150000000  0.4062310000000 1.0
C      1  0.4581230000000  0.5046150000000  0.5950900000000 1.0
C      1  0.5086980000000  0.5832460000000  0.4612400000000 1.0
C      1  0.5157720000000  0.4416880000000  0.4897230000000 1.0
C      1  0.4708450000000  0.5427500000000  0.4192150000000 1.0
C      1  0.5345960000000  0.5158760000000  0.4040220000000 1.0
C      1  0.5392060000000  0.4434440000000  0.5692750000000 1.0
C      1  0.4909060000000  0.4933330000000  0.5598760000000 1.0
C      1  0.4815030000000  0.5148740000000  0.4522820000000 1.0
C      1  0.5739030000000  0.5113060000000  0.4338850000000 1.0
C      1  0.4654120000000  0.5644200000000  0.5536410000000 1.0
C      1  0.4431230000000  0.4567090000000  0.5417130000000 1.0
C      1  0.4604140000000  0.5636090000000  0.4909770000000 1.0
C      1  0.4498030000000  0.4794780000000  0.5814600000000 1.0
C      1  0.5501150000000  0.5511720000000  0.4340610000000 1.0
C      1  0.5971090000000  0.5127750000000  0.5180390000000 1.0
C      1  0.5276690000000  0.4085890000000  0.5232520000000 1.0
C      1  0.4828820000000  0.5915080000000  0.4736070000000 1.0
C      1  0.4140180000000  0.4961720000000  0.5414930000000 1.0
C      1  0.4284760000000  0.4836770000000  0.4447050000000 1.0
C      1  0.4907990000000  0.4315690000000  0.4468800000000 1.0
C      1  0.5603930000000  0.5475960000000  0.5306870000000 1.0
C      1  0.4628830000000  0.5829890000000  0.4558200000000 1.0
C      1  0.5128640000000  0.4368380000000  0.5705870000000 1.0
C      1  0.4054250000000  0.5458110000000  0.5273230000000 1.0
C      1  0.5052820000000  0.4897650000000  0.5852000000000 1.0
C      1  0.5801340000000  0.5028140000000  0.5554850000000 1.0
C      1  0.5679190000000  0.4796090000000  0.4403930000000 1.0
C      1  0.5808940000000  0.5273680000000  0.5380050000000 1.0
C      1  0.5205540000000  0.4808840000000  0.4467290000000 1.0
C      1  0.4525110000000  0.4163040000000  0.5405590000000 1.0
C      1  0.5187260000000  0.4702900000000  0.5309980000000 1.0
C      1  0.5962580000000  0.4886350000000  0.5352820000000 1.0
C      1  0.4389710000000  0.5720480000000  0.5091220000000 1.0
C      1  0.5174810000000  0.4293200000000  0.4401210000000 1.0
C      1  0.5488800000000  0.4998270000000  0.5098260000000 1.0
C      1  0.5236520000000  0.5770490000000  0.5370640000000 1.0
C      1  0.5681760000000  0.4530980000000  0.5080700000000 1.0
C      1  0.4780310000000  0.4939000000000  0.4932770000000 1.0
C      1  0.4437990000000  0.5489980000000  0.5651980000000 1.0
C      1  0.4904640000000  0.5530740000000  0.5663930000000 1.0
C      1  0.5583990000000  0.4786360000000  0.4915340000000 1.0
C      1  0.4993990000000  0.5503380000000  0.4207520000000 1.0
C      1  0.5482390000000  0.5715710000000  0.4522980000000 1.0
C      1  0.5477740000000  0.4363270000000  0.4405800000000 1.0
C      1  0.5452090000000  0.4805460000000  0.4599640000000 1.0
C      1  0.4329470000000  0.4787200000000  0.5579800000000 1.0
C      1  0.4170020000000  0.5463660000000  0.5538280000000 1.0
C      1  0.4913680000000  0.5214450000000  0.5481670000000 1.0
C      1  0.5905610000000  0.5146160000000  0.4890240000000 1.0
C      1  0.5342850000000  0.4208930000000  0.4977860000000 1.0
C      1  0.4471660000000  0.4165090000000  0.4837440000000 1.0
C      1  0.4083560000000  0.4868900000000  0.4650000000000 1.0
C      1  0.4784350000000  0.5221850000000  0.5285490000000 1.0
C      1  0.4675870000000  0.4541480000000  0.4974470000000 1.0
C      1  0.4042380000000  0.5239760000000  0.5450380000000 1.0
C      1  0.4537610000000  0.5337810000000  0.5885280000000 1.0
C      1  0.5063700000000  0.5561520000000  0.4489360000000 1.0
C      1  0.4914820000000  0.4452820000000  0.4750370000000 1.0
C      1  0.4663640000000  0.4468870000000  0.4305470000000 1.0
C      1  0.5184560000000  0.5671530000000  0.5624550000000 1.0
C      1  0.4598130000000  0.5352950000000  0.4885710000000 1.0
C      1  0.5363680000000  0.5877620000000  0.4717810000000 1.0
C      1  0.4540830000000  0.5560450000000  0.4421750000000 1.0
C      1  0.4350930000000  0.5115950000000  0.4354210000000 1.0
C      1  0.4653110000000  0.5356260000000  0.4620130000000 1.0
C      1  0.5683610000000  0.5345480000000  0.4513180000000 1.0
C      1  0.4410200000000  0.4557720000000  0.4433670000000 1.0
END
