TITL C-883738-3659-25 624959.724022786 125000 -1951.34539485478 0 0 15 (C1) n - 1
REM
REM in /home/nfs/bkarasulu/CARBON/AIRSS/Generating-Clusters/ReaxFF-fromJPCA2015/Units_Real/with-SteepDescent/Only-C1/SD-CG/Try1-3A/FIRE-CG
REM
REM
REM
REM
REM
REM ./C.cell (11c1c37f851c82e70ff6c80c92926a4b)
REM
REM compiler GCC version 9.2.1 20190827 (Red Hat 9.2.1-1)
REM options -cpp -mtune=generic -march=x86-64 -g -O0 -fpre-include=/usr/include/finclude/math-vector-fortran.h
REM seed 1668064432 1244644503 333816517 -1987124216 624963310 -565208386 -1420543815 1273569890 926864253 611426730 695072559 -2100747891 -515669162 -1162793222 1862257012 317588880 257462089 1231319835 -1536185125 1056964768 -476361344 1907670829 1341233051 1914586065 -1743272250 -1611821515 874848761 1016788952 967047241 -171264832 -537544200 360208936 298366599
REM
CELL 1.54180   50.00000   50.00000   50.00000   90.00000   90.00000   90.00000
LATT -1
SFAC C  
C      1  0.5414430000000  0.4901790000000  0.5263590000000 1.0
C      1  0.5014440000000  0.4925470000000  0.4599720000000 1.0
C      1  0.4321210000000  0.5218140000000  0.5044010000000 1.0
C      1  0.4611580000000  0.5206430000000  0.5185320000000 1.0
C      1  0.4951850000000  0.4703770000000  0.4782530000000 1.0
C      1  0.5166870000000  0.5190960000000  0.4634890000000 1.0
C      1  0.5342330000000  0.5296390000000  0.4899860000000 1.0
C      1  0.4906470000000  0.4785420000000  0.5301010000000 1.0
C      1  0.5389980000000  0.5110810000000  0.5089330000000 1.0
C      1  0.4751950000000  0.5006030000000  0.5240390000000 1.0
C      1  0.5282480000000  0.4641430000000  0.5180220000000 1.0
C      1  0.5103760000000  0.5287400000000  0.4414960000000 1.0
C      1  0.4543630000000  0.5315840000000  0.4888690000000 1.0
C      1  0.5013550000000  0.4627190000000  0.5063470000000 1.0
C      1  0.5185480000000  0.4782920000000  0.5411990000000 1.0
END
