TITL C-883740-3686-349 23.9475798228893 125000 -22828.5272864306 0 0 154 (C1) n - 1
REM
REM in /home/nfs/bkarasulu/CARBON/AIRSS/Generating-Clusters/ReaxFF-fromJPCA2015/Units_Real/with-SteepDescent/Only-C1/SD-CG/Try1-3A/FIRE-CG
REM
REM
REM
REM
REM
REM ./C.cell (11c1c37f851c82e70ff6c80c92926a4b)
REM
REM compiler GCC version 9.2.1 20190827 (Red Hat 9.2.1-1)
REM options -cpp -mtune=generic -march=x86-64 -g -O0 -fpre-include=/usr/include/finclude/math-vector-fortran.h
REM seed -1618550674 -1949878708 -532366942 -574365034 -1656041984 1270515451 912718190 -40074101 1492844072 1127544057 1112593481 1729711493 83571043 1982961104 -224673235 -8952956 223862961 1953115331 -1354941633 396438161 -505613083 -1365126857 1749484289 789188049 433440733 -1313082370 -702124833 -1156442062 -1203976192 747251597 1089851170 125890277 -1822193284
REM
CELL 1.54180   50.00000   50.00000   50.00000   90.00000   90.00000   90.00000
LATT -1
SFAC C  
C      1  0.4934850000000  0.4400400000000  0.4655400000000 1.0
C      1  0.4683880000000  0.5562680000000  0.4306940000000 1.0
C      1  0.4816980000000  0.4479480000000  0.5701630000000 1.0
C      1  0.4970560000000  0.4586550000000  0.5220620000000 1.0
C      1  0.5702640000000  0.5490240000000  0.4825730000000 1.0
C      1  0.5400080000000  0.4390040000000  0.4404290000000 1.0
C      1  0.5791260000000  0.5234180000000  0.5644490000000 1.0
C      1  0.4321690000000  0.5010830000000  0.4691730000000 1.0
C      1  0.5623060000000  0.5751440000000  0.4719650000000 1.0
C      1  0.4945720000000  0.5568480000000  0.5366880000000 1.0
C      1  0.5127710000000  0.4436050000000  0.5707650000000 1.0
C      1  0.4534530000000  0.5393000000000  0.5866670000000 1.0
C      1  0.5308480000000  0.5254290000000  0.3979200000000 1.0
C      1  0.4399150000000  0.4343490000000  0.5593900000000 1.0
C      1  0.4948580000000  0.4705820000000  0.4152140000000 1.0
C      1  0.5002810000000  0.5071860000000  0.5224910000000 1.0
C      1  0.5040480000000  0.5185820000000  0.4775190000000 1.0
C      1  0.5811350000000  0.4584350000000  0.4373220000000 1.0
C      1  0.5432730000000  0.5200270000000  0.5984650000000 1.0
C      1  0.4645890000000  0.5633520000000  0.5739870000000 1.0
C      1  0.5727570000000  0.5623260000000  0.5506520000000 1.0
C      1  0.5331020000000  0.4658260000000  0.5569530000000 1.0
C      1  0.4112650000000  0.5045760000000  0.5765560000000 1.0
C      1  0.5146710000000  0.4174810000000  0.5543930000000 1.0
C      1  0.5558080000000  0.4917040000000  0.4952260000000 1.0
C      1  0.5153660000000  0.4795460000000  0.3953490000000 1.0
C      1  0.4852760000000  0.4935140000000  0.5911050000000 1.0
C      1  0.5407490000000  0.4459790000000  0.4711250000000 1.0
C      1  0.4452290000000  0.5785780000000  0.4768190000000 1.0
C      1  0.5449890000000  0.4870310000000  0.5232600000000 1.0
C      1  0.4175100000000  0.5005130000000  0.5070910000000 1.0
C      1  0.5983130000000  0.5139580000000  0.4749180000000 1.0
C      1  0.4746090000000  0.5930640000000  0.5323400000000 1.0
C      1  0.5517050000000  0.5767820000000  0.4438990000000 1.0
C      1  0.4195660000000  0.4571630000000  0.5198260000000 1.0
C      1  0.4284910000000  0.5657160000000  0.5030990000000 1.0
C      1  0.5623730000000  0.4346200000000  0.5315760000000 1.0
C      1  0.4792440000000  0.5104170000000  0.5446550000000 1.0
C      1  0.5090710000000  0.5083010000000  0.3894010000000 1.0
C      1  0.4550530000000  0.6066910000000  0.4875290000000 1.0
C      1  0.4021700000000  0.5116460000000  0.4665590000000 1.0
C      1  0.5513390000000  0.5222390000000  0.5587810000000 1.0
C      1  0.6004580000000  0.4920990000000  0.5476900000000 1.0
C      1  0.5323720000000  0.4696700000000  0.6051330000000 1.0
C      1  0.4683240000000  0.5387260000000  0.5299920000000 1.0
C      1  0.5884330000000  0.4840180000000  0.4416880000000 1.0
C      1  0.4565900000000  0.5753180000000  0.5486330000000 1.0
C      1  0.4196730000000  0.4685030000000  0.4440430000000 1.0
C      1  0.4868120000000  0.5404150000000  0.6145920000000 1.0
C      1  0.5045990000000  0.4322440000000  0.5136000000000 1.0
C      1  0.4261970000000  0.5320490000000  0.5782180000000 1.0
C      1  0.4996550000000  0.5061410000000  0.5678130000000 1.0
C      1  0.4776930000000  0.5954750000000  0.5016180000000 1.0
C      1  0.5259260000000  0.5770580000000  0.4304430000000 1.0
C      1  0.5175540000000  0.5656560000000  0.4913040000000 1.0
C      1  0.5546510000000  0.4576120000000  0.4229830000000 1.0
C      1  0.5300740000000  0.5945410000000  0.5409180000000 1.0
C      1  0.3964390000000  0.4919830000000  0.4863360000000 1.0
C      1  0.4634600000000  0.5243180000000  0.5053250000000 1.0
C      1  0.5206100000000  0.5315160000000  0.4385580000000 1.0
C      1  0.5930630000000  0.5104920000000  0.4454350000000 1.0
C      1  0.4668080000000  0.4243690000000  0.5653740000000 1.0
C      1  0.4871750000000  0.3967200000000  0.4508450000000 1.0
C      1  0.5728940000000  0.4365140000000  0.5080050000000 1.0
C      1  0.4515720000000  0.4337910000000  0.4416530000000 1.0
C      1  0.5326740000000  0.3955930000000  0.5098990000000 1.0
C      1  0.4715330000000  0.5196920000000  0.6020990000000 1.0
C      1  0.5867210000000  0.4935880000000  0.4917940000000 1.0
C      1  0.4865500000000  0.5073270000000  0.4977290000000 1.0
C      1  0.5175660000000  0.5557870000000  0.5201050000000 1.0
C      1  0.4465740000000  0.4053660000000  0.4867910000000 1.0
C      1  0.5886050000000  0.4410980000000  0.4624740000000 1.0
C      1  0.4656650000000  0.4752470000000  0.4143120000000 1.0
C      1  0.4927120000000  0.4685670000000  0.4691000000000 1.0
C      1  0.5465940000000  0.5138600000000  0.5332510000000 1.0
C      1  0.5517530000000  0.5253700000000  0.4790080000000 1.0
C      1  0.4605600000000  0.4630430000000  0.4996370000000 1.0
C      1  0.5108240000000  0.4842660000000  0.4357190000000 1.0
C      1  0.4015500000000  0.5567590000000  0.4974140000000 1.0
C      1  0.5678810000000  0.5192010000000  0.4304150000000 1.0
C      1  0.4794930000000  0.4804850000000  0.4882080000000 1.0
C      1  0.5147420000000  0.4821690000000  0.5245650000000 1.0
C      1  0.4830740000000  0.5200390000000  0.3968290000000 1.0
C      1  0.5404390000000  0.4751340000000  0.4761100000000 1.0
C      1  0.5160730000000  0.5578680000000  0.5802630000000 1.0
C      1  0.5042480000000  0.4766390000000  0.6067590000000 1.0
C      1  0.3954090000000  0.5383640000000  0.4758080000000 1.0
C      1  0.5172150000000  0.5494250000000  0.4143730000000 1.0
C      1  0.5407440000000  0.5952650000000  0.5154250000000 1.0
C      1  0.5253360000000  0.5326540000000  0.4882480000000 1.0
C      1  0.5326830000000  0.4181000000000  0.5311810000000 1.0
C      1  0.4147000000000  0.4546680000000  0.4907330000000 1.0
C      1  0.4606990000000  0.5022360000000  0.4043710000000 1.0
C      1  0.6032910000000  0.4498020000000  0.4847300000000 1.0
C      1  0.4203460000000  0.5635530000000  0.4321810000000 1.0
C      1  0.4117660000000  0.5084180000000  0.5468230000000 1.0
C      1  0.4749530000000  0.5138690000000  0.4489490000000 1.0
C      1  0.5002430000000  0.5105520000000  0.4351540000000 1.0
C      1  0.5474320000000  0.5258680000000  0.4491480000000 1.0
C      1  0.5000260000000  0.5844590000000  0.5438610000000 1.0
C      1  0.4865030000000  0.5456470000000  0.4111990000000 1.0
C      1  0.4700410000000  0.4652390000000  0.5268250000000 1.0
C      1  0.5325720000000  0.4104420000000  0.4373730000000 1.0
C      1  0.5242410000000  0.5268250000000  0.5184860000000 1.0
C      1  0.5271940000000  0.5273350000000  0.5757870000000 1.0
C      1  0.5528780000000  0.5799360000000  0.5503200000000 1.0
C      1  0.5134230000000  0.4519170000000  0.5991770000000 1.0
C      1  0.4213890000000  0.5471580000000  0.4830090000000 1.0
C      1  0.6044890000000  0.4723670000000  0.5021450000000 1.0
C      1  0.5427570000000  0.4795080000000  0.4070960000000 1.0
C      1  0.4595940000000  0.4863130000000  0.5440490000000 1.0
C      1  0.4005050000000  0.4693590000000  0.4666670000000 1.0
C      1  0.4479310000000  0.5051380000000  0.4446650000000 1.0
C      1  0.5166560000000  0.3930590000000  0.4554400000000 1.0
C      1  0.5893390000000  0.4964100000000  0.5721990000000 1.0
C      1  0.5205220000000  0.4007660000000  0.4841730000000 1.0
C      1  0.4817120000000  0.5343710000000  0.4675620000000 1.0
C      1  0.5957250000000  0.5419710000000  0.5182660000000 1.0
C      1  0.5799630000000  0.4534640000000  0.5463390000000 1.0
C      1  0.5672880000000  0.4316840000000  0.4806390000000 1.0
C      1  0.4525910000000  0.4172000000000  0.5139900000000 1.0
C      1  0.4267410000000  0.4858400000000  0.5314260000000 1.0
C      1  0.4874230000000  0.4094380000000  0.5489310000000 1.0
C      1  0.4805650000000  0.4144970000000  0.5212780000000 1.0
C      1  0.5769340000000  0.4684240000000  0.5720420000000 1.0
C      1  0.4226910000000  0.4796140000000  0.5794340000000 1.0
C      1  0.4376190000000  0.4708400000000  0.4851900000000 1.0
C      1  0.4925970000000  0.5790090000000  0.4786010000000 1.0
C      1  0.4353060000000  0.4208250000000  0.4626750000000 1.0
C      1  0.5140500000000  0.4859860000000  0.5530370000000 1.0
C      1  0.6015850000000  0.4691470000000  0.5322580000000 1.0
C      1  0.5155030000000  0.4874270000000  0.4652070000000 1.0
C      1  0.5977430000000  0.5404070000000  0.4904960000000 1.0
C      1  0.4992770000000  0.6074730000000  0.4328860000000 1.0
C      1  0.5518750000000  0.5077880000000  0.4077620000000 1.0
C      1  0.4228040000000  0.5355610000000  0.5499600000000 1.0
C      1  0.5057680000000  0.5902130000000  0.4497790000000 1.0
C      1  0.4412490000000  0.5549420000000  0.5333640000000 1.0
C      1  0.4801180000000  0.4252180000000  0.4450450000000 1.0
C      1  0.5491580000000  0.4685170000000  0.5808710000000 1.0
C      1  0.4904940000000  0.5617680000000  0.5904020000000 1.0
C      1  0.4722230000000  0.5618610000000  0.4627770000000 1.0
C      1  0.4442150000000  0.4608400000000  0.4305450000000 1.0
C      1  0.4384600000000  0.4577440000000  0.5782040000000 1.0
C      1  0.4261820000000  0.5826310000000  0.4540280000000 1.0
C      1  0.5408190000000  0.5865290000000  0.4892860000000 1.0
C      1  0.4340510000000  0.4341960000000  0.5308130000000 1.0
C      1  0.4427830000000  0.5461370000000  0.4217700000000 1.0
C      1  0.4660350000000  0.4724170000000  0.5728240000000 1.0
C      1  0.4401420000000  0.5165550000000  0.4193650000000 1.0
C      1  0.5936820000000  0.5435520000000  0.5463240000000 1.0
C      1  0.4673800000000  0.3948060000000  0.4705930000000 1.0
C      1  0.5130830000000  0.4305180000000  0.4841170000000 1.0
C      1  0.4395310000000  0.5136580000000  0.4950440000000 1.0
END
