TITL C-884132-5695-97 20.438639459457 125000 -10966.4645844143 0 0 76 (C1) n - 1
REM
REM in /home/nfs/bkarasulu/CARBON/AIRSS/Generating-Clusters/ReaxFF-fromJPCA2015/Units_Real/with-SteepDescent/Only-C1/SD-CG/Try1-3A/FIRE-CG
REM
REM
REM
REM
REM
REM ./C.cell (11c1c37f851c82e70ff6c80c92926a4b)
REM
REM compiler GCC version 9.2.1 20190827 (Red Hat 9.2.1-1)
REM options -cpp -mtune=generic -march=x86-64 -g -O0 -fpre-include=/usr/include/finclude/math-vector-fortran.h
REM seed 1413755571 1048552889 1305921690 1601281736 1506022383 1786347939 -867788409 -1288165864 -1554306525 478424155 1452808394 1638211519 1655712864 1673554383 -1008115175 820713801 2077575748 1352054589 -188903017 -675843521 -637078441 -1795259502 -188589763 -2039175694 -1870742107 -181152747 551205794 1907112605 -703308680 -236581506 1244342602 11246775 410214825
REM
CELL 1.54180   50.00000   50.00000   50.00000   90.00000   90.00000   90.00000
LATT -1
SFAC C  
C      1  0.4533400000000  0.5019780000000  0.5681640000000 1.0
C      1  0.4706360000000  0.4265500000000  0.4751750000000 1.0
C      1  0.5022660000000  0.5737560000000  0.4644690000000 1.0
C      1  0.5562190000000  0.5000280000000  0.4714690000000 1.0
C      1  0.4553140000000  0.5101630000000  0.4194820000000 1.0
C      1  0.5008280000000  0.4423870000000  0.4341460000000 1.0
C      1  0.5375090000000  0.4579780000000  0.4670940000000 1.0
C      1  0.5226660000000  0.4883130000000  0.4325640000000 1.0
C      1  0.4623570000000  0.4715980000000  0.4537900000000 1.0
C      1  0.5285360000000  0.4762900000000  0.5884010000000 1.0
C      1  0.4113260000000  0.4790540000000  0.5096790000000 1.0
C      1  0.4615240000000  0.4280220000000  0.5032550000000 1.0
C      1  0.4332840000000  0.5020600000000  0.4836610000000 1.0
C      1  0.4206920000000  0.4772680000000  0.4814210000000 1.0
C      1  0.5291840000000  0.4902770000000  0.4604820000000 1.0
C      1  0.5700140000000  0.4748500000000  0.5164210000000 1.0
C      1  0.4677360000000  0.4663790000000  0.5398280000000 1.0
C      1  0.5469580000000  0.4599250000000  0.5236750000000 1.0
C      1  0.4226460000000  0.4883970000000  0.5347030000000 1.0
C      1  0.5095570000000  0.4983440000000  0.5290060000000 1.0
C      1  0.4927330000000  0.5698840000000  0.4944380000000 1.0
C      1  0.4743380000000  0.5280880000000  0.5009830000000 1.0
C      1  0.5230310000000  0.4270810000000  0.4994970000000 1.0
C      1  0.5366940000000  0.5486500000000  0.5616100000000 1.0
C      1  0.5614080000000  0.4538060000000  0.4819670000000 1.0
C      1  0.4884500000000  0.5412320000000  0.5749470000000 1.0
C      1  0.4879050000000  0.5950600000000  0.5157060000000 1.0
C      1  0.4639510000000  0.4824610000000  0.4261960000000 1.0
C      1  0.4703800000000  0.4392460000000  0.5290040000000 1.0
C      1  0.4759110000000  0.5786790000000  0.5353950000000 1.0
C      1  0.5089280000000  0.5107320000000  0.4240400000000 1.0
C      1  0.5710060000000  0.5274910000000  0.5220100000000 1.0
C      1  0.5315870000000  0.5733200000000  0.4608230000000 1.0
C      1  0.4727290000000  0.5170440000000  0.5263920000000 1.0
C      1  0.5709850000000  0.4814430000000  0.4894770000000 1.0
C      1  0.4499310000000  0.5239570000000  0.4450550000000 1.0
C      1  0.5483300000000  0.4401960000000  0.4478220000000 1.0
C      1  0.5641740000000  0.5332900000000  0.4954440000000 1.0
C      1  0.4444490000000  0.4792400000000  0.5536490000000 1.0
C      1  0.4694120000000  0.5422420000000  0.4422170000000 1.0
C      1  0.4933070000000  0.5561940000000  0.4420250000000 1.0
C      1  0.5096780000000  0.5476550000000  0.5072860000000 1.0
C      1  0.5381890000000  0.5452070000000  0.4510650000000 1.0
C      1  0.5720770000000  0.4927140000000  0.5555280000000 1.0
C      1  0.4828480000000  0.5012140000000  0.4140980000000 1.0
C      1  0.4834820000000  0.4904430000000  0.5328750000000 1.0
C      1  0.5209740000000  0.4731100000000  0.5218420000000 1.0
C      1  0.5135370000000  0.5284170000000  0.5754900000000 1.0
C      1  0.5111060000000  0.4482730000000  0.4816220000000 1.0
C      1  0.5220190000000  0.5267360000000  0.5197490000000 1.0
C      1  0.5049670000000  0.4943410000000  0.4798880000000 1.0
C      1  0.5157430000000  0.4631290000000  0.4217240000000 1.0
C      1  0.4571980000000  0.5027240000000  0.4677710000000 1.0
C      1  0.5461490000000  0.5380530000000  0.5332960000000 1.0
C      1  0.5573430000000  0.4849110000000  0.5787150000000 1.0
C      1  0.4905710000000  0.4188880000000  0.5441530000000 1.0
C      1  0.5077920000000  0.4217320000000  0.5218990000000 1.0
C      1  0.4546940000000  0.5338890000000  0.5425590000000 1.0
C      1  0.4241720000000  0.5058410000000  0.5113160000000 1.0
C      1  0.5172530000000  0.5652250000000  0.5487190000000 1.0
C      1  0.4821320000000  0.5119280000000  0.4798790000000 1.0
C      1  0.5155340000000  0.5364910000000  0.4359130000000 1.0
C      1  0.4663440000000  0.5553460000000  0.5018660000000 1.0
C      1  0.4933180000000  0.5697050000000  0.5638510000000 1.0
C      1  0.4863450000000  0.4466680000000  0.4596360000000 1.0
C      1  0.4433320000000  0.4343170000000  0.4803500000000 1.0
C      1  0.5228190000000  0.5746500000000  0.5702410000000 1.0
C      1  0.4550710000000  0.5592280000000  0.5280740000000 1.0
C      1  0.5581640000000  0.5287580000000  0.4684980000000 1.0
C      1  0.4617800000000  0.5287670000000  0.5715980000000 1.0
C      1  0.5199680000000  0.5032050000000  0.5819380000000 1.0
C      1  0.5063290000000  0.4715060000000  0.4971440000000 1.0
C      1  0.5494610000000  0.4389570000000  0.5041970000000 1.0
C      1  0.5790080000000  0.4980110000000  0.5271040000000 1.0
C      1  0.5298850000000  0.4374720000000  0.4278770000000 1.0
C      1  0.4384890000000  0.4595390000000  0.4666590000000 1.0
END
