TITL C-884135-4325-449 5.96473992545979 125000 -3989.55031655037 0 0 29 (C1) n - 1
REM
REM in /home/nfs/bkarasulu/CARBON/AIRSS/Generating-Clusters/ReaxFF-fromJPCA2015/Units_Real/with-SteepDescent/Only-C1/SD-CG/Try1-3A/FIRE-CG
REM
REM
REM
REM
REM
REM ./C.cell (11c1c37f851c82e70ff6c80c92926a4b)
REM
REM compiler GCC version 9.2.1 20190827 (Red Hat 9.2.1-1)
REM options -cpp -mtune=generic -march=x86-64 -g -O0 -fpre-include=/usr/include/finclude/math-vector-fortran.h
REM seed 2138830227 500582090 184010752 -502661065 758443906 -1004350954 554631578 -1854286440 -1457315268 -854843273 -657519342 -118170127 -653342889 -395704502 2108306875 -1030200807 1094039185 -53016963 -335386254 2009859013 1114983204 -1463328313 1122136928 1339375214 -909020277 146002673 1450437353 1779514867 -802950355 1935159124 -649906144 -1023727882 -2083850064
REM
CELL 1.54180   50.00000   50.00000   50.00000   90.00000   90.00000   90.00000
LATT -1
SFAC C  
C      1  0.4977340000000  0.5174600000000  0.4420500000000 1.0
C      1  0.4424650000000  0.4906710000000  0.4804070000000 1.0
C      1  0.4858960000000  0.4406620000000  0.4820500000000 1.0
C      1  0.4680150000000  0.4517740000000  0.5055070000000 1.0
C      1  0.4697820000000  0.5217060000000  0.4443190000000 1.0
C      1  0.5083310000000  0.4429100000000  0.5321120000000 1.0
C      1  0.5287330000000  0.4432010000000  0.5206230000000 1.0
C      1  0.5112130000000  0.5364900000000  0.5555130000000 1.0
C      1  0.4582010000000  0.4786280000000  0.5018380000000 1.0
C      1  0.4481150000000  0.5016830000000  0.4540040000000 1.0
C      1  0.5608620000000  0.5203640000000  0.4803870000000 1.0
C      1  0.5390590000000  0.4449910000000  0.4946060000000 1.0
C      1  0.4866500000000  0.5358780000000  0.5392620000000 1.0
C      1  0.5383540000000  0.5248930000000  0.4772130000000 1.0
C      1  0.4863010000000  0.5059620000000  0.5400010000000 1.0
C      1  0.4831980000000  0.5494710000000  0.5127060000000 1.0
C      1  0.4843620000000  0.5471450000000  0.4840590000000 1.0
C      1  0.4401140000000  0.5200100000000  0.4750000000000 1.0
C      1  0.4792060000000  0.4438660000000  0.5332050000000 1.0
C      1  0.5595450000000  0.4675760000000  0.4864040000000 1.0
C      1  0.5140600000000  0.4421100000000  0.4830550000000 1.0
C      1  0.4841750000000  0.4906660000000  0.5114470000000 1.0
C      1  0.5076150000000  0.5249670000000  0.4728060000000 1.0
C      1  0.5538420000000  0.5618980000000  0.5416860000000 1.0
C      1  0.5337870000000  0.5499430000000  0.5481930000000 1.0
C      1  0.5089950000000  0.5043480000000  0.5580860000000 1.0
C      1  0.4612130000000  0.5393140000000  0.4678860000000 1.0
C      1  0.5645690000000  0.4941670000000  0.4828940000000 1.0
C      1  0.4956060000000  0.5072460000000  0.4926840000000 1.0
END
