TITL C-884127-5181-249 22.3039349739328 125000 -18335.8567551497 0 0 124 (C1) n - 1
REM
REM in /home/nfs/bkarasulu/CARBON/AIRSS/Generating-Clusters/ReaxFF-fromJPCA2015/Units_Real/with-SteepDescent/Only-C1/SD-CG/Try1-3A/FIRE-CG
REM
REM
REM
REM
REM
REM ./C.cell (11c1c37f851c82e70ff6c80c92926a4b)
REM
REM compiler GCC version 9.2.1 20190827 (Red Hat 9.2.1-1)
REM options -cpp -mtune=generic -march=x86-64 -g -O0 -fpre-include=/usr/include/finclude/math-vector-fortran.h
REM seed -467778660 -37461214 669721780 -1169801989 -1441604476 1562606087 -926238775 -1283822115 771674429 1867640764 -6156501 -1114078037 -89583113 -2104532754 632449192 55341878 -180166549 -2135392806 -1803893413 -453616629 -441740227 -676808711 1464062484 -2122405183 1866707329 -1317712642 1572887597 1040560220 1754625828 1079543065 155566554 1502245668 1615409420
REM
CELL 1.54180   50.00000   50.00000   50.00000   90.00000   90.00000   90.00000
LATT -1
SFAC C  
C      1  0.5382790000000  0.5309040000000  0.5749350000000 1.0
C      1  0.5044730000000  0.5625620000000  0.4487080000000 1.0
C      1  0.6191380000000  0.5004530000000  0.5171140000000 1.0
C      1  0.4608300000000  0.4787580000000  0.4619240000000 1.0
C      1  0.5382750000000  0.4007710000000  0.4297540000000 1.0
C      1  0.4222860000000  0.4586870000000  0.4800690000000 1.0
C      1  0.5547640000000  0.4576120000000  0.3987160000000 1.0
C      1  0.5307520000000  0.5588580000000  0.4919820000000 1.0
C      1  0.5456010000000  0.5037610000000  0.5809580000000 1.0
C      1  0.5220440000000  0.4664780000000  0.4678580000000 1.0
C      1  0.5048190000000  0.5446790000000  0.5272850000000 1.0
C      1  0.5543380000000  0.4450910000000  0.5592610000000 1.0
C      1  0.5712320000000  0.4426830000000  0.4435400000000 1.0
C      1  0.6003130000000  0.4897090000000  0.4937980000000 1.0
C      1  0.5470730000000  0.5682480000000  0.5142650000000 1.0
C      1  0.5226960000000  0.5880190000000  0.5492300000000 1.0
C      1  0.4643600000000  0.4887300000000  0.3999860000000 1.0
C      1  0.5150960000000  0.4108570000000  0.4195420000000 1.0
C      1  0.4110440000000  0.5215990000000  0.5087650000000 1.0
C      1  0.4120920000000  0.5266130000000  0.4575410000000 1.0
C      1  0.5925300000000  0.4615640000000  0.4898600000000 1.0
C      1  0.4939980000000  0.5192110000000  0.5343850000000 1.0
C      1  0.4575520000000  0.5098090000000  0.5079800000000 1.0
C      1  0.4754320000000  0.4909590000000  0.5941240000000 1.0
C      1  0.5301320000000  0.4782070000000  0.4368130000000 1.0
C      1  0.5113450000000  0.5707810000000  0.5701090000000 1.0
C      1  0.5435150000000  0.5382090000000  0.4769700000000 1.0
C      1  0.5234160000000  0.6036430000000  0.5010410000000 1.0
C      1  0.5038100000000  0.4461810000000  0.5759210000000 1.0
C      1  0.4432320000000  0.4539290000000  0.4348140000000 1.0
C      1  0.5530070000000  0.5930090000000  0.4997060000000 1.0
C      1  0.4974930000000  0.5060890000000  0.5940550000000 1.0
C      1  0.4355340000000  0.4337600000000  0.4782210000000 1.0
C      1  0.4812160000000  0.4994310000000  0.4940920000000 1.0
C      1  0.5882790000000  0.5411460000000  0.5317660000000 1.0
C      1  0.4876480000000  0.5302650000000  0.5875150000000 1.0
C      1  0.4627860000000  0.5396340000000  0.5722680000000 1.0
C      1  0.4775670000000  0.5936160000000  0.4707970000000 1.0
C      1  0.4656450000000  0.4205950000000  0.5498160000000 1.0
C      1  0.4058180000000  0.4731290000000  0.5350370000000 1.0
C      1  0.4826290000000  0.4635370000000  0.5845460000000 1.0
C      1  0.5200660000000  0.5755340000000  0.4697440000000 1.0
C      1  0.5287240000000  0.4851990000000  0.5315210000000 1.0
C      1  0.5900750000000  0.4580330000000  0.4594780000000 1.0
C      1  0.4460820000000  0.4460600000000  0.5479480000000 1.0
C      1  0.5802290000000  0.5064920000000  0.4934400000000 1.0
C      1  0.4271670000000  0.5465820000000  0.5500680000000 1.0
C      1  0.6065230000000  0.5241560000000  0.5266970000000 1.0
C      1  0.5755580000000  0.4441900000000  0.5050970000000 1.0
C      1  0.4321140000000  0.4753490000000  0.4556050000000 1.0
C      1  0.5391780000000  0.5122090000000  0.4833120000000 1.0
C      1  0.5318770000000  0.4559160000000  0.5278860000000 1.0
C      1  0.5561550000000  0.4311070000000  0.4878380000000 1.0
C      1  0.4749600000000  0.5658630000000  0.4514680000000 1.0
C      1  0.4538600000000  0.5165030000000  0.5571880000000 1.0
C      1  0.4597740000000  0.4611750000000  0.4117230000000 1.0
C      1  0.4575480000000  0.5830480000000  0.5370310000000 1.0
C      1  0.4303370000000  0.5004220000000  0.5038280000000 1.0
C      1  0.4947410000000  0.4558520000000  0.4683270000000 1.0
C      1  0.5324130000000  0.5252360000000  0.4313830000000 1.0
C      1  0.5196580000000  0.4949380000000  0.4807010000000 1.0
C      1  0.4514630000000  0.4332300000000  0.4536860000000 1.0
C      1  0.4271180000000  0.5502070000000  0.4671390000000 1.0
C      1  0.5825200000000  0.4820980000000  0.4475250000000 1.0
C      1  0.4891550000000  0.5035170000000  0.4074640000000 1.0
C      1  0.5496990000000  0.5045370000000  0.5317100000000 1.0
C      1  0.5389880000000  0.4099800000000  0.4506970000000 1.0
C      1  0.4554520000000  0.5164910000000  0.4386120000000 1.0
C      1  0.4607520000000  0.5567730000000  0.4996300000000 1.0
C      1  0.4475460000000  0.4512200000000  0.5189480000000 1.0
C      1  0.5176620000000  0.4948410000000  0.5779390000000 1.0
C      1  0.4073200000000  0.5378990000000  0.4848770000000 1.0
C      1  0.4954950000000  0.5079400000000  0.4707270000000 1.0
C      1  0.5509250000000  0.4570770000000  0.4243270000000 1.0
C      1  0.5538000000000  0.4987570000000  0.5023250000000 1.0
C      1  0.4548960000000  0.4051830000000  0.5285360000000 1.0
C      1  0.5132060000000  0.5446800000000  0.4268210000000 1.0
C      1  0.4701510000000  0.4663530000000  0.5144100000000 1.0
C      1  0.4791280000000  0.4968270000000  0.4482620000000 1.0
C      1  0.5702520000000  0.5484260000000  0.4729440000000 1.0
C      1  0.4800620000000  0.4313450000000  0.4627000000000 1.0
C      1  0.4667070000000  0.5177930000000  0.5327330000000 1.0
C      1  0.4843000000000  0.5877650000000  0.5254310000000 1.0
C      1  0.4758650000000  0.4721760000000  0.4864390000000 1.0
C      1  0.4829860000000  0.4743040000000  0.5375040000000 1.0
C      1  0.5021440000000  0.4823260000000  0.4249080000000 1.0
C      1  0.4551480000000  0.5995130000000  0.4878760000000 1.0
C      1  0.4187500000000  0.4588190000000  0.5566770000000 1.0
C      1  0.5013860000000  0.4317600000000  0.4157500000000 1.0
C      1  0.4561980000000  0.5515210000000  0.4713320000000 1.0
C      1  0.4879500000000  0.5325270000000  0.4153140000000 1.0
C      1  0.4652790000000  0.4666440000000  0.5598130000000 1.0
C      1  0.5475960000000  0.5042660000000  0.4356270000000 1.0
C      1  0.4945690000000  0.4293360000000  0.5535750000000 1.0
C      1  0.4536140000000  0.4239130000000  0.5023080000000 1.0
C      1  0.5770480000000  0.5083150000000  0.4471360000000 1.0
C      1  0.5134800000000  0.5445960000000  0.5819620000000 1.0
C      1  0.5342690000000  0.4513230000000  0.5788190000000 1.0
C      1  0.5201610000000  0.5610080000000  0.5454850000000 1.0
C      1  0.4660450000000  0.5427150000000  0.4311060000000 1.0
C      1  0.4219960000000  0.4840870000000  0.5712580000000 1.0
C      1  0.5069680000000  0.4279020000000  0.5019750000000 1.0
C      1  0.4458720000000  0.5803380000000  0.5103680000000 1.0
C      1  0.4893740000000  0.4562070000000  0.4135790000000 1.0
C      1  0.5702690000000  0.5771430000000  0.4806650000000 1.0
C      1  0.4812710000000  0.4216940000000  0.4897860000000 1.0
C      1  0.5606870000000  0.4194330000000  0.4588220000000 1.0
C      1  0.4868290000000  0.5613930000000  0.5119100000000 1.0
C      1  0.5635100000000  0.5529800000000  0.5343640000000 1.0
C      1  0.5288690000000  0.4407150000000  0.4859110000000 1.0
C      1  0.5860110000000  0.5222300000000  0.4722900000000 1.0
C      1  0.4226030000000  0.4711330000000  0.5074070000000 1.0
C      1  0.4102980000000  0.5264490000000  0.5385670000000 1.0
C      1  0.4498850000000  0.5621250000000  0.5577090000000 1.0
C      1  0.5600880000000  0.4473300000000  0.5326160000000 1.0
C      1  0.5107460000000  0.4346360000000  0.5301050000000 1.0
C      1  0.4301760000000  0.5067610000000  0.4472660000000 1.0
C      1  0.5056460000000  0.5995890000000  0.4781100000000 1.0
C      1  0.5040560000000  0.4939590000000  0.5433900000000 1.0
C      1  0.5519300000000  0.5288140000000  0.5481490000000 1.0
C      1  0.4511950000000  0.4929780000000  0.5739560000000 1.0
C      1  0.5102820000000  0.6021680000000  0.5270170000000 1.0
C      1  0.5365650000000  0.4779790000000  0.5900820000000 1.0
C      1  0.4066550000000  0.4983190000000  0.5502740000000 1.0
END
