TITL C-883739-1268-85 17.6956263537662 125000 -21480.8194676553 0 0 143 (C1) n - 1
REM
REM in /home/nfs/bkarasulu/CARBON/AIRSS/Generating-Clusters/ReaxFF-fromJPCA2015/Units_Real/with-SteepDescent/Only-C1/SD-CG/Try1-3A/FIRE-CG
REM
REM
REM
REM
REM
REM ./C.cell (11c1c37f851c82e70ff6c80c92926a4b)
REM
REM compiler GCC version 9.2.1 20190827 (Red Hat 9.2.1-1)
REM options -cpp -mtune=generic -march=x86-64 -g -O0 -fpre-include=/usr/include/finclude/math-vector-fortran.h
REM seed -1362018737 -1866534915 -370507004 1534405466 -291385427 727551778 2077798013 -2104435611 2083040097 1512759945 -1010784930 -1494328114 1001817499 -1626914547 -715384573 657180704 -1178795586 2048457148 -1706054020 -1154697672 1882548092 1787685181 -1413949315 1429744204 266936377 1674083403 65624912 236885860 1059183604 1537570228 -294964202 -151627364 1757226089
REM
CELL 1.54180   50.00000   50.00000   50.00000   90.00000   90.00000   90.00000
LATT -1
SFAC C  
C      1  0.4764190000000  0.5006050000000  0.5311360000000 1.0
C      1  0.4392640000000  0.5521280000000  0.4581440000000 1.0
C      1  0.4779940000000  0.5611750000000  0.5232130000000 1.0
C      1  0.4509260000000  0.4528840000000  0.4874670000000 1.0
C      1  0.4991940000000  0.4463720000000  0.5050810000000 1.0
C      1  0.4850000000000  0.4164890000000  0.4323610000000 1.0
C      1  0.4147600000000  0.5044310000000  0.5283710000000 1.0
C      1  0.5153010000000  0.4810530000000  0.4332250000000 1.0
C      1  0.4508510000000  0.4463900000000  0.4137450000000 1.0
C      1  0.5219860000000  0.4757160000000  0.5390950000000 1.0
C      1  0.5115550000000  0.5223580000000  0.5518130000000 1.0
C      1  0.4894890000000  0.4668140000000  0.4662830000000 1.0
C      1  0.5536570000000  0.4521880000000  0.4266210000000 1.0
C      1  0.5526540000000  0.5266740000000  0.4093590000000 1.0
C      1  0.5041460000000  0.4425810000000  0.4055760000000 1.0
C      1  0.5602410000000  0.5196350000000  0.5605880000000 1.0
C      1  0.4548190000000  0.4784100000000  0.5806030000000 1.0
C      1  0.5698010000000  0.4848470000000  0.4543170000000 1.0
C      1  0.5907110000000  0.4616270000000  0.5159160000000 1.0
C      1  0.5703920000000  0.5582710000000  0.4501950000000 1.0
C      1  0.5318980000000  0.4850880000000  0.5927510000000 1.0
C      1  0.5263100000000  0.5036140000000  0.4471600000000 1.0
C      1  0.4648430000000  0.5429020000000  0.4485820000000 1.0
C      1  0.4691500000000  0.4743480000000  0.5393640000000 1.0
C      1  0.5659450000000  0.4755040000000  0.4238650000000 1.0
C      1  0.5205330000000  0.4033400000000  0.5418990000000 1.0
C      1  0.4760620000000  0.4966980000000  0.5886120000000 1.0
C      1  0.5068850000000  0.5023520000000  0.5327940000000 1.0
C      1  0.4399230000000  0.4366210000000  0.4392250000000 1.0
C      1  0.5736230000000  0.4591410000000  0.4696360000000 1.0
C      1  0.5424600000000  0.5095210000000  0.5816090000000 1.0
C      1  0.5485060000000  0.5040900000000  0.4647460000000 1.0
C      1  0.5183080000000  0.5063530000000  0.5006950000000 1.0
C      1  0.4944810000000  0.6026850000000  0.5341390000000 1.0
C      1  0.4674490000000  0.5583000000000  0.4953990000000 1.0
C      1  0.4982090000000  0.4247490000000  0.5758450000000 1.0
C      1  0.4061180000000  0.4575150000000  0.5035380000000 1.0
C      1  0.5922920000000  0.5229740000000  0.4865660000000 1.0
C      1  0.5059330000000  0.5199400000000  0.4580220000000 1.0
C      1  0.5596210000000  0.5809790000000  0.5206280000000 1.0
C      1  0.5929800000000  0.4700970000000  0.4875730000000 1.0
C      1  0.4903390000000  0.5121430000000  0.4817560000000 1.0
C      1  0.5561750000000  0.5509180000000  0.4240160000000 1.0
C      1  0.4379950000000  0.5694700000000  0.4853780000000 1.0
C      1  0.4479370000000  0.4819150000000  0.4904840000000 1.0
C      1  0.4289450000000  0.4818850000000  0.5679840000000 1.0
C      1  0.5131140000000  0.4572020000000  0.4828320000000 1.0
C      1  0.4034160000000  0.4966620000000  0.4669970000000 1.0
C      1  0.5711630000000  0.4778950000000  0.5352360000000 1.0
C      1  0.4682640000000  0.4894920000000  0.4259890000000 1.0
C      1  0.4265540000000  0.5288480000000  0.4543680000000 1.0
C      1  0.4394780000000  0.5536070000000  0.5606290000000 1.0
C      1  0.4545010000000  0.4303390000000  0.5548910000000 1.0
C      1  0.4408700000000  0.4965150000000  0.4265420000000 1.0
C      1  0.5300190000000  0.5632570000000  0.4186250000000 1.0
C      1  0.4053810000000  0.4750610000000  0.5266260000000 1.0
C      1  0.5158260000000  0.4714250000000  0.4050700000000 1.0
C      1  0.5108490000000  0.5451030000000  0.5924930000000 1.0
C      1  0.4753910000000  0.4023540000000  0.4910160000000 1.0
C      1  0.5540330000000  0.5701090000000  0.4726560000000 1.0
C      1  0.4893720000000  0.5745010000000  0.4777780000000 1.0
C      1  0.5155720000000  0.5425830000000  0.4507000000000 1.0
C      1  0.5065260000000  0.5563110000000  0.5208880000000 1.0
C      1  0.5797800000000  0.4376840000000  0.5227860000000 1.0
C      1  0.4763090000000  0.4324760000000  0.4087590000000 1.0
C      1  0.5224890000000  0.5245210000000  0.4001040000000 1.0
C      1  0.5870250000000  0.5111690000000  0.4275240000000 1.0
C      1  0.5131320000000  0.4269420000000  0.4280140000000 1.0
C      1  0.5309240000000  0.4298450000000  0.4792980000000 1.0
C      1  0.4959470000000  0.4540810000000  0.5755750000000 1.0
C      1  0.5449090000000  0.5879110000000  0.5462980000000 1.0
C      1  0.4671900000000  0.4587960000000  0.5643900000000 1.0
C      1  0.4176370000000  0.4617270000000  0.5488570000000 1.0
C      1  0.4041580000000  0.5314900000000  0.5081720000000 1.0
C      1  0.4610600000000  0.4180560000000  0.4493780000000 1.0
C      1  0.4898750000000  0.5746340000000  0.4473190000000 1.0
C      1  0.4379010000000  0.5005070000000  0.5097540000000 1.0
C      1  0.5567750000000  0.4309120000000  0.5572210000000 1.0
C      1  0.5375970000000  0.5496420000000  0.4850050000000 1.0
C      1  0.4828570000000  0.5487460000000  0.5863400000000 1.0
C      1  0.5233380000000  0.5433560000000  0.5407310000000 1.0
C      1  0.5237590000000  0.4266590000000  0.5609960000000 1.0
C      1  0.4992140000000  0.6107540000000  0.5071460000000 1.0
C      1  0.5071630000000  0.5469380000000  0.4104720000000 1.0
C      1  0.5671580000000  0.4573370000000  0.5613460000000 1.0
C      1  0.4491050000000  0.4750770000000  0.4101110000000 1.0
C      1  0.4076640000000  0.4668760000000  0.4741300000000 1.0
C      1  0.5023190000000  0.4828580000000  0.5893100000000 1.0
C      1  0.5651070000000  0.4165290000000  0.5332580000000 1.0
C      1  0.4220230000000  0.5076330000000  0.4451970000000 1.0
C      1  0.5253780000000  0.4077120000000  0.4971580000000 1.0
C      1  0.4721800000000  0.4414390000000  0.5031110000000 1.0
C      1  0.4297810000000  0.4357060000000  0.5412730000000 1.0
C      1  0.5490610000000  0.5708440000000  0.5694940000000 1.0
C      1  0.4669440000000  0.5242330000000  0.5844060000000 1.0
C      1  0.5183260000000  0.5690440000000  0.4452700000000 1.0
C      1  0.4781530000000  0.4138810000000  0.5571170000000 1.0
C      1  0.4192050000000  0.4330900000000  0.5129380000000 1.0
C      1  0.4492590000000  0.5978450000000  0.4874380000000 1.0
C      1  0.5272340000000  0.6070830000000  0.4971810000000 1.0
C      1  0.5555570000000  0.4355810000000  0.4650520000000 1.0
C      1  0.5130590000000  0.5617020000000  0.4939200000000 1.0
C      1  0.5422410000000  0.4301310000000  0.4379180000000 1.0
C      1  0.5719780000000  0.5255940000000  0.5119890000000 1.0
C      1  0.5152020000000  0.4547370000000  0.5543150000000 1.0
C      1  0.4825420000000  0.4530190000000  0.5265550000000 1.0
C      1  0.4715070000000  0.5814860000000  0.5438930000000 1.0
C      1  0.4337480000000  0.4286490000000  0.4881480000000 1.0
C      1  0.4037230000000  0.5144610000000  0.4881770000000 1.0
C      1  0.6026640000000  0.4969960000000  0.4784630000000 1.0
C      1  0.5516060000000  0.5924060000000  0.4934270000000 1.0
C      1  0.4536640000000  0.4074820000000  0.4759160000000 1.0
C      1  0.5152000000000  0.4973630000000  0.3962470000000 1.0
C      1  0.5296650000000  0.4799590000000  0.4971590000000 1.0
C      1  0.5528200000000  0.4634920000000  0.5855700000000 1.0
C      1  0.5068690000000  0.5876290000000  0.5756160000000 1.0
C      1  0.4610510000000  0.5170690000000  0.5129890000000 1.0
C      1  0.4195410000000  0.5652380000000  0.5267110000000 1.0
C      1  0.5715420000000  0.5551090000000  0.5170720000000 1.0
C      1  0.5995590000000  0.4999530000000  0.4498960000000 1.0
C      1  0.5260340000000  0.5691700000000  0.5878890000000 1.0
C      1  0.5443510000000  0.5199330000000  0.4898020000000 1.0
C      1  0.4384130000000  0.5757760000000  0.5456940000000 1.0
C      1  0.5496840000000  0.5467780000000  0.5529270000000 1.0
C      1  0.5437440000000  0.4719750000000  0.5207450000000 1.0
C      1  0.5716700000000  0.5077030000000  0.5372340000000 1.0
C      1  0.5691840000000  0.5025050000000  0.4086040000000 1.0
C      1  0.4689470000000  0.5304330000000  0.4877070000000 1.0
C      1  0.4781040000000  0.6018860000000  0.4871210000000 1.0
C      1  0.4818410000000  0.5742690000000  0.5716510000000 1.0
C      1  0.5176630000000  0.5997100000000  0.5506290000000 1.0
C      1  0.4738540000000  0.4865670000000  0.4803770000000 1.0
C      1  0.4933410000000  0.3987490000000  0.5361930000000 1.0
C      1  0.5155170000000  0.5192170000000  0.5788990000000 1.0
C      1  0.4151760000000  0.5585090000000  0.5052140000000 1.0
C      1  0.5404070000000  0.4028690000000  0.5211740000000 1.0
C      1  0.5829200000000  0.5404140000000  0.4672220000000 1.0
C      1  0.4226580000000  0.4524610000000  0.4559700000000 1.0
C      1  0.4968490000000  0.3977580000000  0.5063850000000 1.0
C      1  0.4892100000000  0.4770250000000  0.4405310000000 1.0
C      1  0.4825380000000  0.5533660000000  0.4283450000000 1.0
C      1  0.4399210000000  0.5281630000000  0.5716830000000 1.0
C      1  0.4238970000000  0.5076220000000  0.5573810000000 1.0
END
