TITL C-884141-4321-111 18.7925789431871 125000 -20263.3713765941 0 0 136 (C1) n - 1
REM
REM in /home/nfs/bkarasulu/CARBON/AIRSS/Generating-Clusters/ReaxFF-fromJPCA2015/Units_Real/with-SteepDescent/Only-C1/SD-CG/Try1-3A/FIRE-CG
REM
REM
REM
REM
REM
REM ./C.cell (11c1c37f851c82e70ff6c80c92926a4b)
REM
REM compiler GCC version 9.2.1 20190827 (Red Hat 9.2.1-1)
REM options -cpp -mtune=generic -march=x86-64 -g -O0 -fpre-include=/usr/include/finclude/math-vector-fortran.h
REM seed -1157428180 -1403148710 -263993261 -1591492622 1651844393 1125242738 1965167375 256902754 1156142993 -1914617482 -849878043 732033548 -1210702056 1696556955 -1792701141 -518986217 791994648 647712410 -129911514 -646647188 -1848600511 404083280 -1142809540 899403633 -389829387 365632325 -1040706394 1539677306 -431668881 1147613515 843591373 2045251510 -1322996484
REM
CELL 1.54180   50.00000   50.00000   50.00000   90.00000   90.00000   90.00000
LATT -1
SFAC C  
C      1  0.3899150000000  0.4954510000000  0.4887520000000 1.0
C      1  0.4600390000000  0.4337340000000  0.4454900000000 1.0
C      1  0.4993930000000  0.3952530000000  0.4927510000000 1.0
C      1  0.5157330000000  0.4290630000000  0.5526980000000 1.0
C      1  0.4565230000000  0.5373340000000  0.5261630000000 1.0
C      1  0.4759350000000  0.5815240000000  0.5570490000000 1.0
C      1  0.4818530000000  0.4627340000000  0.5970990000000 1.0
C      1  0.4475330000000  0.5077440000000  0.5160080000000 1.0
C      1  0.5795610000000  0.5697090000000  0.5049220000000 1.0
C      1  0.5113390000000  0.4518200000000  0.4207480000000 1.0
C      1  0.4190710000000  0.5240870000000  0.5500500000000 1.0
C      1  0.4729490000000  0.4866980000000  0.5591780000000 1.0
C      1  0.4464060000000  0.4985630000000  0.5896820000000 1.0
C      1  0.4896480000000  0.4143850000000  0.4726090000000 1.0
C      1  0.4375870000000  0.5162530000000  0.4656440000000 1.0
C      1  0.5454080000000  0.4353160000000  0.5561790000000 1.0
C      1  0.5002360000000  0.5189620000000  0.4436250000000 1.0
C      1  0.5791990000000  0.5408230000000  0.5487190000000 1.0
C      1  0.4904600000000  0.4657730000000  0.4661830000000 1.0
C      1  0.4832970000000  0.4417190000000  0.4250820000000 1.0
C      1  0.4914600000000  0.4398140000000  0.5906820000000 1.0
C      1  0.4820890000000  0.5286900000000  0.5368600000000 1.0
C      1  0.4661140000000  0.4904540000000  0.5317180000000 1.0
C      1  0.4555960000000  0.5484480000000  0.4312280000000 1.0
C      1  0.5760880000000  0.4488050000000  0.5204980000000 1.0
C      1  0.5212220000000  0.5423160000000  0.5581770000000 1.0
C      1  0.4418720000000  0.4920340000000  0.4079890000000 1.0
C      1  0.5142000000000  0.5356370000000  0.5031960000000 1.0
C      1  0.5231580000000  0.4840610000000  0.4988710000000 1.0
C      1  0.5469590000000  0.5785440000000  0.4617810000000 1.0
C      1  0.5208890000000  0.5892010000000  0.4721350000000 1.0
C      1  0.4583220000000  0.5577410000000  0.5040030000000 1.0
C      1  0.4308090000000  0.5664410000000  0.4732980000000 1.0
C      1  0.5287440000000  0.3947470000000  0.4907220000000 1.0
C      1  0.4884200000000  0.4018260000000  0.5190380000000 1.0
C      1  0.5948240000000  0.5217790000000  0.4784550000000 1.0
C      1  0.4381650000000  0.5465750000000  0.5485960000000 1.0
C      1  0.4564670000000  0.6007570000000  0.5081880000000 1.0
C      1  0.5385720000000  0.4046900000000  0.4664910000000 1.0
C      1  0.4688470000000  0.4617050000000  0.4153970000000 1.0
C      1  0.4771360000000  0.5599270000000  0.4848130000000 1.0
C      1  0.5527830000000  0.4581500000000  0.5732770000000 1.0
C      1  0.5301300000000  0.5811000000000  0.5195640000000 1.0
C      1  0.5052480000000  0.5002120000000  0.3934250000000 1.0
C      1  0.4619710000000  0.4705300000000  0.4740820000000 1.0
C      1  0.5193210000000  0.5252420000000  0.4008540000000 1.0
C      1  0.4214130000000  0.5382800000000  0.4768390000000 1.0
C      1  0.4859470000000  0.6042470000000  0.5098140000000 1.0
C      1  0.5180000000000  0.4594800000000  0.5112560000000 1.0
C      1  0.5497850000000  0.5679660000000  0.5028060000000 1.0
C      1  0.5353760000000  0.4131500000000  0.5150290000000 1.0
C      1  0.5021660000000  0.4170500000000  0.5826630000000 1.0
C      1  0.5187740000000  0.5353490000000  0.4577790000000 1.0
C      1  0.5945910000000  0.5251940000000  0.5315760000000 1.0
C      1  0.4303990000000  0.5149870000000  0.4026950000000 1.0
C      1  0.5453250000000  0.4876520000000  0.4127020000000 1.0
C      1  0.4609510000000  0.4177070000000  0.4688730000000 1.0
C      1  0.5124630000000  0.4093960000000  0.5325020000000 1.0
C      1  0.5738760000000  0.4806010000000  0.4508340000000 1.0
C      1  0.5131030000000  0.5690320000000  0.4275280000000 1.0
C      1  0.5306250000000  0.5706470000000  0.5498110000000 1.0
C      1  0.4756300000000  0.5785220000000  0.4624780000000 1.0
C      1  0.5603990000000  0.5020220000000  0.5170860000000 1.0
C      1  0.5534940000000  0.4410560000000  0.4772290000000 1.0
C      1  0.5017780000000  0.5476910000000  0.4114490000000 1.0
C      1  0.5583330000000  0.5044900000000  0.4569350000000 1.0
C      1  0.5377670000000  0.4763580000000  0.5925660000000 1.0
C      1  0.5048690000000  0.4839400000000  0.5973530000000 1.0
C      1  0.4428760000000  0.4674870000000  0.4208780000000 1.0
C      1  0.4670920000000  0.5192560000000  0.6000320000000 1.0
C      1  0.3970520000000  0.5207050000000  0.4736110000000 1.0
C      1  0.5710050000000  0.5647910000000  0.4672670000000 1.0
C      1  0.4620230000000  0.4145890000000  0.5226200000000 1.0
C      1  0.5123180000000  0.4556300000000  0.5380890000000 1.0
C      1  0.5434950000000  0.4973780000000  0.5435580000000 1.0
C      1  0.4603450000000  0.4535960000000  0.4985130000000 1.0
C      1  0.4409470000000  0.4559450000000  0.4512990000000 1.0
C      1  0.4856980000000  0.5095940000000  0.4858820000000 1.0
C      1  0.5613030000000  0.5262080000000  0.5039510000000 1.0
C      1  0.4962250000000  0.5370120000000  0.4818160000000 1.0
C      1  0.5891350000000  0.5380620000000  0.5038870000000 1.0
C      1  0.4501610000000  0.5695420000000  0.4516840000000 1.0
C      1  0.5744320000000  0.5306170000000  0.4571640000000 1.0
C      1  0.4914520000000  0.5090040000000  0.6108890000000 1.0
C      1  0.5588630000000  0.5355300000000  0.4311470000000 1.0
C      1  0.5774900000000  0.4503910000000  0.4907930000000 1.0
C      1  0.5455630000000  0.5173810000000  0.4132650000000 1.0
C      1  0.5672620000000  0.4796230000000  0.5593370000000 1.0
C      1  0.5364220000000  0.5553820000000  0.4412790000000 1.0
C      1  0.5581080000000  0.4938510000000  0.5943070000000 1.0
C      1  0.5183620000000  0.4816250000000  0.5478120000000 1.0
C      1  0.4727110000000  0.5441010000000  0.5831520000000 1.0
C      1  0.5889940000000  0.4724830000000  0.4751510000000 1.0
C      1  0.4004980000000  0.4788740000000  0.4666570000000 1.0
C      1  0.5575100000000  0.4676870000000  0.4296630000000 1.0
C      1  0.4320300000000  0.5115610000000  0.5711900000000 1.0
C      1  0.5193870000000  0.4760830000000  0.4052180000000 1.0
C      1  0.4018080000000  0.4864340000000  0.5142600000000 1.0
C      1  0.5841880000000  0.4720720000000  0.5367490000000 1.0
C      1  0.5021210000000  0.5839300000000  0.4503630000000 1.0
C      1  0.4126730000000  0.5035350000000  0.4546980000000 1.0
C      1  0.4391060000000  0.5335460000000  0.4143580000000 1.0
C      1  0.5007430000000  0.4941700000000  0.4656470000000 1.0
C      1  0.5489660000000  0.4258610000000  0.4516420000000 1.0
C      1  0.5266590000000  0.5213440000000  0.5389140000000 1.0
C      1  0.4190140000000  0.4415380000000  0.4942810000000 1.0
C      1  0.4706030000000  0.6007960000000  0.5338880000000 1.0
C      1  0.5119860000000  0.5919710000000  0.5006820000000 1.0
C      1  0.4106060000000  0.4577660000000  0.5167490000000 1.0
C      1  0.5501550000000  0.4884740000000  0.4963640000000 1.0
C      1  0.5268880000000  0.4384380000000  0.4924600000000 1.0
C      1  0.4571610000000  0.5022220000000  0.4839520000000 1.0
C      1  0.4554520000000  0.5606760000000  0.5670590000000 1.0
C      1  0.5765870000000  0.5771400000000  0.5322790000000 1.0
C      1  0.4438270000000  0.4474420000000  0.5615160000000 1.0
C      1  0.4922270000000  0.5376710000000  0.5618220000000 1.0
C      1  0.4806300000000  0.5329780000000  0.4260090000000 1.0
C      1  0.4577490000000  0.4707360000000  0.5798900000000 1.0
C      1  0.5935400000000  0.4964400000000  0.5215500000000 1.0
C      1  0.5044490000000  0.5804830000000  0.5629540000000 1.0
C      1  0.5568730000000  0.4294460000000  0.5310420000000 1.0
C      1  0.4475270000000  0.4264400000000  0.4957900000000 1.0
C      1  0.5981200000000  0.4960650000000  0.4896610000000 1.0
C      1  0.4157280000000  0.4539050000000  0.4686860000000 1.0
C      1  0.4553370000000  0.4283910000000  0.5451900000000 1.0
C      1  0.5638300000000  0.5638990000000  0.5536610000000 1.0
C      1  0.5402280000000  0.5415680000000  0.4924770000000 1.0
C      1  0.4993960000000  0.4888740000000  0.5680940000000 1.0
C      1  0.5033040000000  0.5172560000000  0.5216170000000 1.0
C      1  0.4553780000000  0.4651640000000  0.5241000000000 1.0
C      1  0.4294590000000  0.4598000000000  0.5394870000000 1.0
C      1  0.5028740000000  0.4407700000000  0.4734190000000 1.0
C      1  0.5379270000000  0.4457360000000  0.4313210000000 1.0
C      1  0.4390780000000  0.5788800000000  0.4988470000000 1.0
C      1  0.4191820000000  0.5070840000000  0.5251450000000 1.0
C      1  0.5333060000000  0.4958780000000  0.4734960000000 1.0
END
