TITL C-884133-6611-41 1076475.98038774 125000 -25780.5493587637 0 0 174 (C1) n - 1
REM
REM in /home/nfs/bkarasulu/CARBON/AIRSS/Generating-Clusters/ReaxFF-fromJPCA2015/Units_Real/with-SteepDescent/Only-C1/SD-CG/Try1-3A/FIRE-CG
REM
REM
REM
REM
REM
REM ./C.cell (11c1c37f851c82e70ff6c80c92926a4b)
REM
REM compiler GCC version 9.2.1 20190827 (Red Hat 9.2.1-1)
REM options -cpp -mtune=generic -march=x86-64 -g -O0 -fpre-include=/usr/include/finclude/math-vector-fortran.h
REM seed 1975537120 1835784420 -777614642 2088938466 1369962859 -1903068075 -1367313423 -909070847 -1326794449 -1902659428 191002831 105094103 955125251 1670385700 -256276897 2090112279 -190023438 1551842911 621010659 58079085 1847479463 -1484811889 -480068594 -1921121062 2133665465 2108087888 -1615880542 641553646 912473425 -1586354337 -1143100612 -1742465222 -1173398966
REM
CELL 1.54180   50.00000   50.00000   50.00000   90.00000   90.00000   90.00000
LATT -1
SFAC C  
C      1  0.4761820000000  0.4515040000000  0.5276800000000 1.0
C      1  0.5460280000000  0.4908440000000  0.4253020000000 1.0
C      1  0.4805220000000  0.4190800000000  0.4526390000000 1.0
C      1  0.4369210000000  0.5385540000000  0.5118260000000 1.0
C      1  0.4618400000000  0.4901800000000  0.4787380000000 1.0
C      1  0.5096190000000  0.5156500000000  0.3956090000000 1.0
C      1  0.5228340000000  0.5745130000000  0.5800880000000 1.0
C      1  0.4480900000000  0.5354600000000  0.4232390000000 1.0
C      1  0.5392160000000  0.4603980000000  0.5953560000000 1.0
C      1  0.5513070000000  0.5443070000000  0.4238190000000 1.0
C      1  0.4820540000000  0.6095010000000  0.4927550000000 1.0
C      1  0.5146400000000  0.3983570000000  0.4622610000000 1.0
C      1  0.5604360000000  0.4714500000000  0.5512840000000 1.0
C      1  0.5966630000000  0.5327090000000  0.5294400000000 1.0
C      1  0.4393040000000  0.4036700000000  0.5068040000000 1.0
C      1  0.4890920000000  0.5352330000000  0.3909510000000 1.0
C      1  0.4202770000000  0.5103840000000  0.5202800000000 1.0
C      1  0.4326150000000  0.4058880000000  0.4509170000000 1.0
C      1  0.4346320000000  0.4879120000000  0.5115840000000 1.0
C      1  0.5501730000000  0.5702930000000  0.4621080000000 1.0
C      1  0.4675170000000  0.5124480000000  0.3894040000000 1.0
C      1  0.5596950000000  0.4866190000000  0.4822090000000 1.0
C      1  0.5330510000000  0.4446770000000  0.4377870000000 1.0
C      1  0.4443550000000  0.5489700000000  0.5865960000000 1.0
C      1  0.5093890000000  0.5245660000000  0.5609250000000 1.0
C      1  0.5076730000000  0.4759350000000  0.5160250000000 1.0
C      1  0.5047980000000  0.5437440000000  0.4384290000000 1.0
C      1  0.4551830000000  0.4185790000000  0.4328850000000 1.0
C      1  0.5721310000000  0.5395430000000  0.5463900000000 1.0
C      1  0.5340320000000  0.4362830000000  0.4969210000000 1.0
C      1  0.5261760000000  0.3924790000000  0.4875090000000 1.0
C      1  0.5090370000000  0.4514210000000  0.4931040000000 1.0
C      1  0.5349930000000  0.5958830000000  0.5174870000000 1.0
C      1  0.4807360000000  0.5151720000000  0.5448400000000 1.0
C      1  0.4627850000000  0.5702650000000  0.4539340000000 1.0
C      1  0.4920950000000  0.6002100000000  0.5531320000000 1.0
C      1  0.5337390000000  0.4828900000000  0.4688780000000 1.0
C      1  0.4141540000000  0.5486610000000  0.4618850000000 1.0
C      1  0.5133130000000  0.4585070000000  0.5822950000000 1.0
C      1  0.4822050000000  0.5192390000000  0.5139060000000 1.0
C      1  0.5770050000000  0.5105130000000  0.4802510000000 1.0
C      1  0.5379800000000  0.5664100000000  0.4348250000000 1.0
C      1  0.5968510000000  0.5503750000000  0.4769470000000 1.0
C      1  0.5061350000000  0.5492440000000  0.5768900000000 1.0
C      1  0.4892850000000  0.5833590000000  0.4543950000000 1.0
C      1  0.5604140000000  0.4425480000000  0.5592410000000 1.0
C      1  0.4372260000000  0.4234930000000  0.5278430000000 1.0
C      1  0.4925880000000  0.4099800000000  0.5453690000000 1.0
C      1  0.5069740000000  0.4154480000000  0.4411980000000 1.0
C      1  0.5227600000000  0.5304020000000  0.4203550000000 1.0
C      1  0.4964260000000  0.4148350000000  0.5726920000000 1.0
C      1  0.5290160000000  0.6019940000000  0.4898910000000 1.0
C      1  0.3996630000000  0.5292750000000  0.4787930000000 1.0
C      1  0.4706750000000  0.4579780000000  0.3982850000000 1.0
C      1  0.4331520000000  0.5052510000000  0.5618280000000 1.0
C      1  0.5622400000000  0.4621530000000  0.5788600000000 1.0
C      1  0.3921320000000  0.5470070000000  0.5298270000000 1.0
C      1  0.5177970000000  0.4108880000000  0.5573250000000 1.0
C      1  0.4696460000000  0.4532630000000  0.5895420000000 1.0
C      1  0.4859360000000  0.5597720000000  0.4071940000000 1.0
C      1  0.4249020000000  0.5363910000000  0.5700380000000 1.0
C      1  0.5118780000000  0.5446340000000  0.6043790000000 1.0
C      1  0.3891100000000  0.4769640000000  0.4621280000000 1.0
C      1  0.5186030000000  0.5424770000000  0.5040560000000 1.0
C      1  0.5412920000000  0.4707170000000  0.4448060000000 1.0
C      1  0.4152490000000  0.5799120000000  0.5669790000000 1.0
C      1  0.5608710000000  0.5173310000000  0.5694150000000 1.0
C      1  0.4339120000000  0.5667830000000  0.4716970000000 1.0
C      1  0.5745160000000  0.5273060000000  0.4324550000000 1.0
C      1  0.4687080000000  0.5323790000000  0.5873080000000 1.0
C      1  0.4631620000000  0.5368100000000  0.5016440000000 1.0
C      1  0.5463550000000  0.4175720000000  0.4781120000000 1.0
C      1  0.6071880000000  0.4956220000000  0.5173180000000 1.0
C      1  0.5451580000000  0.4446330000000  0.4099170000000 1.0
C      1  0.4155620000000  0.4427560000000  0.5274250000000 1.0
C      1  0.4716200000000  0.5379950000000  0.5586080000000 1.0
C      1  0.5576610000000  0.4779990000000  0.5090180000000 1.0
C      1  0.6040660000000  0.5028450000000  0.4899390000000 1.0
C      1  0.4679260000000  0.4837870000000  0.3870860000000 1.0
C      1  0.4584320000000  0.4801310000000  0.5258590000000 1.0
C      1  0.5081350000000  0.4681130000000  0.4693830000000 1.0
C      1  0.4544670000000  0.5121150000000  0.4626430000000 1.0
C      1  0.4298140000000  0.4594890000000  0.5703040000000 1.0
C      1  0.5308570000000  0.5077310000000  0.5608030000000 1.0
C      1  0.4789760000000  0.4914740000000  0.5040570000000 1.0
C      1  0.5734820000000  0.4269770000000  0.4404950000000 1.0
C      1  0.4302480000000  0.5627170000000  0.4987780000000 1.0
C      1  0.4778640000000  0.5612250000000  0.5418020000000 1.0
C      1  0.4027710000000  0.4650040000000  0.4407650000000 1.0
C      1  0.4380680000000  0.4844430000000  0.5835080000000 1.0
C      1  0.6078890000000  0.4752300000000  0.4823000000000 1.0
C      1  0.5320280000000  0.4916150000000  0.5118480000000 1.0
C      1  0.5306940000000  0.5246760000000  0.6094740000000 1.0
C      1  0.4630580000000  0.5611030000000  0.4248960000000 1.0
C      1  0.4224310000000  0.5344110000000  0.4372830000000 1.0
C      1  0.5719370000000  0.4479760000000  0.4204810000000 1.0
C      1  0.5402060000000  0.4216760000000  0.5203470000000 1.0
C      1  0.5076990000000  0.5228910000000  0.4827170000000 1.0
C      1  0.5417160000000  0.5512470000000  0.4863090000000 1.0
C      1  0.5251720000000  0.5097900000000  0.4647730000000 1.0
C      1  0.5713780000000  0.4290980000000  0.5124780000000 1.0
C      1  0.4654060000000  0.5391830000000  0.4708360000000 1.0
C      1  0.4287410000000  0.4557000000000  0.4841160000000 1.0
C      1  0.4126880000000  0.4943560000000  0.5440930000000 1.0
C      1  0.5303450000000  0.5192730000000  0.5195960000000 1.0
C      1  0.4641370000000  0.4821880000000  0.5957690000000 1.0
C      1  0.4608530000000  0.4622080000000  0.4488540000000 1.0
C      1  0.4053880000000  0.5521590000000  0.5562440000000 1.0
C      1  0.4906160000000  0.3905590000000  0.5105080000000 1.0
C      1  0.5056260000000  0.4653220000000  0.5435750000000 1.0
C      1  0.4644050000000  0.6149760000000  0.5087140000000 1.0
C      1  0.4888300000000  0.4959420000000  0.4304410000000 1.0
C      1  0.5557890000000  0.5293590000000  0.5235270000000 1.0
C      1  0.5853780000000  0.4716250000000  0.4330910000000 1.0
C      1  0.5768940000000  0.4574200000000  0.5170520000000 1.0
C      1  0.5063910000000  0.5721280000000  0.4314380000000 1.0
C      1  0.5789150000000  0.5924310000000  0.4848770000000 1.0
C      1  0.5739470000000  0.4980670000000  0.4257230000000 1.0
C      1  0.4634170000000  0.5101950000000  0.4183440000000 1.0
C      1  0.3964910000000  0.5278310000000  0.5081070000000 1.0
C      1  0.5089550000000  0.5883640000000  0.5297150000000 1.0
C      1  0.5236590000000  0.5079870000000  0.4362310000000 1.0
C      1  0.4595410000000  0.4963010000000  0.5499810000000 1.0
C      1  0.5173960000000  0.3969590000000  0.5146010000000 1.0
C      1  0.4995370000000  0.4598640000000  0.4016320000000 1.0
C      1  0.5286790000000  0.4807190000000  0.5516490000000 1.0
C      1  0.4432420000000  0.5763200000000  0.5741550000000 1.0
C      1  0.4655140000000  0.3969730000000  0.5086960000000 1.0
C      1  0.5962860000000  0.5523110000000  0.5073430000000 1.0
C      1  0.4055110000000  0.4463120000000  0.4991880000000 1.0
C      1  0.5780010000000  0.4945550000000  0.5602050000000 1.0
C      1  0.4721280000000  0.4279130000000  0.4794670000000 1.0
C      1  0.4795410000000  0.5070240000000  0.5991950000000 1.0
C      1  0.4843800000000  0.4400410000000  0.5021900000000 1.0
C      1  0.5081020000000  0.5037000000000  0.6066550000000 1.0
C      1  0.4488070000000  0.6006810000000  0.5273120000000 1.0
C      1  0.4196670000000  0.4552080000000  0.4217930000000 1.0
C      1  0.4637700000000  0.5871170000000  0.5519740000000 1.0
C      1  0.4515130000000  0.4492920000000  0.4225650000000 1.0
C      1  0.5009430000000  0.6005060000000  0.4754250000000 1.0
C      1  0.5822830000000  0.5780040000000  0.5105730000000 1.0
C      1  0.5601100000000  0.5840250000000  0.5291110000000 1.0
C      1  0.5170460000000  0.4374360000000  0.4139630000000 1.0
C      1  0.5765040000000  0.4210830000000  0.4857690000000 1.0
C      1  0.5525360000000  0.5993980000000  0.4738300000000 1.0
C      1  0.4068010000000  0.5019480000000  0.4689210000000 1.0
C      1  0.5903270000000  0.4335470000000  0.4633220000000 1.0
C      1  0.4287140000000  0.5087290000000  0.4491730000000 1.0
C      1  0.5095670000000  0.6023420000000  0.5762630000000 1.0
C      1  0.5002060000000  0.5630270000000  0.5237040000000 1.0
C      1  0.3826850000000  0.4608110000000  0.4865950000000 1.0
C      1  0.5499470000000  0.5629820000000  0.5784790000000 1.0
C      1  0.4338140000000  0.4836260000000  0.4851250000000 1.0
C      1  0.4379090000000  0.5852340000000  0.5078610000000 1.0
C      1  0.4270980000000  0.4030100000000  0.4779490000000 1.0
C      1  0.5395290000000  0.4262540000000  0.5481250000000 1.0
C      1  0.5170430000000  0.4762260000000  0.6047790000000 1.0
C      1  0.5607320000000  0.5333770000000  0.4959990000000 1.0
C      1  0.4944330000000  0.4385960000000  0.5879010000000 1.0
C      1  0.5511560000000  0.5359490000000  0.5909390000000 1.0
C      1  0.5466750000000  0.4206270000000  0.4493160000000 1.0
C      1  0.5872900000000  0.5300870000000  0.4582650000000 1.0
C      1  0.4932310000000  0.5364240000000  0.4628360000000 1.0
C      1  0.4524620000000  0.4415060000000  0.5698140000000 1.0
C      1  0.4504280000000  0.4443040000000  0.4699810000000 1.0
C      1  0.4141970000000  0.4651780000000  0.5463970000000 1.0
C      1  0.5830000000000  0.5723700000000  0.4644780000000 1.0
C      1  0.5958390000000  0.5063160000000  0.5403460000000 1.0
C      1  0.4636420000000  0.4294360000000  0.5439900000000 1.0
C      1  0.6037480000000  0.4671670000000  0.5104770000000 1.0
C      1  0.5630080000000  0.5678100000000  0.5530040000000 1.0
C      1  0.4880060000000  0.4733120000000  0.4505390000000 1.0
C      1  0.5970270000000  0.4619410000000  0.4583040000000 1.0
C      1  0.5051150000000  0.4886370000000  0.4065930000000 1.0
END
