TITL C-883733-4178-298 16.8472398697891 125000 -15095.9245249693 0 0 103 (C1) n - 1
REM
REM in /home/nfs/bkarasulu/CARBON/AIRSS/Generating-Clusters/ReaxFF-fromJPCA2015/Units_Real/with-SteepDescent/Only-C1/SD-CG/Try1-3A/FIRE-CG
REM
REM
REM
REM
REM
REM ./C.cell (11c1c37f851c82e70ff6c80c92926a4b)
REM
REM compiler GCC version 9.2.1 20190827 (Red Hat 9.2.1-1)
REM options -cpp -mtune=generic -march=x86-64 -g -O0 -fpre-include=/usr/include/finclude/math-vector-fortran.h
REM seed 498672828 -2021357070 825270211 881724917 1852533753 596460166 -1154630952 -1180775851 383828612 1350896768 1589210503 -1801191360 -712025628 452085958 756897721 1588876907 -2034969701 -451148190 1018228911 13127061 -328679971 2075242261 -1571013243 1513920858 651796638 903690567 -1333007811 1467958522 623259257 1112331720 -927159106 998447348 1842201510
REM
CELL 1.54180   50.00000   50.00000   50.00000   90.00000   90.00000   90.00000
LATT -1
SFAC C  
C      1  0.4376220000000  0.4357890000000  0.5000700000000 1.0
C      1  0.4375690000000  0.4662910000000  0.4973810000000 1.0
C      1  0.4734530000000  0.5651990000000  0.4507220000000 1.0
C      1  0.5403320000000  0.4305640000000  0.4722030000000 1.0
C      1  0.5056260000000  0.4550350000000  0.5747330000000 1.0
C      1  0.5098680000000  0.5246720000000  0.5124470000000 1.0
C      1  0.5095310000000  0.5436620000000  0.4441370000000 1.0
C      1  0.4622500000000  0.5635200000000  0.5660210000000 1.0
C      1  0.5884510000000  0.5132570000000  0.4854310000000 1.0
C      1  0.5341990000000  0.4860020000000  0.4238100000000 1.0
C      1  0.5870630000000  0.4445170000000  0.4953120000000 1.0
C      1  0.5588660000000  0.5584950000000  0.5284070000000 1.0
C      1  0.4318470000000  0.5350170000000  0.4673660000000 1.0
C      1  0.5466400000000  0.5137480000000  0.4898950000000 1.0
C      1  0.5649310000000  0.5503620000000  0.4593660000000 1.0
C      1  0.5451650000000  0.4780370000000  0.5263610000000 1.0
C      1  0.4301570000000  0.5028020000000  0.5243430000000 1.0
C      1  0.4966500000000  0.4662700000000  0.5363080000000 1.0
C      1  0.5171980000000  0.4774450000000  0.5210220000000 1.0
C      1  0.5429330000000  0.5122570000000  0.4359680000000 1.0
C      1  0.5269070000000  0.4247940000000  0.5154350000000 1.0
C      1  0.4790190000000  0.5115360000000  0.4702800000000 1.0
C      1  0.5322240000000  0.5360600000000  0.4996550000000 1.0
C      1  0.5326540000000  0.4503070000000  0.5626390000000 1.0
C      1  0.5797100000000  0.5418340000000  0.4813890000000 1.0
C      1  0.5670680000000  0.4925950000000  0.5628790000000 1.0
C      1  0.5224400000000  0.4434300000000  0.4919070000000 1.0
C      1  0.4813540000000  0.4994010000000  0.5778710000000 1.0
C      1  0.5246750000000  0.4285510000000  0.5445560000000 1.0
C      1  0.5363760000000  0.5643790000000  0.4929300000000 1.0
C      1  0.4679630000000  0.5798890000000  0.5044190000000 1.0
C      1  0.4965000000000  0.4553620000000  0.4835710000000 1.0
C      1  0.4892040000000  0.5362880000000  0.5499090000000 1.0
C      1  0.4809240000000  0.4711900000000  0.5746690000000 1.0
C      1  0.4912350000000  0.4627520000000  0.4576580000000 1.0
C      1  0.4628300000000  0.5241930000000  0.5500610000000 1.0
C      1  0.5888060000000  0.4981080000000  0.5111990000000 1.0
C      1  0.4953840000000  0.5216670000000  0.5873690000000 1.0
C      1  0.5051150000000  0.4239960000000  0.4500990000000 1.0
C      1  0.5209170000000  0.5073750000000  0.5874260000000 1.0
C      1  0.5686360000000  0.4264050000000  0.4809360000000 1.0
C      1  0.5352120000000  0.5714730000000  0.5438850000000 1.0
C      1  0.5058810000000  0.4860260000000  0.4154790000000 1.0
C      1  0.5149680000000  0.5691790000000  0.5641200000000 1.0
C      1  0.5533870000000  0.4687370000000  0.5524880000000 1.0
C      1  0.4665310000000  0.5277970000000  0.4910560000000 1.0
C      1  0.5820740000000  0.5082960000000  0.5426950000000 1.0
C      1  0.5648670000000  0.5616060000000  0.4997240000000 1.0
C      1  0.4965750000000  0.5121050000000  0.4236160000000 1.0
C      1  0.4321350000000  0.4590450000000  0.5547150000000 1.0
C      1  0.4439550000000  0.4506640000000  0.4379190000000 1.0
C      1  0.4929470000000  0.5511390000000  0.5749680000000 1.0
C      1  0.4714670000000  0.4769630000000  0.5287680000000 1.0
C      1  0.4436020000000  0.5010540000000  0.4352420000000 1.0
C      1  0.4793720000000  0.4122890000000  0.4948250000000 1.0
C      1  0.5837720000000  0.4882530000000  0.4711320000000 1.0
C      1  0.4437310000000  0.5784620000000  0.5732880000000 1.0
C      1  0.4669860000000  0.4316480000000  0.5424400000000 1.0
C      1  0.4308930000000  0.5463600000000  0.4955110000000 1.0
C      1  0.4886440000000  0.5551050000000  0.4285650000000 1.0
C      1  0.5354470000000  0.5403720000000  0.4321310000000 1.0
C      1  0.4160590000000  0.4680700000000  0.5405070000000 1.0
C      1  0.5131660000000  0.5252570000000  0.5408600000000 1.0
C      1  0.5735860000000  0.5357170000000  0.5407700000000 1.0
C      1  0.4960280000000  0.4380500000000  0.5503900000000 1.0
C      1  0.5069970000000  0.4977230000000  0.5039900000000 1.0
C      1  0.4708180000000  0.4709790000000  0.5000680000000 1.0
C      1  0.4519690000000  0.5279470000000  0.4267580000000 1.0
C      1  0.4777250000000  0.5323210000000  0.4140070000000 1.0
C      1  0.5434420000000  0.5639210000000  0.4479410000000 1.0
C      1  0.4169620000000  0.4792630000000  0.5145150000000 1.0
C      1  0.4849750000000  0.4925700000000  0.4893380000000 1.0
C      1  0.4595410000000  0.4235240000000  0.5148070000000 1.0
C      1  0.4588270000000  0.4522580000000  0.5606600000000 1.0
C      1  0.4857380000000  0.4701970000000  0.4305300000000 1.0
C      1  0.4298580000000  0.5054710000000  0.4604710000000 1.0
C      1  0.5218220000000  0.5723650000000  0.4679210000000 1.0
C      1  0.4315740000000  0.4298040000000  0.4724260000000 1.0
C      1  0.4565260000000  0.4751060000000  0.4284520000000 1.0
C      1  0.4908670000000  0.5897280000000  0.5198550000000 1.0
C      1  0.5950870000000  0.4729120000000  0.4928420000000 1.0
C      1  0.5309790000000  0.4359830000000  0.4446370000000 1.0
C      1  0.5588870000000  0.4972740000000  0.5105050000000 1.0
C      1  0.5102220000000  0.5872110000000  0.5410310000000 1.0
C      1  0.4803100000000  0.4176460000000  0.4637640000000 1.0
C      1  0.5569910000000  0.4794660000000  0.4592780000000 1.0
C      1  0.4228800000000  0.4548240000000  0.4581550000000 1.0
C      1  0.4555550000000  0.4992320000000  0.5380540000000 1.0
C      1  0.4468680000000  0.5621020000000  0.5154040000000 1.0
C      1  0.5018710000000  0.4132870000000  0.5111110000000 1.0
C      1  0.4876620000000  0.5404800000000  0.5049960000000 1.0
C      1  0.4492780000000  0.5479280000000  0.4481830000000 1.0
C      1  0.4922550000000  0.5740480000000  0.4712370000000 1.0
C      1  0.5491640000000  0.5097910000000  0.5781320000000 1.0
C      1  0.4231330000000  0.4798430000000  0.4737790000000 1.0
C      1  0.5389990000000  0.5028150000000  0.4636490000000 1.0
C      1  0.4488390000000  0.5503640000000  0.5425260000000 1.0
C      1  0.5439420000000  0.4628850000000  0.4387680000000 1.0
C      1  0.4541990000000  0.4268450000000  0.4535150000000 1.0
C      1  0.5016060000000  0.5171190000000  0.4526020000000 1.0
C      1  0.4413510000000  0.5208850000000  0.5047950000000 1.0
C      1  0.4929140000000  0.5680020000000  0.4992590000000 1.0
C      1  0.5277910000000  0.5091630000000  0.5587860000000 1.0
END
