TITL C-884140-4336-222 4.13056465285151 125000 -13822.4753140618 0 0 92 (C1) n - 1
REM
REM in /home/nfs/bkarasulu/CARBON/AIRSS/Generating-Clusters/ReaxFF-fromJPCA2015/Units_Real/with-SteepDescent/Only-C1/SD-CG/Try1-3A/FIRE-CG
REM
REM
REM
REM
REM
REM ./C.cell (11c1c37f851c82e70ff6c80c92926a4b)
REM
REM compiler GCC version 9.2.1 20190827 (Red Hat 9.2.1-1)
REM options -cpp -mtune=generic -march=x86-64 -g -O0 -fpre-include=/usr/include/finclude/math-vector-fortran.h
REM seed -1783476741 1924715604 466411056 -2135447641 -664862979 -1292949939 1794919113 -328600535 -730669245 553267750 258149001 -712112596 -779651661 -1312090626 1732621739 -84649621 -1636871695 -963857654 -13442089 -1780579644 -75620439 605011595 1878796413 1934932682 -1114332042 -32463309 1911816027 532025217 -1364310425 -1415588804 971697052 -336415436 -1031157543
REM
CELL 1.54180   50.00000   50.00000   50.00000   90.00000   90.00000   90.00000
LATT -1
SFAC C  
C      1  0.4302180000000  0.4546150000000  0.4847510000000 1.0
C      1  0.4737720000000  0.4368710000000  0.5302750000000 1.0
C      1  0.4988990000000  0.4475280000000  0.5428040000000 1.0
C      1  0.4595340000000  0.5854430000000  0.4640180000000 1.0
C      1  0.4316080000000  0.5359430000000  0.4551430000000 1.0
C      1  0.5103230000000  0.4700960000000  0.4970790000000 1.0
C      1  0.4299780000000  0.4613120000000  0.5247430000000 1.0
C      1  0.5177010000000  0.4993560000000  0.4298670000000 1.0
C      1  0.4876090000000  0.5937000000000  0.5205650000000 1.0
C      1  0.4643090000000  0.4683940000000  0.5644780000000 1.0
C      1  0.5041640000000  0.5490220000000  0.4694630000000 1.0
C      1  0.5573970000000  0.4486330000000  0.4490860000000 1.0
C      1  0.5671220000000  0.5205720000000  0.5313900000000 1.0
C      1  0.4703080000000  0.5643990000000  0.5602090000000 1.0
C      1  0.5128730000000  0.4760380000000  0.5812600000000 1.0
C      1  0.4687210000000  0.5052080000000  0.5344180000000 1.0
C      1  0.4245080000000  0.5554890000000  0.5252180000000 1.0
C      1  0.5528400000000  0.5509640000000  0.4695690000000 1.0
C      1  0.5768770000000  0.4639550000000  0.4945630000000 1.0
C      1  0.4951470000000  0.5773980000000  0.5438240000000 1.0
C      1  0.5620080000000  0.4441280000000  0.4776910000000 1.0
C      1  0.4856580000000  0.4624540000000  0.4305780000000 1.0
C      1  0.4813400000000  0.5015540000000  0.4786050000000 1.0
C      1  0.4985400000000  0.4309220000000  0.4636520000000 1.0
C      1  0.4751320000000  0.4380310000000  0.4783480000000 1.0
C      1  0.4915800000000  0.4602860000000  0.5693900000000 1.0
C      1  0.5597340000000  0.5262420000000  0.4538260000000 1.0
C      1  0.4922640000000  0.5280650000000  0.4871810000000 1.0
C      1  0.4486620000000  0.5647170000000  0.5395400000000 1.0
C      1  0.5349310000000  0.4765670000000  0.4174210000000 1.0
C      1  0.5868910000000  0.5004220000000  0.5223950000000 1.0
C      1  0.5279880000000  0.5568400000000  0.4834960000000 1.0
C      1  0.5772830000000  0.5167160000000  0.4767030000000 1.0
C      1  0.5055200000000  0.4436110000000  0.4375630000000 1.0
C      1  0.4866920000000  0.5038180000000  0.4242530000000 1.0
C      1  0.5366960000000  0.4789750000000  0.4962860000000 1.0
C      1  0.5826490000000  0.4787180000000  0.5425770000000 1.0
C      1  0.4117090000000  0.4669640000000  0.5025480000000 1.0
C      1  0.4714380000000  0.5754080000000  0.5018780000000 1.0
C      1  0.4165560000000  0.5426490000000  0.4804770000000 1.0
C      1  0.5453030000000  0.4867710000000  0.4699050000000 1.0
C      1  0.5573630000000  0.5404810000000  0.5148850000000 1.0
C      1  0.4940880000000  0.5550270000000  0.4422600000000 1.0
C      1  0.5481450000000  0.5024920000000  0.5441910000000 1.0
C      1  0.4538450000000  0.5254170000000  0.5193580000000 1.0
C      1  0.5247550000000  0.5235500000000  0.5902890000000 1.0
C      1  0.5713400000000  0.5417690000000  0.4905130000000 1.0
C      1  0.4976890000000  0.4028890000000  0.5002550000000 1.0
C      1  0.5199790000000  0.4917840000000  0.4583520000000 1.0
C      1  0.4361550000000  0.4760020000000  0.4319220000000 1.0
C      1  0.4972670000000  0.5031450000000  0.5277720000000 1.0
C      1  0.4780460000000  0.5142700000000  0.5812310000000 1.0
C      1  0.5003240000000  0.4832940000000  0.4751240000000 1.0
C      1  0.4513680000000  0.4528360000000  0.5411070000000 1.0
C      1  0.4670790000000  0.5523900000000  0.5204160000000 1.0
C      1  0.5261300000000  0.4298840000000  0.5425840000000 1.0
C      1  0.5469510000000  0.5144580000000  0.4305040000000 1.0
C      1  0.4242990000000  0.5649340000000  0.4971080000000 1.0
C      1  0.5439330000000  0.4242120000000  0.4911850000000 1.0
C      1  0.5433420000000  0.4790010000000  0.5247450000000 1.0
C      1  0.5081500000000  0.4751260000000  0.5259220000000 1.0
C      1  0.4243380000000  0.5265160000000  0.5193520000000 1.0
C      1  0.5601480000000  0.4895280000000  0.4247410000000 1.0
C      1  0.5614500000000  0.4849120000000  0.5628060000000 1.0
C      1  0.5337060000000  0.4510790000000  0.4312460000000 1.0
C      1  0.5693150000000  0.4619810000000  0.5226280000000 1.0
C      1  0.4673400000000  0.4815100000000  0.4245310000000 1.0
C      1  0.4186000000000  0.4863230000000  0.4514310000000 1.0
C      1  0.5372410000000  0.5429190000000  0.5852730000000 1.0
C      1  0.5310430000000  0.5548840000000  0.5640180000000 1.0
C      1  0.5661990000000  0.4763390000000  0.4507570000000 1.0
C      1  0.4781060000000  0.5816090000000  0.4422980000000 1.0
C      1  0.5426480000000  0.4390180000000  0.5657300000000 1.0
C      1  0.5071620000000  0.5246940000000  0.5106820000000 1.0
C      1  0.4757760000000  0.4235150000000  0.5043190000000 1.0
C      1  0.5169110000000  0.4143340000000  0.4805580000000 1.0
C      1  0.4107530000000  0.5169080000000  0.4943390000000 1.0
C      1  0.5055650000000  0.5029920000000  0.5891910000000 1.0
C      1  0.4552160000000  0.4600900000000  0.4729590000000 1.0
C      1  0.4745240000000  0.5395870000000  0.5713390000000 1.0
C      1  0.5209280000000  0.5645910000000  0.5400750000000 1.0
C      1  0.4579980000000  0.4901130000000  0.4709520000000 1.0
C      1  0.5358660000000  0.4266170000000  0.5170940000000 1.0
C      1  0.4560440000000  0.5403530000000  0.4428840000000 1.0
C      1  0.5294220000000  0.5479720000000  0.5133170000000 1.0
C      1  0.4789870000000  0.5320500000000  0.4291460000000 1.0
C      1  0.4460530000000  0.5833060000000  0.4883380000000 1.0
C      1  0.5412040000000  0.4671310000000  0.5755410000000 1.0
C      1  0.4389180000000  0.5067620000000  0.4585230000000 1.0
C      1  0.4621900000000  0.4971130000000  0.5623830000000 1.0
C      1  0.4099900000000  0.4902300000000  0.4828750000000 1.0
C      1  0.5836310000000  0.4932660000000  0.4939140000000 1.0
END
