TITL C-884137-4758-160 0.810403882682322 125000 -7812.70614343854 0 0 53 (C1) n - 1
REM
REM in /home/nfs/bkarasulu/CARBON/AIRSS/Generating-Clusters/ReaxFF-fromJPCA2015/Units_Real/with-SteepDescent/Only-C1/SD-CG/Try1-3A/FIRE-CG
REM
REM
REM
REM
REM
REM ./C.cell (11c1c37f851c82e70ff6c80c92926a4b)
REM
REM compiler GCC version 9.2.1 20190827 (Red Hat 9.2.1-1)
REM options -cpp -mtune=generic -march=x86-64 -g -O0 -fpre-include=/usr/include/finclude/math-vector-fortran.h
REM seed 965763882 -1333084155 1665940290 -46215533 254202021 367899958 292415189 -1337760745 1307382255 -1453060395 367534881 1331548347 -288852512 -554803130 -1296439755 -1635557807 -1888705000 -1382932692 1709723140 -968179875 1872600058 -1157205886 366970061 -704913906 -61432285 -993250639 -267008305 433622369 -1397397096 -1198504354 2115080809 -628032268 -1353797747
REM
CELL 1.54180   50.00000   50.00000   50.00000   90.00000   90.00000   90.00000
LATT -1
SFAC C  
C      1  0.5104580000000  0.5160290000000  0.4779150000000 1.0
C      1  0.4894160000000  0.5015460000000  0.4663710000000 1.0
C      1  0.4956510000000  0.4681000000000  0.4972200000000 1.0
C      1  0.4607060000000  0.5360740000000  0.4596800000000 1.0
C      1  0.5132230000000  0.5552970000000  0.5247660000000 1.0
C      1  0.4704670000000  0.5674170000000  0.4994000000000 1.0
C      1  0.5145530000000  0.5122220000000  0.5054920000000 1.0
C      1  0.4722640000000  0.4621010000000  0.5557090000000 1.0
C      1  0.4476910000000  0.4986430000000  0.5251110000000 1.0
C      1  0.5076130000000  0.4862260000000  0.5153060000000 1.0
C      1  0.4684210000000  0.5536540000000  0.5468620000000 1.0
C      1  0.5527380000000  0.5398020000000  0.4703790000000 1.0
C      1  0.4797760000000  0.5190470000000  0.4448300000000 1.0
C      1  0.5670800000000  0.5243440000000  0.4939690000000 1.0
C      1  0.5026490000000  0.5623830000000  0.4738630000000 1.0
C      1  0.4426580000000  0.4762800000000  0.5087660000000 1.0
C      1  0.5102580000000  0.4575750000000  0.4599830000000 1.0
C      1  0.5599100000000  0.4707690000000  0.4868520000000 1.0
C      1  0.5675960000000  0.4975980000000  0.4872630000000 1.0
C      1  0.4855610000000  0.5008900000000  0.5652750000000 1.0
C      1  0.4522430000000  0.4710950000000  0.4682340000000 1.0
C      1  0.5078720000000  0.4724520000000  0.4361370000000 1.0
C      1  0.5287620000000  0.5337140000000  0.5169250000000 1.0
C      1  0.5554930000000  0.4704590000000  0.5145940000000 1.0
C      1  0.4510820000000  0.4280900000000  0.4966280000000 1.0
C      1  0.4427960000000  0.5233250000000  0.4801530000000 1.0
C      1  0.4461820000000  0.4977920000000  0.4706980000000 1.0
C      1  0.5021900000000  0.4399820000000  0.4972020000000 1.0
C      1  0.5306790000000  0.5139860000000  0.5557900000000 1.0
C      1  0.5392500000000  0.4660930000000  0.4619480000000 1.0
C      1  0.5588090000000  0.5489870000000  0.4482380000000 1.0
C      1  0.5173780000000  0.4711000000000  0.5398110000000 1.0
C      1  0.4622050000000  0.4902130000000  0.5505150000000 1.0
C      1  0.5555710000000  0.5285580000000  0.5204590000000 1.0
C      1  0.4849650000000  0.4737840000000  0.4714850000000 1.0
C      1  0.4979320000000  0.4744390000000  0.5636560000000 1.0
C      1  0.4398490000000  0.4552540000000  0.4905560000000 1.0
C      1  0.5192220000000  0.4978210000000  0.4292600000000 1.0
C      1  0.4792340000000  0.4383490000000  0.5399910000000 1.0
C      1  0.5480080000000  0.4796090000000  0.5398040000000 1.0
C      1  0.4999860000000  0.5688610000000  0.5023120000000 1.0
C      1  0.5206780000000  0.5398510000000  0.4618350000000 1.0
C      1  0.4468810000000  0.5245300000000  0.5099070000000 1.0
C      1  0.4794130000000  0.4216020000000  0.4958490000000 1.0
C      1  0.5059220000000  0.5233690000000  0.5632250000000 1.0
C      1  0.5545170000000  0.5093360000000  0.5431090000000 1.0
C      1  0.4562100000000  0.5501430000000  0.5192510000000 1.0
C      1  0.4974540000000  0.5489260000000  0.5485860000000 1.0
C      1  0.5088880000000  0.4407960000000  0.5284830000000 1.0
C      1  0.4642960000000  0.4214850000000  0.5217110000000 1.0
C      1  0.4734780000000  0.5604190000000  0.4706010000000 1.0
C      1  0.5462460000000  0.4857780000000  0.4406850000000 1.0
C      1  0.5076250000000  0.5238070000000  0.4373510000000 1.0
END
