TITL C-884130-5973-322 36.9126430293838 125000 -22817.6861209463 0 0 156 (C1) n - 1
REM
REM in /home/nfs/bkarasulu/CARBON/AIRSS/Generating-Clusters/ReaxFF-fromJPCA2015/Units_Real/with-SteepDescent/Only-C1/SD-CG/Try1-3A/FIRE-CG
REM
REM
REM
REM
REM
REM ./C.cell (11c1c37f851c82e70ff6c80c92926a4b)
REM
REM compiler GCC version 9.2.1 20190827 (Red Hat 9.2.1-1)
REM options -cpp -mtune=generic -march=x86-64 -g -O0 -fpre-include=/usr/include/finclude/math-vector-fortran.h
REM seed 859077992 760868142 -1809531311 -398223329 -1734978622 334880086 1211327545 -677930271 -331813351 -1534605320 -1278714808 1726038978 -589403183 499306170 -1961722961 863205330 693316104 52932439 -171124541 152715375 1851874360 1564707098 -1455032037 -2026679480 972337404 -662318865 -1334925824 -1747960254 482545615 1802981792 -1580936387 -1655156961 -100332846
REM
CELL 1.54180   50.00000   50.00000   50.00000   90.00000   90.00000   90.00000
LATT -1
SFAC C  
C      1  0.6042510000000  0.4816050000000  0.4951240000000 1.0
C      1  0.4801120000000  0.5370700000000  0.5621180000000 1.0
C      1  0.6010650000000  0.5265170000000  0.4654330000000 1.0
C      1  0.4616150000000  0.5417210000000  0.5409070000000 1.0
C      1  0.4331640000000  0.5273450000000  0.4325230000000 1.0
C      1  0.5248790000000  0.6072140000000  0.5010750000000 1.0
C      1  0.4617690000000  0.4426990000000  0.5614890000000 1.0
C      1  0.5335160000000  0.5661690000000  0.4883910000000 1.0
C      1  0.4293850000000  0.4494100000000  0.4447620000000 1.0
C      1  0.5685450000000  0.4695400000000  0.5601750000000 1.0
C      1  0.5328440000000  0.4516240000000  0.5267220000000 1.0
C      1  0.4355610000000  0.5736950000000  0.4676610000000 1.0
C      1  0.4913950000000  0.5824280000000  0.4337270000000 1.0
C      1  0.5850210000000  0.5528600000000  0.4593670000000 1.0
C      1  0.4784240000000  0.4453860000000  0.4085160000000 1.0
C      1  0.5379990000000  0.5234750000000  0.5849720000000 1.0
C      1  0.4844190000000  0.3958090000000  0.4568900000000 1.0
C      1  0.3898700000000  0.5183020000000  0.5319790000000 1.0
C      1  0.4762800000000  0.5153100000000  0.6056280000000 1.0
C      1  0.4984810000000  0.5246260000000  0.4798100000000 1.0
C      1  0.4456060000000  0.4242950000000  0.4487640000000 1.0
C      1  0.5948730000000  0.4539500000000  0.4970510000000 1.0
C      1  0.5632850000000  0.5322220000000  0.4316030000000 1.0
C      1  0.5312140000000  0.5246050000000  0.5545010000000 1.0
C      1  0.4468490000000  0.5293240000000  0.4069810000000 1.0
C      1  0.5125470000000  0.5042060000000  0.4565290000000 1.0
C      1  0.5184090000000  0.4097820000000  0.4350240000000 1.0
C      1  0.4693430000000  0.4113650000000  0.4375240000000 1.0
C      1  0.5108200000000  0.3840760000000  0.5423590000000 1.0
C      1  0.4082440000000  0.4924970000000  0.5051560000000 1.0
C      1  0.5019470000000  0.5488110000000  0.4631300000000 1.0
C      1  0.5210120000000  0.5438950000000  0.5959310000000 1.0
C      1  0.5722310000000  0.4929950000000  0.5786650000000 1.0
C      1  0.4617230000000  0.5039660000000  0.4044080000000 1.0
C      1  0.6064550000000  0.5332960000000  0.4905900000000 1.0
C      1  0.5627500000000  0.5730770000000  0.5254540000000 1.0
C      1  0.5409510000000  0.5099700000000  0.4564050000000 1.0
C      1  0.5316650000000  0.4591400000000  0.4609250000000 1.0
C      1  0.5081060000000  0.4451280000000  0.5162480000000 1.0
C      1  0.5866200000000  0.4775020000000  0.4528580000000 1.0
C      1  0.4817660000000  0.5706090000000  0.4098050000000 1.0
C      1  0.4301040000000  0.4742960000000  0.4290350000000 1.0
C      1  0.5594090000000  0.5547100000000  0.4463190000000 1.0
C      1  0.5196550000000  0.5650390000000  0.5729810000000 1.0
C      1  0.4853220000000  0.4453000000000  0.5820870000000 1.0
C      1  0.4444260000000  0.4120780000000  0.4752320000000 1.0
C      1  0.5862650000000  0.4432880000000  0.5231150000000 1.0
C      1  0.4474860000000  0.6224870000000  0.4800190000000 1.0
C      1  0.4475560000000  0.5693830000000  0.5464750000000 1.0
C      1  0.5062790000000  0.6005450000000  0.4781490000000 1.0
C      1  0.5576330000000  0.5162410000000  0.5324910000000 1.0
C      1  0.5006520000000  0.5185060000000  0.5546540000000 1.0
C      1  0.4322340000000  0.5074720000000  0.5620780000000 1.0
C      1  0.4812860000000  0.3944580000000  0.5335070000000 1.0
C      1  0.5726280000000  0.5900310000000  0.4899540000000 1.0
C      1  0.5135290000000  0.4233950000000  0.4119770000000 1.0
C      1  0.5496530000000  0.4129230000000  0.5012650000000 1.0
C      1  0.5506540000000  0.5099120000000  0.4832230000000 1.0
C      1  0.5257320000000  0.4098030000000  0.4846360000000 1.0
C      1  0.5300220000000  0.5644860000000  0.4592730000000 1.0
C      1  0.5529750000000  0.5076840000000  0.4301140000000 1.0
C      1  0.5146620000000  0.3974270000000  0.4593440000000 1.0
C      1  0.4812190000000  0.4016520000000  0.5050850000000 1.0
C      1  0.5401670000000  0.4318260000000  0.5472200000000 1.0
C      1  0.4242010000000  0.5355250000000  0.4909090000000 1.0
C      1  0.4559290000000  0.4859650000000  0.4718580000000 1.0
C      1  0.4841440000000  0.4179780000000  0.4118120000000 1.0
C      1  0.4358020000000  0.5667250000000  0.4963840000000 1.0
C      1  0.5138120000000  0.5892740000000  0.4521800000000 1.0
C      1  0.4070150000000  0.5261570000000  0.5533300000000 1.0
C      1  0.5936540000000  0.4599230000000  0.5463790000000 1.0
C      1  0.4671310000000  0.3943170000000  0.4807140000000 1.0
C      1  0.4190340000000  0.4373950000000  0.5189950000000 1.0
C      1  0.5708310000000  0.4833170000000  0.4294610000000 1.0
C      1  0.5403510000000  0.4496080000000  0.4355760000000 1.0
C      1  0.4435610000000  0.4848030000000  0.5758330000000 1.0
C      1  0.5651530000000  0.4869420000000  0.5294320000000 1.0
C      1  0.5783090000000  0.4560340000000  0.4726380000000 1.0
C      1  0.4933210000000  0.4893390000000  0.5140590000000 1.0
C      1  0.5027730000000  0.5842830000000  0.5625030000000 1.0
C      1  0.5050920000000  0.5119860000000  0.4295330000000 1.0
C      1  0.3956290000000  0.5331830000000  0.4842420000000 1.0
C      1  0.4712680000000  0.5256610000000  0.4922840000000 1.0
C      1  0.6045560000000  0.4874430000000  0.5461700000000 1.0
C      1  0.5932880000000  0.4929920000000  0.5199820000000 1.0
C      1  0.4351970000000  0.4252050000000  0.4994390000000 1.0
C      1  0.4364660000000  0.4585000000000  0.5653420000000 1.0
C      1  0.4960330000000  0.5365730000000  0.6090390000000 1.0
C      1  0.4736360000000  0.4632580000000  0.4272220000000 1.0
C      1  0.4030940000000  0.4760230000000  0.5302070000000 1.0
C      1  0.5462470000000  0.4716270000000  0.5106260000000 1.0
C      1  0.5163780000000  0.4768630000000  0.5630840000000 1.0
C      1  0.4625790000000  0.5081140000000  0.4544020000000 1.0
C      1  0.4867670000000  0.5988390000000  0.5440660000000 1.0
C      1  0.5088190000000  0.5946030000000  0.5215900000000 1.0
C      1  0.5802720000000  0.5309440000000  0.5462860000000 1.0
C      1  0.5512570000000  0.4600060000000  0.4809900000000 1.0
C      1  0.4473730000000  0.5127160000000  0.5377940000000 1.0
C      1  0.4134620000000  0.4419160000000  0.4921440000000 1.0
C      1  0.5588340000000  0.4594640000000  0.4189800000000 1.0
C      1  0.4994750000000  0.4226200000000  0.4929760000000 1.0
C      1  0.4764670000000  0.5472420000000  0.5151590000000 1.0
C      1  0.4576310000000  0.5003910000000  0.4992260000000 1.0
C      1  0.5861250000000  0.5561110000000  0.5321450000000 1.0
C      1  0.4842670000000  0.4140630000000  0.5544930000000 1.0
C      1  0.5031850000000  0.4515420000000  0.5598660000000 1.0
C      1  0.4654340000000  0.5519980000000  0.4039990000000 1.0
C      1  0.6018780000000  0.5557270000000  0.5066270000000 1.0
C      1  0.5280890000000  0.4720470000000  0.5899120000000 1.0
C      1  0.4953520000000  0.4679810000000  0.5971550000000 1.0
C      1  0.4236030000000  0.4876070000000  0.4687380000000 1.0
C      1  0.5066460000000  0.5444380000000  0.5228300000000 1.0
C      1  0.5106070000000  0.5124720000000  0.5074490000000 1.0
C      1  0.5923590000000  0.5716500000000  0.4821190000000 1.0
C      1  0.5467530000000  0.4967040000000  0.5921570000000 1.0
C      1  0.5538300000000  0.5970290000000  0.5077040000000 1.0
C      1  0.4845450000000  0.4479800000000  0.4806520000000 1.0
C      1  0.4527340000000  0.4764110000000  0.4099990000000 1.0
C      1  0.4319210000000  0.5097480000000  0.5091530000000 1.0
C      1  0.4160300000000  0.4593720000000  0.4684880000000 1.0
C      1  0.3815390000000  0.4702350000000  0.5427170000000 1.0
C      1  0.5139390000000  0.4108580000000  0.5538270000000 1.0
C      1  0.4192110000000  0.4553780000000  0.5406450000000 1.0
C      1  0.5312560000000  0.4517590000000  0.4083340000000 1.0
C      1  0.5330830000000  0.4952720000000  0.5001200000000 1.0
C      1  0.6001300000000  0.4968380000000  0.4695830000000 1.0
C      1  0.4803250000000  0.5590790000000  0.4483220000000 1.0
C      1  0.4967790000000  0.4647670000000  0.5001100000000 1.0
C      1  0.4936240000000  0.4946230000000  0.5654690000000 1.0
C      1  0.4468740000000  0.5525230000000  0.4497200000000 1.0
C      1  0.5467330000000  0.4497750000000  0.5730020000000 1.0
C      1  0.4522110000000  0.5304070000000  0.4695490000000 1.0
C      1  0.4263250000000  0.5725820000000  0.5287680000000 1.0
C      1  0.4612750000000  0.5877370000000  0.5428360000000 1.0
C      1  0.4772340000000  0.5090970000000  0.4288380000000 1.0
C      1  0.4652430000000  0.4576890000000  0.5356580000000 1.0
C      1  0.4658990000000  0.5716180000000  0.4993970000000 1.0
C      1  0.5257820000000  0.5036330000000  0.4110740000000 1.0
C      1  0.5550390000000  0.5554510000000  0.5031770000000 1.0
C      1  0.4743070000000  0.4892940000000  0.5893930000000 1.0
C      1  0.4731040000000  0.5391880000000  0.5900380000000 1.0
C      1  0.4679820000000  0.4876020000000  0.5285560000000 1.0
C      1  0.4918240000000  0.4476610000000  0.5363820000000 1.0
C      1  0.5124860000000  0.5688440000000  0.5079380000000 1.0
C      1  0.5912670000000  0.5087120000000  0.5622630000000 1.0
C      1  0.5237910000000  0.5520760000000  0.5466920000000 1.0
C      1  0.4516490000000  0.5996420000000  0.4668900000000 1.0
C      1  0.5580590000000  0.5271950000000  0.5044310000000 1.0
C      1  0.4808290000000  0.4659480000000  0.4587960000000 1.0
C      1  0.5071310000000  0.4755210000000  0.4607440000000 1.0
C      1  0.3860800000000  0.5119530000000  0.5044950000000 1.0
C      1  0.5627970000000  0.4243450000000  0.5250760000000 1.0
C      1  0.5198570000000  0.4798120000000  0.3976190000000 1.0
C      1  0.4773910000000  0.5935950000000  0.4852670000000 1.0
C      1  0.4123960000000  0.5513110000000  0.5408430000000 1.0
C      1  0.4237890000000  0.5008940000000  0.4416870000000 1.0
END
