TITL C-884136-4169-124 41.4861366050903 125000 -20846.4941203887 0 0 139 (C1) n - 1
REM
REM in /home/nfs/bkarasulu/CARBON/AIRSS/Generating-Clusters/ReaxFF-fromJPCA2015/Units_Real/with-SteepDescent/Only-C1/SD-CG/Try1-3A/FIRE-CG
REM
REM
REM
REM
REM
REM ./C.cell (11c1c37f851c82e70ff6c80c92926a4b)
REM
REM compiler GCC version 9.2.1 20190827 (Red Hat 9.2.1-1)
REM options -cpp -mtune=generic -march=x86-64 -g -O0 -fpre-include=/usr/include/finclude/math-vector-fortran.h
REM seed 594602798 -1019157368 -1921061680 -1548305342 738088207 -1645206147 108556154 1804461900 -1578819697 -295756286 -498667842 718322366 -933687716 1472265510 -1149683898 -1836480006 325379223 -920947711 -1006360847 981569416 -1190655000 1151584739 -1868759543 -717419476 776231491 1798995960 2121758249 310535764 626546165 -1190081482 -812399322 -2023883697 70640018
REM
CELL 1.54180   50.00000   50.00000   50.00000   90.00000   90.00000   90.00000
LATT -1
SFAC C  
C      1  0.4467410000000  0.4977110000000  0.5781540000000 1.0
C      1  0.5075370000000  0.4722300000000  0.4579730000000 1.0
C      1  0.4387320000000  0.5813030000000  0.5184280000000 1.0
C      1  0.4580740000000  0.5817650000000  0.5401800000000 1.0
C      1  0.5753830000000  0.5009580000000  0.4686820000000 1.0
C      1  0.5590470000000  0.4913070000000  0.5180720000000 1.0
C      1  0.4493340000000  0.5438050000000  0.5704170000000 1.0
C      1  0.4247530000000  0.4921490000000  0.5591400000000 1.0
C      1  0.4901130000000  0.4464330000000  0.5790590000000 1.0
C      1  0.4092080000000  0.5068250000000  0.5058950000000 1.0
C      1  0.5237840000000  0.5951330000000  0.5354710000000 1.0
C      1  0.5868390000000  0.5098430000000  0.5483650000000 1.0
C      1  0.5709480000000  0.5023450000000  0.4404540000000 1.0
C      1  0.5753380000000  0.5471530000000  0.5170580000000 1.0
C      1  0.5970320000000  0.5145870000000  0.4820740000000 1.0
C      1  0.4546530000000  0.4622800000000  0.4869360000000 1.0
C      1  0.4669840000000  0.5543610000000  0.4304870000000 1.0
C      1  0.5767210000000  0.4490200000000  0.4603250000000 1.0
C      1  0.4893460000000  0.4787320000000  0.5831540000000 1.0
C      1  0.4476840000000  0.5467510000000  0.4698670000000 1.0
C      1  0.4741250000000  0.5778220000000  0.4483490000000 1.0
C      1  0.5035090000000  0.5387920000000  0.5167080000000 1.0
C      1  0.5280240000000  0.5252950000000  0.5238570000000 1.0
C      1  0.5262850000000  0.5192230000000  0.4208610000000 1.0
C      1  0.5254130000000  0.5628960000000  0.5956540000000 1.0
C      1  0.4212340000000  0.5580360000000  0.5245670000000 1.0
C      1  0.5669470000000  0.4481100000000  0.4294210000000 1.0
C      1  0.4137140000000  0.5122650000000  0.4399450000000 1.0
C      1  0.4611000000000  0.5702710000000  0.5676020000000 1.0
C      1  0.4901800000000  0.5034760000000  0.5592300000000 1.0
C      1  0.5785400000000  0.5380670000000  0.5456730000000 1.0
C      1  0.5473030000000  0.5515940000000  0.5210120000000 1.0
C      1  0.4959990000000  0.5926850000000  0.5274320000000 1.0
C      1  0.5857280000000  0.5413580000000  0.4884880000000 1.0
C      1  0.4856100000000  0.4948090000000  0.4159480000000 1.0
C      1  0.5383770000000  0.4335780000000  0.4284130000000 1.0
C      1  0.5456920000000  0.5675540000000  0.4667030000000 1.0
C      1  0.5950820000000  0.4624570000000  0.5032730000000 1.0
C      1  0.5007880000000  0.5207580000000  0.4679280000000 1.0
C      1  0.4383950000000  0.4308620000000  0.4460750000000 1.0
C      1  0.4039120000000  0.4442480000000  0.4747150000000 1.0
C      1  0.5725490000000  0.5491320000000  0.4640430000000 1.0
C      1  0.4599940000000  0.4140060000000  0.4505980000000 1.0
C      1  0.5366650000000  0.5022530000000  0.5028890000000 1.0
C      1  0.5076030000000  0.5813210000000  0.5808750000000 1.0
C      1  0.4710720000000  0.5564270000000  0.5308850000000 1.0
C      1  0.6001590000000  0.4925220000000  0.5010900000000 1.0
C      1  0.5604310000000  0.4344440000000  0.5408090000000 1.0
C      1  0.5386990000000  0.4603930000000  0.5830400000000 1.0
C      1  0.4881560000000  0.4879500000000  0.4437370000000 1.0
C      1  0.5186860000000  0.4049110000000  0.5235720000000 1.0
C      1  0.4612540000000  0.5334160000000  0.5162020000000 1.0
C      1  0.5163540000000  0.4033640000000  0.4940360000000 1.0
C      1  0.5123370000000  0.5457020000000  0.4044830000000 1.0
C      1  0.4348250000000  0.4789550000000  0.4297340000000 1.0
C      1  0.4579740000000  0.5325660000000  0.4481040000000 1.0
C      1  0.5585850000000  0.5444890000000  0.5664410000000 1.0
C      1  0.4934960000000  0.5195600000000  0.5983410000000 1.0
C      1  0.5047360000000  0.4720970000000  0.5276930000000 1.0
C      1  0.5392790000000  0.4484760000000  0.4924140000000 1.0
C      1  0.5222410000000  0.4705730000000  0.5024810000000 1.0
C      1  0.5191410000000  0.5110240000000  0.5528680000000 1.0
C      1  0.4587090000000  0.4833610000000  0.4117250000000 1.0
C      1  0.4604660000000  0.4444460000000  0.5811590000000 1.0
C      1  0.5704160000000  0.4911590000000  0.5635470000000 1.0
C      1  0.5131180000000  0.4963550000000  0.4054370000000 1.0
C      1  0.4597840000000  0.4740310000000  0.5892540000000 1.0
C      1  0.4570210000000  0.5882980000000  0.4960900000000 1.0
C      1  0.4238590000000  0.4682390000000  0.5410960000000 1.0
C      1  0.4890490000000  0.5497040000000  0.4148140000000 1.0
C      1  0.4969310000000  0.5613330000000  0.5363260000000 1.0
C      1  0.5072310000000  0.5412540000000  0.4877160000000 1.0
C      1  0.4301440000000  0.4431760000000  0.4712950000000 1.0
C      1  0.4669400000000  0.5198010000000  0.5785550000000 1.0
C      1  0.4551550000000  0.5758350000000  0.4699610000000 1.0
C      1  0.4183470000000  0.4507610000000  0.5193560000000 1.0
C      1  0.4639380000000  0.4547400000000  0.4118760000000 1.0
C      1  0.4038010000000  0.5312980000000  0.4534570000000 1.0
C      1  0.5842120000000  0.5013530000000  0.5220600000000 1.0
C      1  0.4420820000000  0.5321530000000  0.4949450000000 1.0
C      1  0.5331660000000  0.4224560000000  0.4803770000000 1.0
C      1  0.3972090000000  0.5475760000000  0.4741500000000 1.0
C      1  0.5343170000000  0.4823060000000  0.5993980000000 1.0
C      1  0.4852340000000  0.5964310000000  0.5010040000000 1.0
C      1  0.5550180000000  0.4987030000000  0.5869790000000 1.0
C      1  0.5022370000000  0.4632180000000  0.4848750000000 1.0
C      1  0.4018810000000  0.4630040000000  0.4959090000000 1.0
C      1  0.4393710000000  0.4503140000000  0.4264110000000 1.0
C      1  0.4130720000000  0.4947250000000  0.5328940000000 1.0
C      1  0.5233480000000  0.5149330000000  0.4522730000000 1.0
C      1  0.4499340000000  0.4882610000000  0.4991210000000 1.0
C      1  0.5423600000000  0.4177790000000  0.5303860000000 1.0
C      1  0.4132080000000  0.5377700000000  0.5020400000000 1.0
C      1  0.4938590000000  0.3972470000000  0.4763590000000 1.0
C      1  0.4801230000000  0.4525970000000  0.5001620000000 1.0
C      1  0.4653630000000  0.4042260000000  0.4773350000000 1.0
C      1  0.5337880000000  0.5866600000000  0.4880550000000 1.0
C      1  0.5394220000000  0.5231800000000  0.5769220000000 1.0
C      1  0.5042460000000  0.4045930000000  0.4501790000000 1.0
C      1  0.4583210000000  0.4172060000000  0.5262230000000 1.0
C      1  0.5527130000000  0.4603410000000  0.4718460000000 1.0
C      1  0.4085990000000  0.4891320000000  0.4840020000000 1.0
C      1  0.5385280000000  0.4391280000000  0.5657150000000 1.0
C      1  0.5358670000000  0.4723030000000  0.4533680000000 1.0
C      1  0.5301640000000  0.5900420000000  0.5637260000000 1.0
C      1  0.4838650000000  0.4911060000000  0.5340000000000 1.0
C      1  0.5304520000000  0.4174110000000  0.4513140000000 1.0
C      1  0.5356360000000  0.5427720000000  0.4809930000000 1.0
C      1  0.5339810000000  0.5617190000000  0.4181500000000 1.0
C      1  0.5055930000000  0.4940380000000  0.6029320000000 1.0
C      1  0.4977850000000  0.4205310000000  0.5380960000000 1.0
C      1  0.5784230000000  0.4509470000000  0.5241400000000 1.0
C      1  0.5507040000000  0.5376170000000  0.4183250000000 1.0
C      1  0.4183070000000  0.4919510000000  0.4523540000000 1.0
C      1  0.4274040000000  0.5455760000000  0.5502680000000 1.0
C      1  0.4793520000000  0.4348080000000  0.5224630000000 1.0
C      1  0.5095760000000  0.4323260000000  0.5622230000000 1.0
C      1  0.4308460000000  0.4244660000000  0.5171330000000 1.0
C      1  0.5532120000000  0.4778610000000  0.5432720000000 1.0
C      1  0.4886930000000  0.4397060000000  0.4168230000000 1.0
C      1  0.5070590000000  0.5944030000000  0.4807380000000 1.0
C      1  0.5242590000000  0.4826290000000  0.5461240000000 1.0
C      1  0.4564630000000  0.4879880000000  0.4734650000000 1.0
C      1  0.5525150000000  0.4784140000000  0.4289700000000 1.0
C      1  0.4648280000000  0.5055410000000  0.5170280000000 1.0
C      1  0.5707080000000  0.5317380000000  0.4392170000000 1.0
C      1  0.4723500000000  0.5072910000000  0.4585220000000 1.0
C      1  0.5181020000000  0.5345470000000  0.5973470000000 1.0
C      1  0.5020390000000  0.5855760000000  0.4529430000000 1.0
C      1  0.5271680000000  0.5747390000000  0.4426650000000 1.0
C      1  0.5173000000000  0.4469390000000  0.4133890000000 1.0
C      1  0.5295670000000  0.4734210000000  0.4087250000000 1.0
C      1  0.4892680000000  0.5654220000000  0.5648860000000 1.0
C      1  0.4477800000000  0.4067320000000  0.5007080000000 1.0
C      1  0.5477240000000  0.5694220000000  0.5765750000000 1.0
C      1  0.4836410000000  0.4170450000000  0.4339180000000 1.0
C      1  0.5397170000000  0.5799470000000  0.5153560000000 1.0
C      1  0.5442270000000  0.5147390000000  0.4749470000000 1.0
C      1  0.6004640000000  0.4467760000000  0.4772320000000 1.0
END
