TITL C-883733-4178-154 -6.44075066751099 125000 -13443.6875231654 0 0 91 (C1) n - 1
REM
REM in /home/nfs/bkarasulu/CARBON/AIRSS/Generating-Clusters/ReaxFF-fromJPCA2015/Units_Real/with-SteepDescent/Only-C1/SD-CG/Try1-3A/FIRE-CG
REM
REM
REM
REM
REM
REM ./C.cell (11c1c37f851c82e70ff6c80c92926a4b)
REM
REM compiler GCC version 9.2.1 20190827 (Red Hat 9.2.1-1)
REM options -cpp -mtune=generic -march=x86-64 -g -O0 -fpre-include=/usr/include/finclude/math-vector-fortran.h
REM seed 2059490775 655104087 1056343169 666476837 80470509 561142600 808367183 -1099731873 672339848 122156468 -1508613858 568971240 -1875906948 2059035455 353805279 -544868173 1861557993 -336430293 -1827110155 -426094667 1869217671 1481872741 -241522650 677280691 -623856513 1720870475 -1752225040 -715514567 837879053 1720780758 414237020 1830054577 -2112694443
REM
CELL 1.54180   50.00000   50.00000   50.00000   90.00000   90.00000   90.00000
LATT -1
SFAC C  
C      1  0.5699470000000  0.4783020000000  0.5205090000000 1.0
C      1  0.5525270000000  0.4060070000000  0.5072990000000 1.0
C      1  0.4506040000000  0.5734930000000  0.5016230000000 1.0
C      1  0.5371560000000  0.5290010000000  0.5773910000000 1.0
C      1  0.5471230000000  0.5075620000000  0.4806800000000 1.0
C      1  0.4733900000000  0.5820670000000  0.4877260000000 1.0
C      1  0.4643130000000  0.4651790000000  0.4322730000000 1.0
C      1  0.5428990000000  0.4536190000000  0.4851660000000 1.0
C      1  0.5021850000000  0.5342330000000  0.5037820000000 1.0
C      1  0.4995840000000  0.5529100000000  0.4529340000000 1.0
C      1  0.5171950000000  0.4860780000000  0.5817720000000 1.0
C      1  0.5179200000000  0.5479680000000  0.5757830000000 1.0
C      1  0.4752520000000  0.4378620000000  0.4381360000000 1.0
C      1  0.5465400000000  0.4522930000000  0.4558340000000 1.0
C      1  0.5421880000000  0.5137830000000  0.5089390000000 1.0
C      1  0.4663000000000  0.4883710000000  0.4816920000000 1.0
C      1  0.5032530000000  0.4341830000000  0.5295590000000 1.0
C      1  0.4471080000000  0.4770080000000  0.5567450000000 1.0
C      1  0.5553390000000  0.5635000000000  0.4828030000000 1.0
C      1  0.4606020000000  0.5530900000000  0.5442100000000 1.0
C      1  0.4767550000000  0.4415500000000  0.5419220000000 1.0
C      1  0.5202020000000  0.5029070000000  0.4678390000000 1.0
C      1  0.5007070000000  0.5345030000000  0.5949030000000 1.0
C      1  0.5668990000000  0.5485950000000  0.5296530000000 1.0
C      1  0.4727350000000  0.5103510000000  0.4196700000000 1.0
C      1  0.4537470000000  0.5103340000000  0.5245980000000 1.0
C      1  0.5384360000000  0.5793050000000  0.5022770000000 1.0
C      1  0.5226360000000  0.4560110000000  0.4382650000000 1.0
C      1  0.5154880000000  0.4803400000000  0.4508520000000 1.0
C      1  0.5299520000000  0.5397800000000  0.5087730000000 1.0
C      1  0.5392660000000  0.5609120000000  0.5274540000000 1.0
C      1  0.5232410000000  0.5429310000000  0.4420540000000 1.0
C      1  0.5430750000000  0.4869840000000  0.5681900000000 1.0
C      1  0.4560090000000  0.4424080000000  0.4782500000000 1.0
C      1  0.4313740000000  0.5247810000000  0.4566910000000 1.0
C      1  0.4307580000000  0.4961440000000  0.4645380000000 1.0
C      1  0.4918490000000  0.4135490000000  0.4778520000000 1.0
C      1  0.5035570000000  0.4324100000000  0.4324330000000 1.0
C      1  0.4943370000000  0.4811210000000  0.5135460000000 1.0
C      1  0.5574730000000  0.5124810000000  0.5677080000000 1.0
C      1  0.4812220000000  0.4634960000000  0.4782610000000 1.0
C      1  0.4282060000000  0.5128510000000  0.5125890000000 1.0
C      1  0.5306590000000  0.4434890000000  0.5332470000000 1.0
C      1  0.5784560000000  0.4816810000000  0.4687900000000 1.0
C      1  0.5332680000000  0.4946630000000  0.5283830000000 1.0
C      1  0.5120060000000  0.5853630000000  0.5006580000000 1.0
C      1  0.4258900000000  0.5460150000000  0.4756990000000 1.0
C      1  0.4884100000000  0.5858860000000  0.5139290000000 1.0
C      1  0.4325380000000  0.4606800000000  0.5379240000000 1.0
C      1  0.4985650000000  0.5062330000000  0.5945010000000 1.0
C      1  0.4848290000000  0.5671360000000  0.5388650000000 1.0
C      1  0.5009150000000  0.5038500000000  0.4122650000000 1.0
C      1  0.4443080000000  0.5056950000000  0.5500570000000 1.0
C      1  0.4258400000000  0.4657680000000  0.5087420000000 1.0
C      1  0.5465120000000  0.4706700000000  0.5405390000000 1.0
C      1  0.5098980000000  0.5517860000000  0.5456270000000 1.0
C      1  0.5744780000000  0.5487860000000  0.5016160000000 1.0
C      1  0.4991140000000  0.5188790000000  0.4798000000000 1.0
C      1  0.5403750000000  0.5529340000000  0.4614900000000 1.0
C      1  0.4736500000000  0.5121430000000  0.4706760000000 1.0
C      1  0.5480140000000  0.4966240000000  0.4294630000000 1.0
C      1  0.4770560000000  0.5229480000000  0.5841690000000 1.0
C      1  0.4376800000000  0.4553430000000  0.4637560000000 1.0
C      1  0.4981670000000  0.5281160000000  0.5316830000000 1.0
C      1  0.4675350000000  0.5054320000000  0.4458470000000 1.0
C      1  0.4687790000000  0.4913940000000  0.5101130000000 1.0
C      1  0.5858900000000  0.5224530000000  0.4978630000000 1.0
C      1  0.5003250000000  0.4321680000000  0.5000520000000 1.0
C      1  0.4501190000000  0.4382570000000  0.5299860000000 1.0
C      1  0.5724730000000  0.5233700000000  0.5427180000000 1.0
C      1  0.4753640000000  0.5614170000000  0.4634710000000 1.0
C      1  0.4395650000000  0.5595830000000  0.5229980000000 1.0
C      1  0.4796640000000  0.4822870000000  0.4136260000000 1.0
C      1  0.4608430000000  0.5279560000000  0.5602640000000 1.0
C      1  0.5816080000000  0.5052080000000  0.5222570000000 1.0
C      1  0.5755860000000  0.5102770000000  0.4733670000000 1.0
C      1  0.4678930000000  0.4219810000000  0.4619740000000 1.0
C      1  0.4487400000000  0.5493390000000  0.4577670000000 1.0
C      1  0.5058000000000  0.4979680000000  0.5354060000000 1.0
C      1  0.5060050000000  0.4608950000000  0.4936380000000 1.0
C      1  0.5060590000000  0.4138120000000  0.4532900000000 1.0
C      1  0.5251030000000  0.5143840000000  0.4252180000000 1.0
C      1  0.4399240000000  0.4409730000000  0.5022270000000 1.0
C      1  0.4247870000000  0.5410460000000  0.5049680000000 1.0
C      1  0.4974220000000  0.4806790000000  0.5616410000000 1.0
C      1  0.5622470000000  0.4751880000000  0.4450470000000 1.0
C      1  0.4385380000000  0.4745550000000  0.4443600000000 1.0
C      1  0.4735100000000  0.4640010000000  0.5603270000000 1.0
C      1  0.5452960000000  0.4312050000000  0.5099640000000 1.0
C      1  0.5666910000000  0.4684470000000  0.4932580000000 1.0
C      1  0.4242570000000  0.4907820000000  0.4933040000000 1.0
END
