TITL C-883734-4173-269 15.345380816461 125000 -17266.3791842726 0 0 119 (C1) n - 1
REM
REM in /home/nfs/bkarasulu/CARBON/AIRSS/Generating-Clusters/ReaxFF-fromJPCA2015/Units_Real/with-SteepDescent/Only-C1/SD-CG/Try1-3A/FIRE-CG
REM
REM
REM
REM
REM
REM ./C.cell (11c1c37f851c82e70ff6c80c92926a4b)
REM
REM compiler GCC version 9.2.1 20190827 (Red Hat 9.2.1-1)
REM options -cpp -mtune=generic -march=x86-64 -g -O0 -fpre-include=/usr/include/finclude/math-vector-fortran.h
REM seed 1444843565 1414068030 -742544911 -1569897292 1175982109 -912466754 854565516 -1940799137 -2120159071 706775937 955545414 -1820789371 554531816 314844078 -696613360 1606102631 648769513 -1357487381 -22355282 932840982 -623490879 1621044995 -1440171255 -1451519097 354982914 1068682685 795463931 2119797749 598096343 1091551430 1718862973 -1448208942 1475729559
REM
CELL 1.54180   50.00000   50.00000   50.00000   90.00000   90.00000   90.00000
LATT -1
SFAC C  
C      1  0.5560070000000  0.4790390000000  0.5738210000000 1.0
C      1  0.5471100000000  0.4484520000000  0.5689420000000 1.0
C      1  0.4055690000000  0.5240840000000  0.5060870000000 1.0
C      1  0.4609450000000  0.5613480000000  0.4533130000000 1.0
C      1  0.5259560000000  0.5665100000000  0.5365610000000 1.0
C      1  0.4851710000000  0.4095090000000  0.4808270000000 1.0
C      1  0.4748930000000  0.5499860000000  0.5640720000000 1.0
C      1  0.5461950000000  0.5255970000000  0.5731100000000 1.0
C      1  0.5215060000000  0.5680790000000  0.4649620000000 1.0
C      1  0.4154340000000  0.4679350000000  0.5137810000000 1.0
C      1  0.4346810000000  0.5355460000000  0.5460900000000 1.0
C      1  0.4603320000000  0.5757000000000  0.4794950000000 1.0
C      1  0.4818400000000  0.5894230000000  0.4949000000000 1.0
C      1  0.5546080000000  0.5656470000000  0.4731830000000 1.0
C      1  0.4554170000000  0.4461210000000  0.5598750000000 1.0
C      1  0.5822850000000  0.4687460000000  0.5039800000000 1.0
C      1  0.4850910000000  0.4722930000000  0.4924220000000 1.0
C      1  0.4767510000000  0.4333250000000  0.5454380000000 1.0
C      1  0.5268920000000  0.5012260000000  0.4755020000000 1.0
C      1  0.5305670000000  0.5906300000000  0.5041800000000 1.0
C      1  0.5348260000000  0.4835720000000  0.5553680000000 1.0
C      1  0.4449350000000  0.4631520000000  0.4164890000000 1.0
C      1  0.5403750000000  0.4423620000000  0.4956110000000 1.0
C      1  0.5184340000000  0.4154550000000  0.5180570000000 1.0
C      1  0.4152560000000  0.5176450000000  0.5334900000000 1.0
C      1  0.4986680000000  0.5922510000000  0.5443670000000 1.0
C      1  0.5604480000000  0.5308440000000  0.4390860000000 1.0
C      1  0.4338820000000  0.4681350000000  0.4454190000000 1.0
C      1  0.5897710000000  0.5242540000000  0.5144080000000 1.0
C      1  0.4846820000000  0.5097330000000  0.5038690000000 1.0
C      1  0.5268740000000  0.4646770000000  0.5093600000000 1.0
C      1  0.5038320000000  0.4275680000000  0.5423260000000 1.0
C      1  0.4436750000000  0.5159330000000  0.4328160000000 1.0
C      1  0.5233150000000  0.4402190000000  0.4633590000000 1.0
C      1  0.5096140000000  0.4856360000000  0.5662250000000 1.0
C      1  0.4552490000000  0.5281130000000  0.5661510000000 1.0
C      1  0.4240840000000  0.4556390000000  0.4677260000000 1.0
C      1  0.5601760000000  0.4781450000000  0.4286020000000 1.0
C      1  0.5134330000000  0.4079090000000  0.4894100000000 1.0
C      1  0.5124290000000  0.4718010000000  0.4096290000000 1.0
C      1  0.5142490000000  0.5586990000000  0.4369000000000 1.0
C      1  0.4755040000000  0.5014360000000  0.5910070000000 1.0
C      1  0.5002880000000  0.5474130000000  0.4738370000000 1.0
C      1  0.5699850000000  0.5028790000000  0.4408250000000 1.0
C      1  0.4493610000000  0.5014540000000  0.4792650000000 1.0
C      1  0.4351140000000  0.4476950000000  0.3980070000000 1.0
C      1  0.4967990000000  0.4970090000000  0.5423190000000 1.0
C      1  0.5420130000000  0.5881010000000  0.5322560000000 1.0
C      1  0.4401620000000  0.5404040000000  0.4482870000000 1.0
C      1  0.4567650000000  0.4577910000000  0.5871460000000 1.0
C      1  0.4904750000000  0.4596570000000  0.4213650000000 1.0
C      1  0.4505160000000  0.4243150000000  0.5139570000000 1.0
C      1  0.5430500000000  0.4300250000000  0.4446330000000 1.0
C      1  0.5182530000000  0.5309080000000  0.5835090000000 1.0
C      1  0.5705060000000  0.5471640000000  0.4614300000000 1.0
C      1  0.4388970000000  0.4241470000000  0.4883900000000 1.0
C      1  0.4192530000000  0.5310420000000  0.4669350000000 1.0
C      1  0.4220000000000  0.5443450000000  0.4915780000000 1.0
C      1  0.5019830000000  0.5528690000000  0.5720490000000 1.0
C      1  0.5667710000000  0.5052320000000  0.5653080000000 1.0
C      1  0.5724870000000  0.5046350000000  0.4698300000000 1.0
C      1  0.5480460000000  0.5179120000000  0.4812450000000 1.0
C      1  0.5800250000000  0.5061000000000  0.5363320000000 1.0
C      1  0.4725850000000  0.5056500000000  0.5299090000000 1.0
C      1  0.4066890000000  0.5056760000000  0.4831250000000 1.0
C      1  0.5629680000000  0.4520200000000  0.4417270000000 1.0
C      1  0.5560080000000  0.5425660000000  0.5270190000000 1.0
C      1  0.4937450000000  0.4745500000000  0.4646930000000 1.0
C      1  0.5700250000000  0.4449320000000  0.4927540000000 1.0
C      1  0.4249200000000  0.4911210000000  0.5280160000000 1.0
C      1  0.5037670000000  0.5070600000000  0.5893920000000 1.0
C      1  0.5109350000000  0.5198790000000  0.5357530000000 1.0
C      1  0.4841800000000  0.5574130000000  0.4349100000000 1.0
C      1  0.4726300000000  0.5136400000000  0.4784220000000 1.0
C      1  0.4591490000000  0.4997970000000  0.5678990000000 1.0
C      1  0.5459060000000  0.4241090000000  0.5197610000000 1.0
C      1  0.4920830000000  0.4483900000000  0.4520100000000 1.0
C      1  0.5716290000000  0.4816790000000  0.5253280000000 1.0
C      1  0.5385470000000  0.5276360000000  0.5454130000000 1.0
C      1  0.5453120000000  0.4697970000000  0.5332360000000 1.0
C      1  0.4463290000000  0.4739130000000  0.5662710000000 1.0
C      1  0.4711730000000  0.4292330000000  0.4629390000000 1.0
C      1  0.4492730000000  0.4938040000000  0.5119070000000 1.0
C      1  0.4407110000000  0.4520240000000  0.5180530000000 1.0
C      1  0.5322130000000  0.5353940000000  0.4297390000000 1.0
C      1  0.5239760000000  0.5623230000000  0.5079190000000 1.0
C      1  0.5139410000000  0.5754860000000  0.5574500000000 1.0
C      1  0.4916400000000  0.4469340000000  0.4953290000000 1.0
C      1  0.4671330000000  0.5088570000000  0.4168200000000 1.0
C      1  0.4651530000000  0.5704610000000  0.5442060000000 1.0
C      1  0.4811360000000  0.4718860000000  0.5962220000000 1.0
C      1  0.4495170000000  0.5560400000000  0.5001810000000 1.0
C      1  0.5276720000000  0.4842010000000  0.4926680000000 1.0
C      1  0.5864440000000  0.4802940000000  0.4783300000000 1.0
C      1  0.5034720000000  0.4596180000000  0.5822580000000 1.0
C      1  0.5181710000000  0.4400280000000  0.5670750000000 1.0
C      1  0.5725340000000  0.5691260000000  0.4970840000000 1.0
C      1  0.4434270000000  0.4357370000000  0.4666220000000 1.0
C      1  0.5028770000000  0.5287490000000  0.5087810000000 1.0
C      1  0.4118130000000  0.4768280000000  0.4863940000000 1.0
C      1  0.5543500000000  0.4403360000000  0.5426820000000 1.0
C      1  0.5092800000000  0.5907640000000  0.4843890000000 1.0
C      1  0.5407360000000  0.5373500000000  0.5021930000000 1.0
C      1  0.4377290000000  0.4952740000000  0.4532330000000 1.0
C      1  0.5787760000000  0.4544900000000  0.4660080000000 1.0
C      1  0.4717630000000  0.4798090000000  0.4120510000000 1.0
C      1  0.4437920000000  0.5578450000000  0.5297940000000 1.0
C      1  0.4605310000000  0.4695430000000  0.5071730000000 1.0
C      1  0.5080350000000  0.4982520000000  0.4534140000000 1.0
C      1  0.4914660000000  0.5236270000000  0.4566650000000 1.0
C      1  0.4846510000000  0.5480740000000  0.4973630000000 1.0
C      1  0.4848900000000  0.5298280000000  0.4267520000000 1.0
C      1  0.5310520000000  0.4119930000000  0.4657080000000 1.0
C      1  0.4801280000000  0.4239790000000  0.5064460000000 1.0
C      1  0.5648700000000  0.5706370000000  0.5256140000000 1.0
C      1  0.5228620000000  0.5081920000000  0.4265180000000 1.0
C      1  0.5366710000000  0.4864150000000  0.4120140000000 1.0
C      1  0.4794810000000  0.5897330000000  0.5250830000000 1.0
C      1  0.5855450000000  0.5435380000000  0.4925660000000 1.0
END
