TITL C-883733-4178-142 11.9186234941507 125000 -17554.9372521088 0 0 118 (C1) n - 1
REM
REM in /home/nfs/bkarasulu/CARBON/AIRSS/Generating-Clusters/ReaxFF-fromJPCA2015/Units_Real/with-SteepDescent/Only-C1/SD-CG/Try1-3A/FIRE-CG
REM
REM
REM
REM
REM
REM ./C.cell (11c1c37f851c82e70ff6c80c92926a4b)
REM
REM compiler GCC version 9.2.1 20190827 (Red Hat 9.2.1-1)
REM options -cpp -mtune=generic -march=x86-64 -g -O0 -fpre-include=/usr/include/finclude/math-vector-fortran.h
REM seed -529780884 2131907729 -1584402201 241327191 -810622619 474897538 992691734 578703693 -1825078656 -1896607184 -2145157324 1444547562 1257140741 -1776308899 -361418382 -1711317237 846918450 145578854 -579364878 2099889808 1867235632 941034908 -1166999184 437410903 -1810515159 -401854956 1254789606 -384513947 1085328088 -1446900677 1232160661 254404428 -313122288
REM
CELL 1.54180   50.00000   50.00000   50.00000   90.00000   90.00000   90.00000
LATT -1
SFAC C  
C      1  0.4488480000000  0.5478400000000  0.5752360000000 1.0
C      1  0.5898420000000  0.5269680000000  0.5373680000000 1.0
C      1  0.5823150000000  0.4864570000000  0.5133690000000 1.0
C      1  0.5535140000000  0.5708010000000  0.4802020000000 1.0
C      1  0.5507700000000  0.5300210000000  0.5596270000000 1.0
C      1  0.4411720000000  0.5177370000000  0.5769890000000 1.0
C      1  0.5610780000000  0.4638490000000  0.4423340000000 1.0
C      1  0.5586790000000  0.4916770000000  0.4295420000000 1.0
C      1  0.4881370000000  0.4927050000000  0.5875560000000 1.0
C      1  0.4728080000000  0.5864480000000  0.5082350000000 1.0
C      1  0.4602440000000  0.4559450000000  0.4321220000000 1.0
C      1  0.4915660000000  0.4830380000000  0.4582980000000 1.0
C      1  0.4845120000000  0.4667500000000  0.5715150000000 1.0
C      1  0.4508670000000  0.5730610000000  0.5072230000000 1.0
C      1  0.5370570000000  0.5386090000000  0.5140240000000 1.0
C      1  0.4491000000000  0.4315780000000  0.5589190000000 1.0
C      1  0.4282360000000  0.5488050000000  0.5326860000000 1.0
C      1  0.4916330000000  0.5500840000000  0.4918850000000 1.0
C      1  0.4863390000000  0.5027320000000  0.4369110000000 1.0
C      1  0.4548050000000  0.4553700000000  0.5742130000000 1.0
C      1  0.5296400000000  0.4029410000000  0.5084400000000 1.0
C      1  0.4819990000000  0.5297530000000  0.4744210000000 1.0
C      1  0.5148560000000  0.4660080000000  0.4932590000000 1.0
C      1  0.5533440000000  0.4187990000000  0.5025920000000 1.0
C      1  0.4746110000000  0.4045860000000  0.5185360000000 1.0
C      1  0.4389600000000  0.5481940000000  0.4876400000000 1.0
C      1  0.4393950000000  0.4897290000000  0.5115940000000 1.0
C      1  0.4565570000000  0.5087750000000  0.4280970000000 1.0
C      1  0.4887960000000  0.4715460000000  0.5424190000000 1.0
C      1  0.4744690000000  0.4556710000000  0.5238900000000 1.0
C      1  0.5405690000000  0.4667680000000  0.5111280000000 1.0
C      1  0.4698100000000  0.5117160000000  0.5743150000000 1.0
C      1  0.4691370000000  0.4727910000000  0.4762850000000 1.0
C      1  0.4997090000000  0.5086690000000  0.5069410000000 1.0
C      1  0.4598550000000  0.4067940000000  0.4925380000000 1.0
C      1  0.5691950000000  0.4570950000000  0.4699900000000 1.0
C      1  0.5271750000000  0.4728170000000  0.5958610000000 1.0
C      1  0.5097680000000  0.4512900000000  0.5843660000000 1.0
C      1  0.5237430000000  0.5204920000000  0.5683610000000 1.0
C      1  0.4157880000000  0.5090230000000  0.4801040000000 1.0
C      1  0.5720380000000  0.5117980000000  0.5548040000000 1.0
C      1  0.4228150000000  0.4580260000000  0.4677170000000 1.0
C      1  0.5660120000000  0.4740340000000  0.4936330000000 1.0
C      1  0.4398330000000  0.5775310000000  0.5331220000000 1.0
C      1  0.5001680000000  0.4142000000000  0.5503530000000 1.0
C      1  0.5444600000000  0.5972350000000  0.4911300000000 1.0
C      1  0.5073850000000  0.4592900000000  0.4485360000000 1.0
C      1  0.4789740000000  0.5522170000000  0.4321130000000 1.0
C      1  0.4546180000000  0.4956590000000  0.4894420000000 1.0
C      1  0.5166090000000  0.4519610000000  0.4221120000000 1.0
C      1  0.5806560000000  0.5548230000000  0.5350710000000 1.0
C      1  0.4468260000000  0.4632360000000  0.5197850000000 1.0
C      1  0.4772210000000  0.4607410000000  0.4134650000000 1.0
C      1  0.4307470000000  0.4693620000000  0.5652140000000 1.0
C      1  0.4672740000000  0.5328660000000  0.4140700000000 1.0
C      1  0.4385680000000  0.4245590000000  0.4876150000000 1.0
C      1  0.5443030000000  0.5316330000000  0.4293650000000 1.0
C      1  0.5810430000000  0.5576160000000  0.4873880000000 1.0
C      1  0.5030570000000  0.5481910000000  0.5688480000000 1.0
C      1  0.4470710000000  0.5266630000000  0.5318300000000 1.0
C      1  0.5107960000000  0.4949660000000  0.4842130000000 1.0
C      1  0.4254740000000  0.5072690000000  0.5306770000000 1.0
C      1  0.5928520000000  0.5698240000000  0.5120590000000 1.0
C      1  0.5728310000000  0.5165240000000  0.4350210000000 1.0
C      1  0.5191040000000  0.4997210000000  0.5465510000000 1.0
C      1  0.5239840000000  0.5942830000000  0.5118520000000 1.0
C      1  0.5279100000000  0.5778950000000  0.5361350000000 1.0
C      1  0.5395330000000  0.4859930000000  0.5345560000000 1.0
C      1  0.4185330000000  0.5293950000000  0.4982100000000 1.0
C      1  0.4347830000000  0.5011320000000  0.4440760000000 1.0
C      1  0.5235990000000  0.5608450000000  0.4634210000000 1.0
C      1  0.5536920000000  0.4407260000000  0.5222790000000 1.0
C      1  0.5356750000000  0.5061100000000  0.4170860000000 1.0
C      1  0.5046750000000  0.4005860000000  0.5244700000000 1.0
C      1  0.4924300000000  0.4986800000000  0.5332890000000 1.0
C      1  0.5512260000000  0.4209790000000  0.4478860000000 1.0
C      1  0.4972480000000  0.5941710000000  0.4984380000000 1.0
C      1  0.4500290000000  0.4543100000000  0.4580870000000 1.0
C      1  0.5640440000000  0.4508730000000  0.5473450000000 1.0
C      1  0.5316840000000  0.5120000000000  0.4743550000000 1.0
C      1  0.5616990000000  0.4288560000000  0.4746180000000 1.0
C      1  0.5501050000000  0.5232370000000  0.4939490000000 1.0
C      1  0.5170810000000  0.4454630000000  0.4718000000000 1.0
C      1  0.5155160000000  0.5001360000000  0.5913480000000 1.0
C      1  0.4816520000000  0.4057320000000  0.4693460000000 1.0
C      1  0.5925030000000  0.5133530000000  0.5108690000000 1.0
C      1  0.5018150000000  0.4706350000000  0.4045840000000 1.0
C      1  0.4931940000000  0.5282430000000  0.4007970000000 1.0
C      1  0.5482080000000  0.5942140000000  0.4617200000000 1.0
C      1  0.4236110000000  0.4441230000000  0.5491950000000 1.0
C      1  0.5192220000000  0.4281550000000  0.5692570000000 1.0
C      1  0.5239050000000  0.5322190000000  0.4554100000000 1.0
C      1  0.5440480000000  0.4399520000000  0.5628110000000 1.0
C      1  0.5684940000000  0.4835380000000  0.5416660000000 1.0
C      1  0.5499950000000  0.5527730000000  0.5381530000000 1.0
C      1  0.5792730000000  0.5288690000000  0.4898280000000 1.0
C      1  0.4165080000000  0.4878890000000  0.4610570000000 1.0
C      1  0.5086070000000  0.5682560000000  0.5523230000000 1.0
C      1  0.4424760000000  0.5655700000000  0.4604440000000 1.0
C      1  0.5069270000000  0.5002080000000  0.4107770000000 1.0
C      1  0.5078830000000  0.5360760000000  0.5114030000000 1.0
C      1  0.4764860000000  0.5535820000000  0.5714700000000 1.0
C      1  0.4964460000000  0.4273100000000  0.4813800000000 1.0
C      1  0.4555210000000  0.5228240000000  0.4812940000000 1.0
C      1  0.5451670000000  0.4438370000000  0.4289420000000 1.0
C      1  0.5129940000000  0.5475590000000  0.4065090000000 1.0
C      1  0.4693340000000  0.5698990000000  0.4533360000000 1.0
C      1  0.5352130000000  0.5597090000000  0.4189190000000 1.0
C      1  0.5331020000000  0.5783780000000  0.4420480000000 1.0
C      1  0.4863870000000  0.4555690000000  0.4972730000000 1.0
C      1  0.4311180000000  0.5635300000000  0.5573500000000 1.0
C      1  0.4717240000000  0.4183010000000  0.5439050000000 1.0
C      1  0.4951130000000  0.5741070000000  0.4748320000000 1.0
C      1  0.4939750000000  0.5285960000000  0.4483450000000 1.0
C      1  0.4702770000000  0.5171580000000  0.5463180000000 1.0
C      1  0.4209580000000  0.4500850000000  0.5209830000000 1.0
C      1  0.4171780000000  0.4417520000000  0.4916560000000 1.0
C      1  0.4276090000000  0.4984540000000  0.5594320000000 1.0
END
