TITL C-883727-9645-101 29.6172176492658 125000 -27564.6416931924 0 0 186 (C1) n - 1
REM
REM in /home/nfs/bkarasulu/CARBON/AIRSS/Generating-Clusters/ReaxFF-fromJPCA2015/Units_Real/with-SteepDescent/Only-C1/SD-CG/Try1-3A/FIRE-CG
REM
REM
REM
REM
REM
REM ./C.cell (11c1c37f851c82e70ff6c80c92926a4b)
REM
REM compiler GCC version 9.2.1 20190827 (Red Hat 9.2.1-1)
REM options -cpp -mtune=generic -march=x86-64 -g -O0 -fpre-include=/usr/include/finclude/math-vector-fortran.h
REM seed 1254722776 1723687365 1603549067 792634724 -421516356 547128717 -1613839460 1088848507 -800552149 1181613109 -1157190911 -1675909180 1936225390 -1573068682 -2091160545 1960601935 -1331449257 -1619782437 1741980847 120228536 1389466100 1496956023 -522380987 1484717059 -732545111 1039118567 -258085316 -1093910160 -25023549 -243461773 1816854400 2088556354 -1398997743
REM
CELL 1.54180   50.00000   50.00000   50.00000   90.00000   90.00000   90.00000
LATT -1
SFAC C  
C      1  0.4212060000000  0.4605980000000  0.4461780000000 1.0
C      1  0.5747040000000  0.3869570000000  0.4770760000000 1.0
C      1  0.4470310000000  0.4165270000000  0.4457030000000 1.0
C      1  0.5446110000000  0.4130480000000  0.4618200000000 1.0
C      1  0.4470590000000  0.5721940000000  0.4984210000000 1.0
C      1  0.5408930000000  0.4665460000000  0.4877030000000 1.0
C      1  0.4752900000000  0.5008660000000  0.4657450000000 1.0
C      1  0.4912120000000  0.5246540000000  0.4584160000000 1.0
C      1  0.4738970000000  0.4855790000000  0.4057930000000 1.0
C      1  0.6184240000000  0.4878620000000  0.5351850000000 1.0
C      1  0.5073460000000  0.5450260000000  0.5062100000000 1.0
C      1  0.4123600000000  0.5125300000000  0.4535670000000 1.0
C      1  0.3805180000000  0.4897220000000  0.5654330000000 1.0
C      1  0.4964160000000  0.4688540000000  0.5470180000000 1.0
C      1  0.4045110000000  0.4857690000000  0.5823070000000 1.0
C      1  0.4568140000000  0.5894800000000  0.4766010000000 1.0
C      1  0.4769000000000  0.4062660000000  0.5350440000000 1.0
C      1  0.4130880000000  0.5043560000000  0.4818500000000 1.0
C      1  0.5416780000000  0.5801280000000  0.5757800000000 1.0
C      1  0.4184680000000  0.4906720000000  0.4353250000000 1.0
C      1  0.5241110000000  0.5367120000000  0.5795070000000 1.0
C      1  0.5128550000000  0.4911630000000  0.5623120000000 1.0
C      1  0.4934080000000  0.5854390000000  0.5373010000000 1.0
C      1  0.5327780000000  0.5128930000000  0.5961930000000 1.0
C      1  0.5316200000000  0.5813020000000  0.4904490000000 1.0
C      1  0.5170130000000  0.4363480000000  0.5181800000000 1.0
C      1  0.4366490000000  0.4265320000000  0.4183680000000 1.0
C      1  0.5895600000000  0.5089170000000  0.5573090000000 1.0
C      1  0.5466590000000  0.5438580000000  0.4619810000000 1.0
C      1  0.5328380000000  0.5192620000000  0.4546090000000 1.0
C      1  0.5111260000000  0.5915810000000  0.4713840000000 1.0
C      1  0.4127090000000  0.4460720000000  0.5051170000000 1.0
C      1  0.6086820000000  0.4823790000000  0.4323410000000 1.0
C      1  0.3882320000000  0.4884420000000  0.4942350000000 1.0
C      1  0.5159000000000  0.4189010000000  0.4991410000000 1.0
C      1  0.4633510000000  0.4830470000000  0.4866330000000 1.0
C      1  0.4585760000000  0.5035860000000  0.4428740000000 1.0
C      1  0.5295890000000  0.4390320000000  0.6062580000000 1.0
C      1  0.4251460000000  0.5566430000000  0.4265780000000 1.0
C      1  0.6045650000000  0.4730410000000  0.4865350000000 1.0
C      1  0.6014640000000  0.4788150000000  0.5546090000000 1.0
C      1  0.5552320000000  0.5936530000000  0.4502400000000 1.0
C      1  0.5731590000000  0.4888670000000  0.4610350000000 1.0
C      1  0.5038170000000  0.4535220000000  0.3915120000000 1.0
C      1  0.5214950000000  0.5662170000000  0.4072780000000 1.0
C      1  0.5167860000000  0.4785420000000  0.4795850000000 1.0
C      1  0.5085740000000  0.5566100000000  0.5326840000000 1.0
C      1  0.5087930000000  0.3773890000000  0.4915180000000 1.0
C      1  0.5028700000000  0.4827730000000  0.4019250000000 1.0
C      1  0.5779390000000  0.5815710000000  0.4606790000000 1.0
C      1  0.5401500000000  0.5972610000000  0.5520270000000 1.0
C      1  0.3926640000000  0.5655830000000  0.4913810000000 1.0
C      1  0.5195940000000  0.4721330000000  0.4249440000000 1.0
C      1  0.5899170000000  0.5337540000000  0.4381170000000 1.0
C      1  0.4906370000000  0.5649140000000  0.5775500000000 1.0
C      1  0.5192980000000  0.4248520000000  0.4693300000000 1.0
C      1  0.5151450000000  0.5407130000000  0.3912260000000 1.0
C      1  0.4644920000000  0.5500770000000  0.5344130000000 1.0
C      1  0.4346250000000  0.4949240000000  0.4115360000000 1.0
C      1  0.4548590000000  0.4374420000000  0.5626120000000 1.0
C      1  0.4734600000000  0.4086200000000  0.4834700000000 1.0
C      1  0.4997090000000  0.4056010000000  0.5512380000000 1.0
C      1  0.5734210000000  0.5513790000000  0.4526650000000 1.0
C      1  0.4709190000000  0.5172910000000  0.5649920000000 1.0
C      1  0.5629830000000  0.5030580000000  0.5376840000000 1.0
C      1  0.4117400000000  0.5638400000000  0.4692000000000 1.0
C      1  0.5663220000000  0.4625060000000  0.4712530000000 1.0
C      1  0.5742290000000  0.4309350000000  0.5401220000000 1.0
C      1  0.5001990000000  0.4407190000000  0.4544890000000 1.0
C      1  0.5809960000000  0.4574950000000  0.5515340000000 1.0
C      1  0.5546440000000  0.4200570000000  0.4343590000000 1.0
C      1  0.3932110000000  0.5186390000000  0.5133050000000 1.0
C      1  0.4647220000000  0.4535420000000  0.4854600000000 1.0
C      1  0.4588730000000  0.5475570000000  0.4900180000000 1.0
C      1  0.5611360000000  0.5195460000000  0.6007460000000 1.0
C      1  0.3910810000000  0.5686150000000  0.5207710000000 1.0
C      1  0.5287680000000  0.3900450000000  0.5090820000000 1.0
C      1  0.5171980000000  0.6239470000000  0.5151070000000 1.0
C      1  0.6008070000000  0.5657790000000  0.5042520000000 1.0
C      1  0.4517240000000  0.4109360000000  0.5179640000000 1.0
C      1  0.5403800000000  0.4590270000000  0.5861320000000 1.0
C      1  0.4939470000000  0.5070090000000  0.5768580000000 1.0
C      1  0.4776520000000  0.5490250000000  0.4687170000000 1.0
C      1  0.5190980000000  0.5645770000000  0.5864100000000 1.0
C      1  0.5920850000000  0.4596360000000  0.4298650000000 1.0
C      1  0.4373310000000  0.4953120000000  0.4939620000000 1.0
C      1  0.3932080000000  0.4709280000000  0.5445990000000 1.0
C      1  0.5748280000000  0.4399470000000  0.4309230000000 1.0
C      1  0.4532110000000  0.3947960000000  0.4902320000000 1.0
C      1  0.5773750000000  0.5704240000000  0.5474730000000 1.0
C      1  0.5989900000000  0.5116940000000  0.4229930000000 1.0
C      1  0.4521020000000  0.5473350000000  0.4186120000000 1.0
C      1  0.4846550000000  0.4346100000000  0.4026810000000 1.0
C      1  0.4669820000000  0.4789730000000  0.4330240000000 1.0
C      1  0.5006970000000  0.4944460000000  0.5041320000000 1.0
C      1  0.5743920000000  0.5110680000000  0.4086430000000 1.0
C      1  0.5279400000000  0.4498580000000  0.4077380000000 1.0
C      1  0.5529940000000  0.3957590000000  0.4848910000000 1.0
C      1  0.5480570000000  0.5045360000000  0.4138090000000 1.0
C      1  0.5863170000000  0.4498300000000  0.4886010000000 1.0
C      1  0.4499720000000  0.4717840000000  0.3977140000000 1.0
C      1  0.6224740000000  0.5122730000000  0.5211970000000 1.0
C      1  0.6102730000000  0.5422090000000  0.4939930000000 1.0
C      1  0.5307890000000  0.4228350000000  0.4177480000000 1.0
C      1  0.4803080000000  0.5966390000000  0.5100690000000 1.0
C      1  0.4691240000000  0.5347730000000  0.6026570000000 1.0
C      1  0.4356920000000  0.3980370000000  0.4647910000000 1.0
C      1  0.5603640000000  0.5892320000000  0.5330790000000 1.0
C      1  0.4289490000000  0.4361580000000  0.5523250000000 1.0
C      1  0.4571050000000  0.4430670000000  0.4029390000000 1.0
C      1  0.4504780000000  0.5766280000000  0.5720700000000 1.0
C      1  0.3948220000000  0.4674260000000  0.5159590000000 1.0
C      1  0.4127360000000  0.5388050000000  0.5540770000000 1.0
C      1  0.5108110000000  0.5233940000000  0.4358490000000 1.0
C      1  0.4905000000000  0.4630570000000  0.6121700000000 1.0
C      1  0.4902550000000  0.5219080000000  0.5033480000000 1.0
C      1  0.5189080000000  0.5135270000000  0.4091680000000 1.0
C      1  0.4499500000000  0.5733040000000  0.5275600000000 1.0
C      1  0.5666520000000  0.5655070000000  0.5739570000000 1.0
C      1  0.3916170000000  0.4671170000000  0.4747100000000 1.0
C      1  0.5432810000000  0.5220230000000  0.5025290000000 1.0
C      1  0.5298410000000  0.5094160000000  0.5432730000000 1.0
C      1  0.4640680000000  0.5298840000000  0.5121730000000 1.0
C      1  0.4441370000000  0.4789440000000  0.5561390000000 1.0
C      1  0.4126230000000  0.5424770000000  0.4491620000000 1.0
C      1  0.4785830000000  0.5770820000000  0.4588080000000 1.0
C      1  0.4307300000000  0.5866850000000  0.4633450000000 1.0
C      1  0.4410390000000  0.5070970000000  0.5194450000000 1.0
C      1  0.4482420000000  0.5502510000000  0.5896300000000 1.0
C      1  0.5245290000000  0.5046770000000  0.5162630000000 1.0
C      1  0.4476710000000  0.5008770000000  0.5725450000000 1.0
C      1  0.4826810000000  0.4788220000000  0.5235420000000 1.0
C      1  0.5198310000000  0.4528590000000  0.5397000000000 1.0
C      1  0.5878520000000  0.5001970000000  0.4865680000000 1.0
C      1  0.5155740000000  0.6072710000000  0.5390670000000 1.0
C      1  0.5835110000000  0.5183910000000  0.5838420000000 1.0
C      1  0.5814190000000  0.5837580000000  0.4898110000000 1.0
C      1  0.4075240000000  0.5662140000000  0.5448510000000 1.0
C      1  0.4716550000000  0.4304160000000  0.5014210000000 1.0
C      1  0.4323770000000  0.5814170000000  0.5495390000000 1.0
C      1  0.4757980000000  0.5444440000000  0.5593450000000 1.0
C      1  0.4244540000000  0.5350740000000  0.5810110000000 1.0
C      1  0.5568990000000  0.5904250000000  0.5035760000000 1.0
C      1  0.5743850000000  0.5431750000000  0.5912400000000 1.0
C      1  0.4684910000000  0.4395700000000  0.4586730000000 1.0
C      1  0.5220750000000  0.5377200000000  0.5503940000000 1.0
C      1  0.5970430000000  0.5548970000000  0.5325060000000 1.0
C      1  0.5530710000000  0.5003130000000  0.4432050000000 1.0
C      1  0.4639090000000  0.5715900000000  0.4324080000000 1.0
C      1  0.4952730000000  0.3973250000000  0.4424170000000 1.0
C      1  0.4118180000000  0.4398700000000  0.4231660000000 1.0
C      1  0.5284480000000  0.6003800000000  0.4467930000000 1.0
C      1  0.4903830000000  0.4231530000000  0.5766740000000 1.0
C      1  0.5004720000000  0.4348470000000  0.6018680000000 1.0
C      1  0.5393400000000  0.4438160000000  0.5603850000000 1.0
C      1  0.4912450000000  0.5150980000000  0.6042930000000 1.0
C      1  0.5028280000000  0.5412780000000  0.3686500000000 1.0
C      1  0.5682450000000  0.5110400000000  0.5092020000000 1.0
C      1  0.5519050000000  0.4585950000000  0.5140890000000 1.0
C      1  0.4997970000000  0.6104720000000  0.4931500000000 1.0
C      1  0.5338930000000  0.5510920000000  0.4882510000000 1.0
C      1  0.6056960000000  0.5282430000000  0.5398140000000 1.0
C      1  0.5094230000000  0.4684880000000  0.4529570000000 1.0
C      1  0.5269000000000  0.5853250000000  0.4225630000000 1.0
C      1  0.4370580000000  0.5830330000000  0.4346220000000 1.0
C      1  0.5020100000000  0.4142030000000  0.4202940000000 1.0
C      1  0.4104020000000  0.4475870000000  0.4753970000000 1.0
C      1  0.5299220000000  0.4861150000000  0.5848630000000 1.0
C      1  0.4513460000000  0.4572460000000  0.4428660000000 1.0
C      1  0.6145330000000  0.5149920000000  0.4915630000000 1.0
C      1  0.4792500000000  0.4479530000000  0.5663920000000 1.0
C      1  0.5623290000000  0.4732560000000  0.5362750000000 1.0
C      1  0.5490600000000  0.4178350000000  0.5505900000000 1.0
C      1  0.4767270000000  0.5862370000000  0.5642320000000 1.0
C      1  0.4184340000000  0.4648130000000  0.5610940000000 1.0
C      1  0.4521710000000  0.5181120000000  0.4189940000000 1.0
C      1  0.6180650000000  0.4763810000000  0.4596270000000 1.0
C      1  0.4879800000000  0.4850620000000  0.6135140000000 1.0
C      1  0.5721190000000  0.4377070000000  0.5114660000000 1.0
C      1  0.4279990000000  0.4299050000000  0.5241970000000 1.0
C      1  0.4241370000000  0.5069430000000  0.5885260000000 1.0
C      1  0.4562890000000  0.4852690000000  0.5310150000000 1.0
C      1  0.4142780000000  0.5193350000000  0.5320030000000 1.0
C      1  0.3805170000000  0.5442730000000  0.5078520000000 1.0
C      1  0.4895560000000  0.3885480000000  0.4705780000000 1.0
C      1  0.5273920000000  0.4012340000000  0.5396930000000 1.0
END
