TITL C-884138-6203-262 1.15672270509223 125000 -3276.86374101103 0 0 23 (C1) n - 1
REM
REM in /home/nfs/bkarasulu/CARBON/AIRSS/Generating-Clusters/ReaxFF-fromJPCA2015/Units_Real/with-SteepDescent/Only-C1/SD-CG/Try1-3A/FIRE-CG
REM
REM
REM
REM
REM
REM ./C.cell (11c1c37f851c82e70ff6c80c92926a4b)
REM
REM compiler GCC version 9.2.1 20190827 (Red Hat 9.2.1-1)
REM options -cpp -mtune=generic -march=x86-64 -g -O0 -fpre-include=/usr/include/finclude/math-vector-fortran.h
REM seed 593801103 -515422714 1809499372 320270113 1108791530 1498010389 349356434 1727150233 -1369052853 -1117880787 1000853051 -710809762 -963399235 388730288 -1967590351 -1816644409 -613715635 1338685468 1326373944 710129276 -1067332411 1672830770 -1883469997 -1375119679 1953963933 -957280155 1884110921 -513932381 1887771769 703557473 409722461 1038363008 -465129968
REM
CELL 1.54180   50.00000   50.00000   50.00000   90.00000   90.00000   90.00000
LATT -1
SFAC C  
C      1  0.4459540000000  0.4738150000000  0.5130230000000 1.0
C      1  0.5539640000000  0.4897550000000  0.4877970000000 1.0
C      1  0.5634050000000  0.5400140000000  0.4765880000000 1.0
C      1  0.5203640000000  0.5469740000000  0.4503060000000 1.0
C      1  0.5610460000000  0.5134390000000  0.4814260000000 1.0
C      1  0.4494940000000  0.4939360000000  0.4751830000000 1.0
C      1  0.5079140000000  0.5336580000000  0.4945940000000 1.0
C      1  0.4647710000000  0.5206000000000  0.5112620000000 1.0
C      1  0.5247250000000  0.4601070000000  0.5155510000000 1.0
C      1  0.4889590000000  0.4883510000000  0.5436470000000 1.0
C      1  0.4820950000000  0.4583810000000  0.4886590000000 1.0
C      1  0.4686860000000  0.5138500000000  0.4639800000000 1.0
C      1  0.4559840000000  0.4659140000000  0.4850760000000 1.0
C      1  0.4435290000000  0.5018880000000  0.5029510000000 1.0
C      1  0.4798550000000  0.5293580000000  0.4875470000000 1.0
C      1  0.5312970000000  0.5065870000000  0.5345060000000 1.0
C      1  0.4666440000000  0.4773110000000  0.5319280000000 1.0
C      1  0.5292840000000  0.5402960000000  0.4733480000000 1.0
C      1  0.5426700000000  0.4687390000000  0.4958990000000 1.0
C      1  0.4847280000000  0.5160500000000  0.5321660000000 1.0
C      1  0.5061760000000  0.4543460000000  0.4952450000000 1.0
C      1  0.5178730000000  0.4806710000000  0.5370260000000 1.0
C      1  0.5105840000000  0.5259590000000  0.5222920000000 1.0
END
