TITL C-884133-6611-207 -2.46254329381685 125000 -10791.3098601519 0 0 73 (C1) n - 1
REM
REM in /home/nfs/bkarasulu/CARBON/AIRSS/Generating-Clusters/ReaxFF-fromJPCA2015/Units_Real/with-SteepDescent/Only-C1/SD-CG/Try1-3A/FIRE-CG
REM
REM
REM
REM
REM
REM ./C.cell (11c1c37f851c82e70ff6c80c92926a4b)
REM
REM compiler GCC version 9.2.1 20190827 (Red Hat 9.2.1-1)
REM options -cpp -mtune=generic -march=x86-64 -g -O0 -fpre-include=/usr/include/finclude/math-vector-fortran.h
REM seed 1879739486 571855284 482616228 146261701 586066645 -516746706 651924284 461558906 1967712578 -360065029 -1323953004 2081640723 -1026277250 720869840 -1186987816 1253985808 1240462413 2038454518 1727510236 1488703963 1837902302 -1847927318 -2008271927 -1242125680 1523778508 -1420043633 121705850 -2082059291 -136979148 168559192 -947873286 -736697063 1217782333
REM
CELL 1.54180   50.00000   50.00000   50.00000   90.00000   90.00000   90.00000
LATT -1
SFAC C  
C      1  0.4501020000000  0.5060490000000  0.5013540000000 1.0
C      1  0.4489610000000  0.4999750000000  0.4401550000000 1.0
C      1  0.4814200000000  0.5333190000000  0.4393320000000 1.0
C      1  0.4941620000000  0.5067330000000  0.4323460000000 1.0
C      1  0.4742650000000  0.4858070000000  0.4355880000000 1.0
C      1  0.5612160000000  0.5076170000000  0.5309840000000 1.0
C      1  0.4980690000000  0.5330780000000  0.5668820000000 1.0
C      1  0.4476630000000  0.5558700000000  0.4913330000000 1.0
C      1  0.5221290000000  0.5008390000000  0.4825220000000 1.0
C      1  0.5514770000000  0.5702770000000  0.4928830000000 1.0
C      1  0.4427860000000  0.4903760000000  0.5459160000000 1.0
C      1  0.4937420000000  0.4933690000000  0.5531340000000 1.0
C      1  0.4799350000000  0.4601980000000  0.4491780000000 1.0
C      1  0.4653360000000  0.5809630000000  0.5015730000000 1.0
C      1  0.5529540000000  0.4574260000000  0.4853430000000 1.0
C      1  0.5294370000000  0.4856410000000  0.5697940000000 1.0
C      1  0.5620690000000  0.5008970000000  0.4547830000000 1.0
C      1  0.5727810000000  0.4811750000000  0.5226490000000 1.0
C      1  0.4378140000000  0.4461610000000  0.5388290000000 1.0
C      1  0.4901900000000  0.5818790000000  0.5215640000000 1.0
C      1  0.4307410000000  0.4905460000000  0.4609330000000 1.0
C      1  0.4316940000000  0.5129500000000  0.4797300000000 1.0
C      1  0.4588200000000  0.4490730000000  0.4663100000000 1.0
C      1  0.5720720000000  0.5329110000000  0.5192520000000 1.0
C      1  0.5326260000000  0.5027450000000  0.5258600000000 1.0
C      1  0.5824750000000  0.4992080000000  0.4766770000000 1.0
C      1  0.4707980000000  0.5280430000000  0.5623060000000 1.0
C      1  0.5507770000000  0.4402350000000  0.5109180000000 1.0
C      1  0.4654740000000  0.4366200000000  0.4954250000000 1.0
C      1  0.4532110000000  0.5285930000000  0.4444200000000 1.0
C      1  0.5079870000000  0.4538720000000  0.4567630000000 1.0
C      1  0.4612680000000  0.6054610000000  0.5049190000000 1.0
C      1  0.5246220000000  0.4754980000000  0.5260000000000 1.0
C      1  0.5338100000000  0.5287600000000  0.4381630000000 1.0
C      1  0.4257240000000  0.4711250000000  0.5296980000000 1.0
C      1  0.4499690000000  0.5153910000000  0.5548080000000 1.0
C      1  0.4354210000000  0.4645780000000  0.4737040000000 1.0
C      1  0.4804670000000  0.4611660000000  0.4992520000000 1.0
C      1  0.4247040000000  0.4599890000000  0.5016290000000 1.0
C      1  0.4738770000000  0.4890750000000  0.4980640000000 1.0
C      1  0.5610290000000  0.5624250000000  0.5204260000000 1.0
C      1  0.5020280000000  0.4155050000000  0.5304760000000 1.0
C      1  0.5220840000000  0.5634110000000  0.4917900000000 1.0
C      1  0.5272550000000  0.4738430000000  0.4964330000000 1.0
C      1  0.4949760000000  0.5073420000000  0.4886790000000 1.0
C      1  0.4834420000000  0.5342750000000  0.4884810000000 1.0
C      1  0.4850190000000  0.5505930000000  0.4633890000000 1.0
C      1  0.5158930000000  0.5951910000000  0.5312970000000 1.0
C      1  0.4593960000000  0.5335650000000  0.5054430000000 1.0
C      1  0.5603230000000  0.4568430000000  0.5336070000000 1.0
C      1  0.5405570000000  0.5169480000000  0.4663340000000 1.0
C      1  0.5094870000000  0.5044700000000  0.5755250000000 1.0
C      1  0.4679490000000  0.4785790000000  0.5554620000000 1.0
C      1  0.5054970000000  0.4534740000000  0.4873190000000 1.0
C      1  0.5090940000000  0.5396280000000  0.5403640000000 1.0
C      1  0.4878770000000  0.4152280000000  0.5044880000000 1.0
C      1  0.5099310000000  0.5667110000000  0.4645040000000 1.0
C      1  0.4645510000000  0.4489320000000  0.5534920000000 1.0
C      1  0.4843600000000  0.4321820000000  0.5435370000000 1.0
C      1  0.5294830000000  0.4210330000000  0.5133860000000 1.0
C      1  0.5370730000000  0.4656970000000  0.5509110000000 1.0
C      1  0.5414840000000  0.5790440000000  0.5340450000000 1.0
C      1  0.5356390000000  0.4605260000000  0.4571430000000 1.0
C      1  0.5188470000000  0.5523630000000  0.4419020000000 1.0
C      1  0.4390400000000  0.5393400000000  0.4685680000000 1.0
C      1  0.5063630000000  0.5118960000000  0.5328310000000 1.0
C      1  0.5751910000000  0.4765190000000  0.4939220000000 1.0
C      1  0.4387860000000  0.4365050000000  0.5111530000000 1.0
C      1  0.5119980000000  0.4220190000000  0.4906220000000 1.0
C      1  0.5058000000000  0.5576100000000  0.5170270000000 1.0
C      1  0.5227940000000  0.5025810000000  0.4294350000000 1.0
C      1  0.5807270000000  0.5195000000000  0.4966760000000 1.0
C      1  0.5429820000000  0.4827330000000  0.4403570000000 1.0
END
