TITL C-883730-8503-125 191.404991320244 125000 -27608.3753544046 0 0 187 (C1) n - 1
REM
REM in /home/nfs/bkarasulu/CARBON/AIRSS/Generating-Clusters/ReaxFF-fromJPCA2015/Units_Real/with-SteepDescent/Only-C1/SD-CG/Try1-3A/FIRE-CG
REM
REM
REM
REM
REM
REM ./C.cell (11c1c37f851c82e70ff6c80c92926a4b)
REM
REM compiler GCC version 9.2.1 20190827 (Red Hat 9.2.1-1)
REM options -cpp -mtune=generic -march=x86-64 -g -O0 -fpre-include=/usr/include/finclude/math-vector-fortran.h
REM seed -1613587987 -590624773 -2110483146 -1164753040 956666712 -1763484752 -1585957392 -625485907 905540523 1336755697 403042603 399169179 -721018251 1057925747 -1668902805 1244053891 1360239440 941867763 -1775191795 1116198803 -1385658162 -1530224736 -117178628 -1422361684 1142125030 1773743123 96373689 -1823559058 2022931979 329980347 1440186758 336607514 -1596516878
REM
CELL 1.54180   50.00000   50.00000   50.00000   90.00000   90.00000   90.00000
LATT -1
SFAC C  
C      1  0.5746270000000  0.5759650000000  0.5384570000000 1.0
C      1  0.4979350000000  0.5472750000000  0.5267180000000 1.0
C      1  0.4035490000000  0.4919260000000  0.5392580000000 1.0
C      1  0.5740580000000  0.4453920000000  0.5054860000000 1.0
C      1  0.4884170000000  0.4630650000000  0.4123840000000 1.0
C      1  0.5168220000000  0.4409550000000  0.4750220000000 1.0
C      1  0.4591120000000  0.4504000000000  0.6023510000000 1.0
C      1  0.5145570000000  0.3949730000000  0.5409970000000 1.0
C      1  0.5049500000000  0.4405540000000  0.5806670000000 1.0
C      1  0.4485170000000  0.4425600000000  0.4385780000000 1.0
C      1  0.5466830000000  0.5363760000000  0.4081840000000 1.0
C      1  0.4964750000000  0.4786760000000  0.4820750000000 1.0
C      1  0.5588220000000  0.4615750000000  0.5234080000000 1.0
C      1  0.5477290000000  0.5924070000000  0.4510930000000 1.0
C      1  0.5826030000000  0.5509980000000  0.4911920000000 1.0
C      1  0.5543320000000  0.4074900000000  0.5455910000000 1.0
C      1  0.4439140000000  0.5929180000000  0.4412820000000 1.0
C      1  0.5786830000000  0.5570840000000  0.5614230000000 1.0
C      1  0.4466680000000  0.4228830000000  0.4802550000000 1.0
C      1  0.5047770000000  0.5193160000000  0.4249990000000 1.0
C      1  0.4757460000000  0.6121160000000  0.5087660000000 1.0
C      1  0.4113860000000  0.5405660000000  0.4959730000000 1.0
C      1  0.5754980000000  0.5536690000000  0.5191900000000 1.0
C      1  0.5342350000000  0.4631780000000  0.4758100000000 1.0
C      1  0.5470370000000  0.5471580000000  0.5289270000000 1.0
C      1  0.5960490000000  0.4610730000000  0.4682700000000 1.0
C      1  0.4974740000000  0.4854310000000  0.4553980000000 1.0
C      1  0.4075520000000  0.5014850000000  0.4617740000000 1.0
C      1  0.4640490000000  0.5321200000000  0.5559210000000 1.0
C      1  0.5411920000000  0.4954380000000  0.4418410000000 1.0
C      1  0.4993990000000  0.5962790000000  0.4749760000000 1.0
C      1  0.4820430000000  0.4838030000000  0.5697250000000 1.0
C      1  0.5031900000000  0.5880190000000  0.4234820000000 1.0
C      1  0.4816760000000  0.4983470000000  0.6209950000000 1.0
C      1  0.5144980000000  0.5156540000000  0.5616480000000 1.0
C      1  0.4159500000000  0.4256970000000  0.5235370000000 1.0
C      1  0.4447250000000  0.5424290000000  0.5760110000000 1.0
C      1  0.5009530000000  0.5995740000000  0.5469530000000 1.0
C      1  0.5569100000000  0.4401480000000  0.5828180000000 1.0
C      1  0.4190550000000  0.4484550000000  0.4901350000000 1.0
C      1  0.4330910000000  0.5763510000000  0.4647690000000 1.0
C      1  0.6076020000000  0.5285870000000  0.4531020000000 1.0
C      1  0.5579790000000  0.4884470000000  0.5354170000000 1.0
C      1  0.4526070000000  0.5877130000000  0.5419090000000 1.0
C      1  0.6049090000000  0.5059450000000  0.5254940000000 1.0
C      1  0.4580810000000  0.6161110000000  0.4644460000000 1.0
C      1  0.4889560000000  0.4481080000000  0.4826400000000 1.0
C      1  0.4608710000000  0.4784050000000  0.6125820000000 1.0
C      1  0.4581110000000  0.4711250000000  0.5509330000000 1.0
C      1  0.5214670000000  0.5459520000000  0.3975450000000 1.0
C      1  0.6043270000000  0.4718370000000  0.4935760000000 1.0
C      1  0.5132890000000  0.5676720000000  0.5770000000000 1.0
C      1  0.5509520000000  0.5376990000000  0.5870400000000 1.0
C      1  0.4915870000000  0.5487500000000  0.3967740000000 1.0
C      1  0.4334790000000  0.5858660000000  0.4927300000000 1.0
C      1  0.4682260000000  0.6111860000000  0.4401760000000 1.0
C      1  0.3970620000000  0.4782440000000  0.5130990000000 1.0
C      1  0.4490090000000  0.5430220000000  0.5338310000000 1.0
C      1  0.5022060000000  0.4639500000000  0.4376500000000 1.0
C      1  0.5354610000000  0.5212490000000  0.5240560000000 1.0
C      1  0.4843640000000  0.3919580000000  0.5022630000000 1.0
C      1  0.4659230000000  0.4798310000000  0.4045570000000 1.0
C      1  0.4549240000000  0.5720940000000  0.4227890000000 1.0
C      1  0.5259540000000  0.6125760000000  0.5014520000000 1.0
C      1  0.4631300000000  0.4082900000000  0.5462170000000 1.0
C      1  0.4143290000000  0.4808050000000  0.5642050000000 1.0
C      1  0.5564320000000  0.3926370000000  0.5012960000000 1.0
C      1  0.5038140000000  0.4709070000000  0.5838840000000 1.0
C      1  0.5023280000000  0.4686910000000  0.5230550000000 1.0
C      1  0.4582050000000  0.5018910000000  0.4477060000000 1.0
C      1  0.4908880000000  0.5561790000000  0.5065690000000 1.0
C      1  0.4782600000000  0.4304390000000  0.5923380000000 1.0
C      1  0.4818430000000  0.5718990000000  0.4111710000000 1.0
C      1  0.5945160000000  0.4613940000000  0.5479520000000 1.0
C      1  0.5681520000000  0.3955450000000  0.4779930000000 1.0
C      1  0.5969520000000  0.5016750000000  0.4964410000000 1.0
C      1  0.5152140000000  0.5067590000000  0.4499440000000 1.0
C      1  0.5255220000000  0.4863960000000  0.3947690000000 1.0
C      1  0.4381230000000  0.5488860000000  0.4258050000000 1.0
C      1  0.4212930000000  0.4211650000000  0.4946050000000 1.0
C      1  0.5951850000000  0.4613960000000  0.4392160000000 1.0
C      1  0.5200050000000  0.5234850000000  0.4777900000000 1.0
C      1  0.4651170000000  0.5393400000000  0.4811500000000 1.0
C      1  0.4446250000000  0.4227140000000  0.5287610000000 1.0
C      1  0.4427860000000  0.5058010000000  0.5125040000000 1.0
C      1  0.4592480000000  0.4500760000000  0.4643690000000 1.0
C      1  0.5146660000000  0.5566340000000  0.4491740000000 1.0
C      1  0.5336020000000  0.4390060000000  0.4114820000000 1.0
C      1  0.5662820000000  0.5477150000000  0.4262180000000 1.0
C      1  0.5312470000000  0.4255010000000  0.5828490000000 1.0
C      1  0.4678300000000  0.5290540000000  0.4541650000000 1.0
C      1  0.5676540000000  0.5144480000000  0.5840640000000 1.0
C      1  0.5379240000000  0.4226120000000  0.4763470000000 1.0
C      1  0.4907740000000  0.5267970000000  0.4888470000000 1.0
C      1  0.4818510000000  0.4989020000000  0.4963220000000 1.0
C      1  0.4848100000000  0.5674830000000  0.5801540000000 1.0
C      1  0.4627110000000  0.3992620000000  0.4801140000000 1.0
C      1  0.4785060000000  0.6134780000000  0.4814850000000 1.0
C      1  0.5277520000000  0.5780170000000  0.4344700000000 1.0
C      1  0.5526720000000  0.4877950000000  0.5799510000000 1.0
C      1  0.5245790000000  0.5876690000000  0.5582690000000 1.0
C      1  0.4586570000000  0.4953350000000  0.5339570000000 1.0
C      1  0.4694690000000  0.5281730000000  0.3932190000000 1.0
C      1  0.5464770000000  0.5036380000000  0.4093080000000 1.0
C      1  0.5990680000000  0.4541810000000  0.5168770000000 1.0
C      1  0.5674170000000  0.5060130000000  0.4846310000000 1.0
C      1  0.5609560000000  0.5580030000000  0.4724030000000 1.0
C      1  0.5258310000000  0.3946910000000  0.4393920000000 1.0
C      1  0.4530680000000  0.4799350000000  0.4647770000000 1.0
C      1  0.5264070000000  0.4826580000000  0.5979450000000 1.0
C      1  0.4948280000000  0.6016820000000  0.4467730000000 1.0
C      1  0.4399770000000  0.4414840000000  0.5815350000000 1.0
C      1  0.5245910000000  0.4786630000000  0.4983320000000 1.0
C      1  0.4437360000000  0.5339300000000  0.5044590000000 1.0
C      1  0.5327010000000  0.5485510000000  0.4697270000000 1.0
C      1  0.5041500000000  0.5054070000000  0.3989090000000 1.0
C      1  0.4578990000000  0.4495620000000  0.5227370000000 1.0
C      1  0.4524680000000  0.5959550000000  0.5142160000000 1.0
C      1  0.4342020000000  0.4618350000000  0.5634270000000 1.0
C      1  0.4194860000000  0.5268580000000  0.5708040000000 1.0
C      1  0.5499440000000  0.5542510000000  0.5633380000000 1.0
C      1  0.3992550000000  0.4827180000000  0.4822150000000 1.0
C      1  0.5459940000000  0.4012500000000  0.4589550000000 1.0
C      1  0.5012410000000  0.3853930000000  0.4828830000000 1.0
C      1  0.6024640000000  0.5303800000000  0.4809190000000 1.0
C      1  0.4462240000000  0.5260940000000  0.4102390000000 1.0
C      1  0.4769500000000  0.5002830000000  0.3877880000000 1.0
C      1  0.5721830000000  0.4615530000000  0.5696700000000 1.0
C      1  0.5082820000000  0.5226860000000  0.5338170000000 1.0
C      1  0.4591520000000  0.4197330000000  0.5729640000000 1.0
C      1  0.4660460000000  0.5470590000000  0.5953700000000 1.0
C      1  0.5340940000000  0.4673550000000  0.4462020000000 1.0
C      1  0.4093810000000  0.5715950000000  0.5001260000000 1.0
C      1  0.5464480000000  0.5873030000000  0.5372860000000 1.0
C      1  0.5820790000000  0.5224670000000  0.4348150000000 1.0
C      1  0.5835610000000  0.5267260000000  0.5635230000000 1.0
C      1  0.4218890000000  0.5015420000000  0.5835180000000 1.0
C      1  0.5396230000000  0.6047500000000  0.4773500000000 1.0
C      1  0.5373450000000  0.4950500000000  0.5550950000000 1.0
C      1  0.4874970000000  0.3969840000000  0.5323500000000 1.0
C      1  0.6106640000000  0.4835870000000  0.5420560000000 1.0
C      1  0.5666630000000  0.5698480000000  0.4459800000000 1.0
C      1  0.4055200000000  0.5205730000000  0.5451130000000 1.0
C      1  0.5095250000000  0.5742900000000  0.4991510000000 1.0
C      1  0.4066080000000  0.4591440000000  0.4673480000000 1.0
C      1  0.5317410000000  0.4026660000000  0.5636430000000 1.0
C      1  0.4327270000000  0.5662220000000  0.5420260000000 1.0
C      1  0.5550590000000  0.4513670000000  0.4287390000000 1.0
C      1  0.4636680000000  0.4172240000000  0.4317470000000 1.0
C      1  0.5149600000000  0.5207070000000  0.6108480000000 1.0
C      1  0.4434730000000  0.5005780000000  0.6039220000000 1.0
C      1  0.5537950000000  0.4386610000000  0.5415980000000 1.0
C      1  0.5019430000000  0.3865550000000  0.4549110000000 1.0
C      1  0.4239380000000  0.5510940000000  0.4527740000000 1.0
C      1  0.4063820000000  0.5665630000000  0.5290290000000 1.0
C      1  0.5671370000000  0.4293610000000  0.4803150000000 1.0
C      1  0.4773080000000  0.5863530000000  0.5587200000000 1.0
C      1  0.4190180000000  0.4859300000000  0.4386390000000 1.0
C      1  0.4101320000000  0.5305490000000  0.4676060000000 1.0
C      1  0.5184120000000  0.4148190000000  0.4190120000000 1.0
C      1  0.5784340000000  0.4406390000000  0.4536720000000 1.0
C      1  0.3978650000000  0.5391840000000  0.5241160000000 1.0
C      1  0.5793930000000  0.5100650000000  0.5391760000000 1.0
C      1  0.4884180000000  0.4159770000000  0.4161930000000 1.0
C      1  0.5647650000000  0.5065580000000  0.4569700000000 1.0
C      1  0.5161680000000  0.4590000000000  0.3986190000000 1.0
C      1  0.5126460000000  0.4953060000000  0.6210680000000 1.0
C      1  0.5278470000000  0.4430720000000  0.5441600000000 1.0
C      1  0.4915050000000  0.5401370000000  0.4395870000000 1.0
C      1  0.4845970000000  0.4489490000000  0.5112750000000 1.0
C      1  0.5443680000000  0.3896450000000  0.5252810000000 1.0
C      1  0.5025630000000  0.6113330000000  0.5200930000000 1.0
C      1  0.5389320000000  0.5068100000000  0.4982410000000 1.0
C      1  0.4854680000000  0.5110540000000  0.5645240000000 1.0
C      1  0.4007380000000  0.4516930000000  0.5246620000000 1.0
C      1  0.5752150000000  0.4995750000000  0.4140560000000 1.0
C      1  0.4745350000000  0.3986290000000  0.4531510000000 1.0
C      1  0.4223750000000  0.4578450000000  0.4415810000000 1.0
C      1  0.5767220000000  0.4715820000000  0.4190890000000 1.0
C      1  0.4654400000000  0.5206130000000  0.6090200000000 1.0
C      1  0.4399500000000  0.4618610000000  0.5034780000000 1.0
C      1  0.5047270000000  0.4470020000000  0.5464420000000 1.0
C      1  0.5208530000000  0.5368010000000  0.5878030000000 1.0
C      1  0.4446990000000  0.4971160000000  0.4210010000000 1.0
C      1  0.4876190000000  0.4956640000000  0.5250700000000 1.0
C      1  0.5342300000000  0.5726360000000  0.5155670000000 1.0
C      1  0.4491070000000  0.4865850000000  0.4920260000000 1.0
END
