TITL C-884128-4793-133 -1.44131297939379 125000 -6268.38203736235 0 0 43 (C1) n - 1
REM
REM in /home/nfs/bkarasulu/CARBON/AIRSS/Generating-Clusters/ReaxFF-fromJPCA2015/Units_Real/with-SteepDescent/Only-C1/SD-CG/Try1-3A/FIRE-CG
REM
REM
REM
REM
REM
REM ./C.cell (11c1c37f851c82e70ff6c80c92926a4b)
REM
REM compiler GCC version 9.2.1 20190827 (Red Hat 9.2.1-1)
REM options -cpp -mtune=generic -march=x86-64 -g -O0 -fpre-include=/usr/include/finclude/math-vector-fortran.h
REM seed 950809687 111643351 970610774 -208365691 -1873761820 -1401046808 -1817506490 1369272482 -1814069589 839623519 1319249931 -623353420 825212320 -1545732223 -1422553734 -1536164020 -1293037127 515350571 1474809009 -2010898311 -1219976217 -1914292868 521471254 636733359 -307004068 -965788173 -2013705128 471375771 380711435 986227494 -1431258517 -735351498 -601707822
REM
CELL 1.54180   50.00000   50.00000   50.00000   90.00000   90.00000   90.00000
LATT -1
SFAC C  
C      1  0.5178770000000  0.4684490000000  0.4364540000000 1.0
C      1  0.4949270000000  0.5079650000000  0.5741700000000 1.0
C      1  0.5180070000000  0.4725390000000  0.5543630000000 1.0
C      1  0.4855250000000  0.4408470000000  0.4914720000000 1.0
C      1  0.5370790000000  0.5277980000000  0.5522260000000 1.0
C      1  0.4822450000000  0.4929550000000  0.5158000000000 1.0
C      1  0.4931430000000  0.4559200000000  0.4476940000000 1.0
C      1  0.5460390000000  0.5667990000000  0.5184930000000 1.0
C      1  0.5211060000000  0.5198950000000  0.4359930000000 1.0
C      1  0.4581380000000  0.4941540000000  0.4587850000000 1.0
C      1  0.4528710000000  0.4607050000000  0.5072740000000 1.0
C      1  0.4671580000000  0.4665650000000  0.4574080000000 1.0
C      1  0.5163030000000  0.4887240000000  0.5780200000000 1.0
C      1  0.5373290000000  0.4575350000000  0.5204520000000 1.0
C      1  0.5307620000000  0.5461510000000  0.5340670000000 1.0
C      1  0.4834110000000  0.4621520000000  0.5144800000000 1.0
C      1  0.4550030000000  0.5335350000000  0.5214850000000 1.0
C      1  0.4779660000000  0.5197860000000  0.4599960000000 1.0
C      1  0.5393920000000  0.4652400000000  0.4574060000000 1.0
C      1  0.5035910000000  0.5136630000000  0.4780940000000 1.0
C      1  0.4601450000000  0.4500670000000  0.4810580000000 1.0
C      1  0.4756630000000  0.5640040000000  0.4852920000000 1.0
C      1  0.4381800000000  0.4857990000000  0.5050140000000 1.0
C      1  0.5352450000000  0.5079650000000  0.5681660000000 1.0
C      1  0.4345480000000  0.4949530000000  0.4760770000000 1.0
C      1  0.5285140000000  0.5109350000000  0.4648140000000 1.0
C      1  0.5013300000000  0.5124600000000  0.5067370000000 1.0
C      1  0.5104630000000  0.4579430000000  0.5328530000000 1.0
C      1  0.5262250000000  0.5773240000000  0.4981960000000 1.0
C      1  0.4929200000000  0.5254990000000  0.4325990000000 1.0
C      1  0.5495670000000  0.4830970000000  0.5030610000000 1.0
C      1  0.5022710000000  0.5409720000000  0.5210050000000 1.0
C      1  0.5040120000000  0.4387260000000  0.4692640000000 1.0
C      1  0.5001790000000  0.5633110000000  0.5004670000000 1.0
C      1  0.5666340000000  0.5009990000000  0.5070480000000 1.0
C      1  0.5328950000000  0.4405520000000  0.4726880000000 1.0
C      1  0.4644010000000  0.5431060000000  0.4710500000000 1.0
C      1  0.4539190000000  0.5485260000000  0.4962900000000 1.0
C      1  0.5427050000000  0.4360280000000  0.5009620000000 1.0
C      1  0.5464580000000  0.4891780000000  0.4730570000000 1.0
C      1  0.4555110000000  0.5042640000000  0.5200390000000 1.0
C      1  0.4835970000000  0.5230560000000  0.5604680000000 1.0
C      1  0.4767490000000  0.5398590000000  0.5396630000000 1.0
END
