TITL C-884136-4169-214 47.5348651703987 125000 -15532.7705578918 0 0 106 (C1) n - 1
REM
REM in /home/nfs/bkarasulu/CARBON/AIRSS/Generating-Clusters/ReaxFF-fromJPCA2015/Units_Real/with-SteepDescent/Only-C1/SD-CG/Try1-3A/FIRE-CG
REM
REM
REM
REM
REM
REM ./C.cell (11c1c37f851c82e70ff6c80c92926a4b)
REM
REM compiler GCC version 9.2.1 20190827 (Red Hat 9.2.1-1)
REM options -cpp -mtune=generic -march=x86-64 -g -O0 -fpre-include=/usr/include/finclude/math-vector-fortran.h
REM seed -1820511680 1927389446 1204554925 1111968990 751082598 -1894864981 -303622645 -1666904073 -1737622199 -1758753273 -1054313376 -1562973679 -874804712 1162480619 240322697 -1057857408 -1201516407 -806006080 1231204703 789765288 335144397 -1147670847 -2137771723 -1380379125 -2128333028 -981171863 -690430774 13458001 2061347871 -1497981696 -1398592253 1577077226 -630023941
REM
CELL 1.54180   50.00000   50.00000   50.00000   90.00000   90.00000   90.00000
LATT -1
SFAC C  
C      1  0.5545550000000  0.5226930000000  0.5630440000000 1.0
C      1  0.4667960000000  0.5689440000000  0.4960480000000 1.0
C      1  0.5722100000000  0.5331170000000  0.5419680000000 1.0
C      1  0.4495480000000  0.5076120000000  0.5017300000000 1.0
C      1  0.4434450000000  0.4506530000000  0.5555120000000 1.0
C      1  0.5004310000000  0.4155300000000  0.4766560000000 1.0
C      1  0.4970040000000  0.5733180000000  0.5478490000000 1.0
C      1  0.4933620000000  0.4871780000000  0.5922650000000 1.0
C      1  0.5097640000000  0.4510620000000  0.5607040000000 1.0
C      1  0.4231680000000  0.5466400000000  0.5000750000000 1.0
C      1  0.4452530000000  0.4791080000000  0.4964860000000 1.0
C      1  0.5015410000000  0.4914370000000  0.5475690000000 1.0
C      1  0.5020090000000  0.5888320000000  0.5226980000000 1.0
C      1  0.4514010000000  0.5497700000000  0.5429530000000 1.0
C      1  0.4992640000000  0.5228020000000  0.4242670000000 1.0
C      1  0.5708310000000  0.4559240000000  0.5203400000000 1.0
C      1  0.4651210000000  0.4206720000000  0.5124130000000 1.0
C      1  0.6040690000000  0.4794350000000  0.5133120000000 1.0
C      1  0.5753580000000  0.5207440000000  0.4582480000000 1.0
C      1  0.4756050000000  0.5542940000000  0.5580030000000 1.0
C      1  0.5270950000000  0.5284420000000  0.4314310000000 1.0
C      1  0.4653200000000  0.5788270000000  0.4647590000000 1.0
C      1  0.4817820000000  0.4644380000000  0.4801360000000 1.0
C      1  0.5403470000000  0.4263830000000  0.4959490000000 1.0
C      1  0.4533090000000  0.4899800000000  0.5642970000000 1.0
C      1  0.4854750000000  0.5921330000000  0.4987760000000 1.0
C      1  0.4418170000000  0.5164390000000  0.5500470000000 1.0
C      1  0.4857450000000  0.4638770000000  0.5064660000000 1.0
C      1  0.5285540000000  0.4377810000000  0.5429040000000 1.0
C      1  0.5685040000000  0.5560150000000  0.5440380000000 1.0
C      1  0.4476400000000  0.4273590000000  0.4910120000000 1.0
C      1  0.4628550000000  0.4408980000000  0.4660340000000 1.0
C      1  0.4191030000000  0.5549280000000  0.4720720000000 1.0
C      1  0.5331030000000  0.4978180000000  0.5076300000000 1.0
C      1  0.4438030000000  0.5587000000000  0.5161010000000 1.0
C      1  0.4507310000000  0.4433510000000  0.4396990000000 1.0
C      1  0.5074350000000  0.4732270000000  0.4296880000000 1.0
C      1  0.5208090000000  0.4870860000000  0.4479750000000 1.0
C      1  0.5587540000000  0.4710120000000  0.5649890000000 1.0
C      1  0.4158050000000  0.5099790000000  0.4641150000000 1.0
C      1  0.5282250000000  0.4203320000000  0.4702210000000 1.0
C      1  0.4667790000000  0.4338560000000  0.5669650000000 1.0
C      1  0.5864670000000  0.4819180000000  0.4678460000000 1.0
C      1  0.5236530000000  0.5676540000000  0.5565800000000 1.0
C      1  0.5630150000000  0.5024400000000  0.5059200000000 1.0
C      1  0.4645910000000  0.4884860000000  0.4265960000000 1.0
C      1  0.4214610000000  0.4681290000000  0.5110210000000 1.0
C      1  0.5279810000000  0.5045070000000  0.5343770000000 1.0
C      1  0.5258870000000  0.5860490000000  0.5048770000000 1.0
C      1  0.4939300000000  0.4806070000000  0.5215750000000 1.0
C      1  0.5553770000000  0.4491430000000  0.5450750000000 1.0
C      1  0.5534620000000  0.4585700000000  0.4454110000000 1.0
C      1  0.4278820000000  0.5329510000000  0.4519670000000 1.0
C      1  0.4431370000000  0.4311140000000  0.5321640000000 1.0
C      1  0.5094000000000  0.5240890000000  0.5833510000000 1.0
C      1  0.4865270000000  0.4917550000000  0.4751850000000 1.0
C      1  0.5202110000000  0.4248690000000  0.5176790000000 1.0
C      1  0.5209330000000  0.4973060000000  0.5907740000000 1.0
C      1  0.4681570000000  0.5009970000000  0.4545460000000 1.0
C      1  0.4627350000000  0.5141880000000  0.5262410000000 1.0
C      1  0.4268380000000  0.4385830000000  0.5092280000000 1.0
C      1  0.4176280000000  0.4830240000000  0.4519750000000 1.0
C      1  0.4869880000000  0.5447600000000  0.4995130000000 1.0
C      1  0.5790970000000  0.4822780000000  0.5219670000000 1.0
C      1  0.5369510000000  0.5598880000000  0.5063220000000 1.0
C      1  0.4791430000000  0.5417100000000  0.4349140000000 1.0
C      1  0.4830170000000  0.5308450000000  0.5761350000000 1.0
C      1  0.5701620000000  0.4571820000000  0.4688000000000 1.0
C      1  0.4912510000000  0.4954730000000  0.4178080000000 1.0
C      1  0.4863850000000  0.4284930000000  0.4543360000000 1.0
C      1  0.5583480000000  0.4818270000000  0.4272440000000 1.0
C      1  0.5326540000000  0.4993610000000  0.4641730000000 1.0
C      1  0.4576430000000  0.5278740000000  0.4490730000000 1.0
C      1  0.4069390000000  0.4934200000000  0.5157550000000 1.0
C      1  0.5586080000000  0.5439710000000  0.4657610000000 1.0
C      1  0.5447860000000  0.5697150000000  0.5373320000000 1.0
C      1  0.5052340000000  0.4437380000000  0.4379670000000 1.0
C      1  0.4391650000000  0.5705900000000  0.4618320000000 1.0
C      1  0.5141100000000  0.5089090000000  0.4870560000000 1.0
C      1  0.5466570000000  0.5087820000000  0.4204960000000 1.0
C      1  0.5623520000000  0.4449930000000  0.4943620000000 1.0
C      1  0.5339840000000  0.5497600000000  0.4507720000000 1.0
C      1  0.5494850000000  0.4970890000000  0.5738580000000 1.0
C      1  0.5707790000000  0.5300630000000  0.5131630000000 1.0
C      1  0.4724940000000  0.5038280000000  0.5803130000000 1.0
C      1  0.5122420000000  0.4692320000000  0.5823270000000 1.0
C      1  0.5603640000000  0.5490610000000  0.4939500000000 1.0
C      1  0.5139730000000  0.5394050000000  0.4934430000000 1.0
C      1  0.4867370000000  0.5669610000000  0.4475640000000 1.0
C      1  0.6043470000000  0.4815230000000  0.4904090000000 1.0
C      1  0.5729320000000  0.5070120000000  0.4321020000000 1.0
C      1  0.5647360000000  0.5002340000000  0.4740630000000 1.0
C      1  0.4839600000000  0.4495130000000  0.5457280000000 1.0
C      1  0.4616000000000  0.4694160000000  0.5485440000000 1.0
C      1  0.4203430000000  0.5158650000000  0.4954880000000 1.0
C      1  0.4189280000000  0.5068600000000  0.5360210000000 1.0
C      1  0.4880240000000  0.5296360000000  0.5247720000000 1.0
C      1  0.5274150000000  0.5381620000000  0.5654040000000 1.0
C      1  0.5316540000000  0.4381160000000  0.4467070000000 1.0
C      1  0.5147510000000  0.5294910000000  0.5374130000000 1.0
C      1  0.4945260000000  0.4177730000000  0.5054840000000 1.0
C      1  0.4309780000000  0.4642090000000  0.4309630000000 1.0
C      1  0.5098030000000  0.5888310000000  0.4809910000000 1.0
C      1  0.5134790000000  0.5703190000000  0.4578880000000 1.0
C      1  0.4335740000000  0.4721710000000  0.4714030000000 1.0
C      1  0.4564030000000  0.4626550000000  0.4205540000000 1.0
END
