TITL C-884142-5251-138 57.4025388544031 125000 -21351.2481783411 0 0 145 (C1) n - 1
REM
REM in /home/nfs/bkarasulu/CARBON/AIRSS/Generating-Clusters/ReaxFF-fromJPCA2015/Units_Real/with-SteepDescent/Only-C1/SD-CG/Try1-3A/FIRE-CG
REM
REM
REM
REM
REM
REM ./C.cell (11c1c37f851c82e70ff6c80c92926a4b)
REM
REM compiler GCC version 9.2.1 20190827 (Red Hat 9.2.1-1)
REM options -cpp -mtune=generic -march=x86-64 -g -O0 -fpre-include=/usr/include/finclude/math-vector-fortran.h
REM seed 1016071748 1043454212 2083879960 1179197356 182660242 613388493 -1612519597 393892635 1583335469 1729699228 -511301682 -675941331 897741500 189819235 2069763171 -138140684 1905963025 -172625767 219363916 -850196503 1808136064 -2119972826 1616478839 -2137421026 -50646305 -1476442306 -174368458 987420101 -899563338 445821909 -980250829 -884571425 1880120130
REM
CELL 1.54180   50.00000   50.00000   50.00000   90.00000   90.00000   90.00000
LATT -1
SFAC C  
C      1  0.5015380000000  0.5720970000000  0.4518860000000 1.0
C      1  0.5512870000000  0.4282730000000  0.4573130000000 1.0
C      1  0.4193680000000  0.5431890000000  0.5477450000000 1.0
C      1  0.4347620000000  0.5777200000000  0.5150960000000 1.0
C      1  0.4651490000000  0.4909350000000  0.5148790000000 1.0
C      1  0.5411230000000  0.4054780000000  0.4735570000000 1.0
C      1  0.5556280000000  0.5847950000000  0.5066490000000 1.0
C      1  0.4931750000000  0.4008790000000  0.4606150000000 1.0
C      1  0.4547080000000  0.5270040000000  0.5854720000000 1.0
C      1  0.5269550000000  0.5844460000000  0.4397610000000 1.0
C      1  0.5797100000000  0.5075470000000  0.4564340000000 1.0
C      1  0.4376780000000  0.5226550000000  0.5612460000000 1.0
C      1  0.4749950000000  0.4088460000000  0.4482230000000 1.0
C      1  0.4367830000000  0.4445540000000  0.5585640000000 1.0
C      1  0.4972860000000  0.4430270000000  0.5341080000000 1.0
C      1  0.5797170000000  0.5040780000000  0.5362580000000 1.0
C      1  0.4067120000000  0.5233140000000  0.5299640000000 1.0
C      1  0.4656420000000  0.4797860000000  0.5714270000000 1.0
C      1  0.4269990000000  0.4784600000000  0.4943730000000 1.0
C      1  0.5510950000000  0.4204900000000  0.5249680000000 1.0
C      1  0.4652400000000  0.5502150000000  0.4108330000000 1.0
C      1  0.4973060000000  0.4344930000000  0.5026400000000 1.0
C      1  0.5440290000000  0.4492790000000  0.5221400000000 1.0
C      1  0.4224030000000  0.4456880000000  0.5318050000000 1.0
C      1  0.5639500000000  0.5767060000000  0.4794820000000 1.0
C      1  0.5007220000000  0.3996350000000  0.5487140000000 1.0
C      1  0.5147990000000  0.4417570000000  0.4173490000000 1.0
C      1  0.5587390000000  0.4138630000000  0.4958470000000 1.0
C      1  0.5934240000000  0.4803880000000  0.4901260000000 1.0
C      1  0.6025640000000  0.5087520000000  0.4951020000000 1.0
C      1  0.4569170000000  0.5261790000000  0.3986370000000 1.0
C      1  0.4905750000000  0.5330650000000  0.4201230000000 1.0
C      1  0.4338910000000  0.4982930000000  0.4199010000000 1.0
C      1  0.4772840000000  0.4896880000000  0.5433010000000 1.0
C      1  0.4670080000000  0.4182730000000  0.5323730000000 1.0
C      1  0.5130840000000  0.5559960000000  0.4989220000000 1.0
C      1  0.4855840000000  0.4558230000000  0.4120410000000 1.0
C      1  0.5027800000000  0.4736680000000  0.5368710000000 1.0
C      1  0.5780950000000  0.4552600000000  0.5593100000000 1.0
C      1  0.4668420000000  0.5526840000000  0.5816890000000 1.0
C      1  0.5586560000000  0.4887590000000  0.4664500000000 1.0
C      1  0.5656040000000  0.5666280000000  0.5275390000000 1.0
C      1  0.5309720000000  0.4623480000000  0.5007100000000 1.0
C      1  0.4838620000000  0.5056750000000  0.4340280000000 1.0
C      1  0.5312940000000  0.5997910000000  0.5083040000000 1.0
C      1  0.5715170000000  0.4911470000000  0.5808220000000 1.0
C      1  0.5551550000000  0.5433270000000  0.5716470000000 1.0
C      1  0.4535270000000  0.4267600000000  0.4438830000000 1.0
C      1  0.4703230000000  0.4446080000000  0.4944150000000 1.0
C      1  0.5387470000000  0.5362410000000  0.4647240000000 1.0
C      1  0.4535680000000  0.5177050000000  0.5087030000000 1.0
C      1  0.4567130000000  0.4982600000000  0.3990920000000 1.0
C      1  0.4436440000000  0.4409570000000  0.4699780000000 1.0
C      1  0.4898750000000  0.6009920000000  0.5111780000000 1.0
C      1  0.4705850000000  0.5788680000000  0.4532320000000 1.0
C      1  0.4373180000000  0.5209630000000  0.4352820000000 1.0
C      1  0.4452300000000  0.4102790000000  0.5150140000000 1.0
C      1  0.5453890000000  0.5921430000000  0.4618320000000 1.0
C      1  0.4638960000000  0.5321340000000  0.4823470000000 1.0
C      1  0.4237620000000  0.4953940000000  0.5632430000000 1.0
C      1  0.4755830000000  0.4789830000000  0.4650240000000 1.0
C      1  0.5955200000000  0.5223630000000  0.5200380000000 1.0
C      1  0.5097610000000  0.4385030000000  0.5599710000000 1.0
C      1  0.4167510000000  0.5462720000000  0.4717130000000 1.0
C      1  0.4167450000000  0.4392890000000  0.4829180000000 1.0
C      1  0.5345680000000  0.5250090000000  0.5730510000000 1.0
C      1  0.5290700000000  0.4590020000000  0.5803110000000 1.0
C      1  0.4432480000000  0.5408900000000  0.4554140000000 1.0
C      1  0.5130060000000  0.4788040000000  0.5978060000000 1.0
C      1  0.5581390000000  0.5173640000000  0.5841120000000 1.0
C      1  0.4204970000000  0.5217780000000  0.5044290000000 1.0
C      1  0.5720690000000  0.4337390000000  0.4793860000000 1.0
C      1  0.5056060000000  0.5983440000000  0.5372490000000 1.0
C      1  0.5146480000000  0.4472340000000  0.4830190000000 1.0
C      1  0.5139830000000  0.3946940000000  0.4772790000000 1.0
C      1  0.5611620000000  0.4636630000000  0.5809790000000 1.0
C      1  0.4684980000000  0.5013220000000  0.5908320000000 1.0
C      1  0.5649040000000  0.4839690000000  0.4940140000000 1.0
C      1  0.4994080000000  0.6158290000000  0.4871540000000 1.0
C      1  0.4556710000000  0.5627560000000  0.4351820000000 1.0
C      1  0.4089340000000  0.4951870000000  0.5392230000000 1.0
C      1  0.4877510000000  0.4220660000000  0.5694310000000 1.0
C      1  0.4044180000000  0.4913640000000  0.4628260000000 1.0
C      1  0.4630200000000  0.5300370000000  0.5363500000000 1.0
C      1  0.4838870000000  0.4857930000000  0.4067560000000 1.0
C      1  0.5050400000000  0.5776660000000  0.5743300000000 1.0
C      1  0.5491950000000  0.5638430000000  0.5512210000000 1.0
C      1  0.5230010000000  0.4026610000000  0.5308480000000 1.0
C      1  0.5021980000000  0.5518770000000  0.5233190000000 1.0
C      1  0.5936950000000  0.4504510000000  0.4914410000000 1.0
C      1  0.4741510000000  0.4742710000000  0.4941850000000 1.0
C      1  0.4331640000000  0.5675660000000  0.5420540000000 1.0
C      1  0.4291570000000  0.5682530000000  0.4871290000000 1.0
C      1  0.5051610000000  0.4020700000000  0.5065710000000 1.0
C      1  0.5518300000000  0.5358940000000  0.4380950000000 1.0
C      1  0.5234170000000  0.5599010000000  0.4757670000000 1.0
C      1  0.5471060000000  0.4727590000000  0.5382510000000 1.0
C      1  0.4380100000000  0.4708630000000  0.5723130000000 1.0
C      1  0.4250620000000  0.4817440000000  0.4447390000000 1.0
C      1  0.4630670000000  0.4375380000000  0.5675380000000 1.0
C      1  0.5148900000000  0.5265110000000  0.4033950000000 1.0
C      1  0.5293860000000  0.6086100000000  0.4818980000000 1.0
C      1  0.4930500000000  0.5276330000000  0.4711310000000 1.0
C      1  0.5332400000000  0.5664890000000  0.4195720000000 1.0
C      1  0.4436160000000  0.4713350000000  0.4658900000000 1.0
C      1  0.4202890000000  0.4262330000000  0.5098230000000 1.0
C      1  0.4967350000000  0.5431400000000  0.4459280000000 1.0
C      1  0.5247070000000  0.5100470000000  0.5089800000000 1.0
C      1  0.5304050000000  0.4445650000000  0.4440080000000 1.0
C      1  0.5366250000000  0.5446140000000  0.4131270000000 1.0
C      1  0.5301380000000  0.4897820000000  0.4559570000000 1.0
C      1  0.4816620000000  0.5042060000000  0.4587940000000 1.0
C      1  0.4883170000000  0.5169660000000  0.5464110000000 1.0
C      1  0.4725200000000  0.5573040000000  0.5299910000000 1.0
C      1  0.4197580000000  0.4729090000000  0.5220410000000 1.0
C      1  0.4555240000000  0.5791450000000  0.4781350000000 1.0
C      1  0.4641080000000  0.5816890000000  0.5071770000000 1.0
C      1  0.5835980000000  0.5487860000000  0.5131680000000 1.0
C      1  0.4618180000000  0.5711860000000  0.5567160000000 1.0
C      1  0.4574260000000  0.4362830000000  0.5164610000000 1.0
C      1  0.4851530000000  0.5910850000000  0.5576010000000 1.0
C      1  0.5550620000000  0.4953940000000  0.5205730000000 1.0
C      1  0.5263440000000  0.4777030000000  0.5574260000000 1.0
C      1  0.5775120000000  0.4324970000000  0.5399390000000 1.0
C      1  0.5968940000000  0.4383340000000  0.5186850000000 1.0
C      1  0.4823020000000  0.3949520000000  0.5261270000000 1.0
C      1  0.5253810000000  0.5804200000000  0.5534780000000 1.0
C      1  0.4950140000000  0.5521740000000  0.5853880000000 1.0
C      1  0.5323400000000  0.4300430000000  0.4041260000000 1.0
C      1  0.4679320000000  0.4429320000000  0.4265820000000 1.0
C      1  0.5323370000000  0.4927650000000  0.4222690000000 1.0
C      1  0.5051960000000  0.5252290000000  0.5764370000000 1.0
C      1  0.5919460000000  0.5268890000000  0.4750340000000 1.0
C      1  0.5121280000000  0.4982890000000  0.4021630000000 1.0
C      1  0.5232210000000  0.5144860000000  0.4759450000000 1.0
C      1  0.4082960000000  0.5188430000000  0.4783560000000 1.0
C      1  0.5138430000000  0.4638000000000  0.4592670000000 1.0
C      1  0.5717500000000  0.5159200000000  0.4299510000000 1.0
C      1  0.5603140000000  0.4935150000000  0.4124970000000 1.0
C      1  0.5080910000000  0.5246610000000  0.5280610000000 1.0
C      1  0.4974150000000  0.5028150000000  0.5973220000000 1.0
C      1  0.5812580000000  0.5532640000000  0.4846580000000 1.0
C      1  0.5873520000000  0.4847360000000  0.5567630000000 1.0
C      1  0.5151580000000  0.4831730000000  0.5117970000000 1.0
C      1  0.4046630000000  0.4667860000000  0.4805180000000 1.0
END
