TITL C-883727-9645-58 4.98465186756239 125000 -15438.7827269091 0 0 105 (C1) n - 1
REM
REM in /home/nfs/bkarasulu/CARBON/AIRSS/Generating-Clusters/ReaxFF-fromJPCA2015/Units_Real/with-SteepDescent/Only-C1/SD-CG/Try1-3A/FIRE-CG
REM
REM
REM
REM
REM
REM ./C.cell (11c1c37f851c82e70ff6c80c92926a4b)
REM
REM compiler GCC version 9.2.1 20190827 (Red Hat 9.2.1-1)
REM options -cpp -mtune=generic -march=x86-64 -g -O0 -fpre-include=/usr/include/finclude/math-vector-fortran.h
REM seed -2127291075 -293487637 2089117517 1483453238 547118105 -729278423 30265208 -170203134 -369184815 811269336 -148661862 -1314523507 790583320 -577659987 -1058754757 -1615758898 -273134961 -1273270263 1117489799 1339286461 -2118599486 1223291148 708843935 1751010198 -1105219112 -1675207903 -1537693781 1590471614 2068646837 -1811410147 -270929274 571502718 1720290433
REM
CELL 1.54180   50.00000   50.00000   50.00000   90.00000   90.00000   90.00000
LATT -1
SFAC C  
C      1  0.5138940000000  0.4469630000000  0.4375840000000 1.0
C      1  0.4733240000000  0.5589430000000  0.5265650000000 1.0
C      1  0.5912210000000  0.5099300000000  0.5257040000000 1.0
C      1  0.5246870000000  0.5720960000000  0.5461860000000 1.0
C      1  0.4136210000000  0.4545760000000  0.4964100000000 1.0
C      1  0.5344210000000  0.4625080000000  0.4196980000000 1.0
C      1  0.4430220000000  0.4854370000000  0.4249640000000 1.0
C      1  0.4538450000000  0.4453240000000  0.5618100000000 1.0
C      1  0.4679580000000  0.4949960000000  0.5426490000000 1.0
C      1  0.4318220000000  0.4453130000000  0.5155840000000 1.0
C      1  0.4369610000000  0.4663180000000  0.5736250000000 1.0
C      1  0.4441660000000  0.4944130000000  0.5836550000000 1.0
C      1  0.4909440000000  0.4127380000000  0.4990270000000 1.0
C      1  0.5214740000000  0.5253450000000  0.5105680000000 1.0
C      1  0.5104150000000  0.5484700000000  0.4213210000000 1.0
C      1  0.4460760000000  0.4617280000000  0.4634830000000 1.0
C      1  0.4183380000000  0.5234500000000  0.4578930000000 1.0
C      1  0.5719770000000  0.5519690000000  0.5333270000000 1.0
C      1  0.5851440000000  0.5132470000000  0.5530590000000 1.0
C      1  0.4930340000000  0.4625110000000  0.4866670000000 1.0
C      1  0.4820540000000  0.4424530000000  0.5697670000000 1.0
C      1  0.4792710000000  0.4371580000000  0.4863830000000 1.0
C      1  0.4514890000000  0.5130670000000  0.5218550000000 1.0
C      1  0.5281690000000  0.5126840000000  0.4693910000000 1.0
C      1  0.5823450000000  0.4816990000000  0.4800150000000 1.0
C      1  0.4466820000000  0.5523910000000  0.5442970000000 1.0
C      1  0.4606390000000  0.5419030000000  0.5680530000000 1.0
C      1  0.5071800000000  0.3979440000000  0.4788980000000 1.0
C      1  0.5375330000000  0.4296440000000  0.4461060000000 1.0
C      1  0.5585630000000  0.4703420000000  0.4348900000000 1.0
C      1  0.4933540000000  0.5767060000000  0.4864940000000 1.0
C      1  0.5747240000000  0.5347310000000  0.4844830000000 1.0
C      1  0.4670500000000  0.4411480000000  0.4594280000000 1.0
C      1  0.4731550000000  0.4709930000000  0.5281990000000 1.0
C      1  0.5020480000000  0.5553710000000  0.4681590000000 1.0
C      1  0.5392980000000  0.5321070000000  0.5600690000000 1.0
C      1  0.4399040000000  0.4969180000000  0.4972560000000 1.0
C      1  0.4619630000000  0.5068860000000  0.4243430000000 1.0
C      1  0.5485930000000  0.5682470000000  0.5281730000000 1.0
C      1  0.5012350000000  0.4120920000000  0.5274820000000 1.0
C      1  0.4318370000000  0.5482040000000  0.4483270000000 1.0
C      1  0.4624510000000  0.5105380000000  0.4536960000000 1.0
C      1  0.4256720000000  0.5459800000000  0.5087610000000 1.0
C      1  0.5834500000000  0.5352930000000  0.5116210000000 1.0
C      1  0.5307260000000  0.4414540000000  0.4860630000000 1.0
C      1  0.4742920000000  0.5307570000000  0.5142440000000 1.0
C      1  0.5168790000000  0.5860550000000  0.5011510000000 1.0
C      1  0.5075810000000  0.4977370000000  0.4285450000000 1.0
C      1  0.5733760000000  0.4862050000000  0.5258990000000 1.0
C      1  0.4192330000000  0.5320850000000  0.4844500000000 1.0
C      1  0.4185920000000  0.4531550000000  0.4664120000000 1.0
C      1  0.4820510000000  0.5491680000000  0.4286090000000 1.0
C      1  0.5257390000000  0.4214400000000  0.5399150000000 1.0
C      1  0.5456650000000  0.5195240000000  0.4416630000000 1.0
C      1  0.4908750000000  0.4637570000000  0.5882520000000 1.0
C      1  0.4897520000000  0.5324790000000  0.5692240000000 1.0
C      1  0.5172480000000  0.4768540000000  0.5823620000000 1.0
C      1  0.4518950000000  0.4903420000000  0.4723370000000 1.0
C      1  0.5583730000000  0.5590360000000  0.4790570000000 1.0
C      1  0.5263020000000  0.5233320000000  0.4206330000000 1.0
C      1  0.5417040000000  0.5108380000000  0.4970450000000 1.0
C      1  0.5148040000000  0.4639910000000  0.4665910000000 1.0
C      1  0.4934040000000  0.5158130000000  0.4992690000000 1.0
C      1  0.5215380000000  0.4854620000000  0.4106860000000 1.0
C      1  0.5209470000000  0.4797710000000  0.5276540000000 1.0
C      1  0.4230250000000  0.4818800000000  0.5011010000000 1.0
C      1  0.4324350000000  0.5321990000000  0.5326640000000 1.0
C      1  0.5430650000000  0.5735020000000  0.5007400000000 1.0
C      1  0.4826190000000  0.4472220000000  0.4360560000000 1.0
C      1  0.4959320000000  0.5728100000000  0.5415030000000 1.0
C      1  0.4908700000000  0.5065450000000  0.5559400000000 1.0
C      1  0.4694870000000  0.4827490000000  0.5954350000000 1.0
C      1  0.4995920000000  0.4257070000000  0.5533630000000 1.0
C      1  0.4207040000000  0.4953410000000  0.4415680000000 1.0
C      1  0.5025940000000  0.5273200000000  0.4735540000000 1.0
C      1  0.5156360000000  0.5458680000000  0.5755160000000 1.0
C      1  0.5710850000000  0.4541680000000  0.4799520000000 1.0
C      1  0.5148500000000  0.4879770000000  0.5547240000000 1.0
C      1  0.5139610000000  0.4914920000000  0.4570830000000 1.0
C      1  0.5675690000000  0.4451460000000  0.5527160000000 1.0
C      1  0.4681120000000  0.5751690000000  0.5009040000000 1.0
C      1  0.4546590000000  0.4470850000000  0.5311850000000 1.0
C      1  0.5206090000000  0.5011680000000  0.5953460000000 1.0
C      1  0.4821360000000  0.4903320000000  0.4144610000000 1.0
C      1  0.4307300000000  0.5726100000000  0.4654860000000 1.0
C      1  0.5304740000000  0.4159000000000  0.4713930000000 1.0
C      1  0.5502850000000  0.4353990000000  0.5310110000000 1.0
C      1  0.5205490000000  0.5271840000000  0.5964450000000 1.0
C      1  0.5772530000000  0.5083210000000  0.4683740000000 1.0
C      1  0.4408990000000  0.5688030000000  0.4935600000000 1.0
C      1  0.5600320000000  0.4481380000000  0.4525730000000 1.0
C      1  0.5786080000000  0.4732980000000  0.5537040000000 1.0
C      1  0.5535600000000  0.4443960000000  0.5028960000000 1.0
C      1  0.4665510000000  0.4666890000000  0.4214800000000 1.0
C      1  0.5456750000000  0.4881610000000  0.5147270000000 1.0
C      1  0.4429560000000  0.5200780000000  0.5694890000000 1.0
C      1  0.5115100000000  0.5902590000000  0.5287890000000 1.0
C      1  0.5655270000000  0.4990650000000  0.4423700000000 1.0
C      1  0.5479860000000  0.5664720000000  0.4522460000000 1.0
C      1  0.5189600000000  0.5645530000000  0.4452450000000 1.0
C      1  0.4030110000000  0.4728420000000  0.4494460000000 1.0
C      1  0.5331120000000  0.5272360000000  0.5341460000000 1.0
C      1  0.4616290000000  0.5394450000000  0.4484170000000 1.0
C      1  0.5703880000000  0.5367070000000  0.5585070000000 1.0
C      1  0.4953830000000  0.4807330000000  0.5099010000000 1.0
END
