TITL C-884127-5181-296 2.70469628048023 125000 -11829.7951105078 0 0 80 (C1) n - 1
REM
REM in /home/nfs/bkarasulu/CARBON/AIRSS/Generating-Clusters/ReaxFF-fromJPCA2015/Units_Real/with-SteepDescent/Only-C1/SD-CG/Try1-3A/FIRE-CG
REM
REM
REM
REM
REM
REM ./C.cell (11c1c37f851c82e70ff6c80c92926a4b)
REM
REM compiler GCC version 9.2.1 20190827 (Red Hat 9.2.1-1)
REM options -cpp -mtune=generic -march=x86-64 -g -O0 -fpre-include=/usr/include/finclude/math-vector-fortran.h
REM seed 1181929355 -1416827161 -17560783 703463476 -1099507011 1674744937 -684627592 368904253 1422528076 -1181559818 -1904755884 1217371789 128858364 1490055147 -1337559789 122082658 -1855573265 -1331621247 -135545447 1680373176 -1952835295 -2053928985 168436952 -336379990 -119904714 1088369541 2025329406 -842329528 -2083908931 -1528902223 -767956922 -748606433 869777444
REM
CELL 1.54180   50.00000   50.00000   50.00000   90.00000   90.00000   90.00000
LATT -1
SFAC C  
C      1  0.4662810000000  0.5058700000000  0.4666410000000 1.0
C      1  0.4540670000000  0.4628560000000  0.5338870000000 1.0
C      1  0.5175720000000  0.4997550000000  0.4744920000000 1.0
C      1  0.4804060000000  0.5784330000000  0.4943250000000 1.0
C      1  0.4347580000000  0.5353150000000  0.5287680000000 1.0
C      1  0.4648620000000  0.4186010000000  0.4803880000000 1.0
C      1  0.5329780000000  0.4961030000000  0.5053500000000 1.0
C      1  0.5108260000000  0.4928630000000  0.5227890000000 1.0
C      1  0.5393020000000  0.5330720000000  0.4411200000000 1.0
C      1  0.4710420000000  0.5526750000000  0.5660880000000 1.0
C      1  0.5279340000000  0.4774140000000  0.5728060000000 1.0
C      1  0.4698910000000  0.5647890000000  0.4718350000000 1.0
C      1  0.5417710000000  0.5269350000000  0.5697590000000 1.0
C      1  0.4994870000000  0.4824980000000  0.5789810000000 1.0
C      1  0.5538300000000  0.4482840000000  0.4685840000000 1.0
C      1  0.5478840000000  0.4983170000000  0.5741950000000 1.0
C      1  0.4475170000000  0.5490860000000  0.4411950000000 1.0
C      1  0.5714350000000  0.4850300000000  0.5585530000000 1.0
C      1  0.4298100000000  0.5066910000000  0.5245240000000 1.0
C      1  0.4304930000000  0.4683950000000  0.4606660000000 1.0
C      1  0.4932060000000  0.5329130000000  0.5766710000000 1.0
C      1  0.5601980000000  0.4987840000000  0.4470530000000 1.0
C      1  0.5273240000000  0.5731160000000  0.4802280000000 1.0
C      1  0.5542500000000  0.4750370000000  0.5095500000000 1.0
C      1  0.4839800000000  0.5734030000000  0.5408320000000 1.0
C      1  0.4594070000000  0.4879420000000  0.5679500000000 1.0
C      1  0.5964180000000  0.4935640000000  0.5570150000000 1.0
C      1  0.4463680000000  0.5481270000000  0.4811260000000 1.0
C      1  0.4359220000000  0.4214810000000  0.4857740000000 1.0
C      1  0.5857630000000  0.4871510000000  0.4853650000000 1.0
C      1  0.5090970000000  0.5805550000000  0.5288580000000 1.0
C      1  0.4578480000000  0.5311970000000  0.5457240000000 1.0
C      1  0.4438150000000  0.5555560000000  0.5094260000000 1.0
C      1  0.4623220000000  0.4879050000000  0.4426130000000 1.0
C      1  0.5486910000000  0.4711640000000  0.4517280000000 1.0
C      1  0.4898630000000  0.5070580000000  0.5118840000000 1.0
C      1  0.4822960000000  0.5203650000000  0.4147500000000 1.0
C      1  0.5062240000000  0.4743490000000  0.4276960000000 1.0
C      1  0.4272490000000  0.4484470000000  0.4967600000000 1.0
C      1  0.4787660000000  0.4580630000000  0.4891170000000 1.0
C      1  0.4863040000000  0.5071920000000  0.5686140000000 1.0
C      1  0.4175830000000  0.4748280000000  0.4845190000000 1.0
C      1  0.5666680000000  0.5366900000000  0.4962220000000 1.0
C      1  0.4892670000000  0.5607770000000  0.4510200000000 1.0
C      1  0.5197930000000  0.4772890000000  0.4532660000000 1.0
C      1  0.5079950000000  0.4645120000000  0.5297920000000 1.0
C      1  0.5052230000000  0.4532090000000  0.5014070000000 1.0
C      1  0.5272900000000  0.5528100000000  0.4383940000000 1.0
C      1  0.4789770000000  0.5140170000000  0.5366490000000 1.0
C      1  0.4537420000000  0.4596520000000  0.4476310000000 1.0
C      1  0.5165050000000  0.5428380000000  0.5664390000000 1.0
C      1  0.5851140000000  0.5168320000000  0.4843750000000 1.0
C      1  0.5477370000000  0.5552070000000  0.4875220000000 1.0
C      1  0.4421780000000  0.4869210000000  0.5443690000000 1.0
C      1  0.5147450000000  0.4268690000000  0.4940310000000 1.0
C      1  0.5091250000000  0.4470010000000  0.4284500000000 1.0
C      1  0.5839810000000  0.5026420000000  0.4614010000000 1.0
C      1  0.4901060000000  0.5084960000000  0.4823780000000 1.0
C      1  0.5573190000000  0.4663560000000  0.5371820000000 1.0
C      1  0.5112080000000  0.5577810000000  0.5430460000000 1.0
C      1  0.4655890000000  0.5725030000000  0.5171500000000 1.0
C      1  0.4263660000000  0.5013300000000  0.4959790000000 1.0
C      1  0.4801880000000  0.4498960000000  0.5444320000000 1.0
C      1  0.5677500000000  0.4642760000000  0.4873670000000 1.0
C      1  0.4538630000000  0.4583620000000  0.5053620000000 1.0
C      1  0.4822890000000  0.4224750000000  0.5297630000000 1.0
C      1  0.5470230000000  0.5227850000000  0.5154010000000 1.0
C      1  0.4774810000000  0.4656270000000  0.5707240000000 1.0
C      1  0.5322640000000  0.4285490000000  0.4709150000000 1.0
C      1  0.5147460000000  0.5698480000000  0.4528570000000 1.0
C      1  0.5322560000000  0.4609640000000  0.5486060000000 1.0
C      1  0.5391270000000  0.5130260000000  0.4568580000000 1.0
C      1  0.5461860000000  0.5279280000000  0.5425660000000 1.0
C      1  0.5078680000000  0.5822770000000  0.5007630000000 1.0
C      1  0.4876750000000  0.4146890000000  0.5030240000000 1.0
C      1  0.4818200000000  0.4924240000000  0.4209140000000 1.0
C      1  0.5190720000000  0.4246070000000  0.4428510000000 1.0
C      1  0.4725300000000  0.5458190000000  0.4289750000000 1.0
C      1  0.4425410000000  0.5187190000000  0.4785280000000 1.0
C      1  0.4713550000000  0.4428210000000  0.4651960000000 1.0
END
