TITL C-883739-1268-210 -0.0566634880739176 125000 -7532.74262858005 0 0 52 (C1) n - 1
REM
REM in /home/nfs/bkarasulu/CARBON/AIRSS/Generating-Clusters/ReaxFF-fromJPCA2015/Units_Real/with-SteepDescent/Only-C1/SD-CG/Try1-3A/FIRE-CG
REM
REM
REM
REM
REM
REM ./C.cell (11c1c37f851c82e70ff6c80c92926a4b)
REM
REM compiler GCC version 9.2.1 20190827 (Red Hat 9.2.1-1)
REM options -cpp -mtune=generic -march=x86-64 -g -O0 -fpre-include=/usr/include/finclude/math-vector-fortran.h
REM seed 649043697 -1685660250 -617142475 2054365061 676856882 763933905 -609778999 -873806167 -1581721961 -1472329417 1200969967 -555920162 -1930612041 389805969 320138014 -994651386 -2024138166 879009339 736792589 1340472671 244947960 -221542750 1512727269 1320281575 -1019834214 794615276 -623629074 618146224 -1987662981 403147499 -1552022530 -1142205472 -862669517
REM
CELL 1.54180   50.00000   50.00000   50.00000   90.00000   90.00000   90.00000
LATT -1
SFAC C  
C      1  0.5351660000000  0.5195690000000  0.5456230000000 1.0
C      1  0.5141350000000  0.4930240000000  0.4254050000000 1.0
C      1  0.4573570000000  0.4635460000000  0.5592560000000 1.0
C      1  0.4643360000000  0.5579490000000  0.5548010000000 1.0
C      1  0.4673460000000  0.4375920000000  0.4887070000000 1.0
C      1  0.4989880000000  0.4429750000000  0.5354950000000 1.0
C      1  0.4738580000000  0.5485530000000  0.4632320000000 1.0
C      1  0.5317460000000  0.5671190000000  0.5245660000000 1.0
C      1  0.5590330000000  0.5609710000000  0.5128590000000 1.0
C      1  0.5268540000000  0.4648450000000  0.4688080000000 1.0
C      1  0.4705490000000  0.4773220000000  0.4717210000000 1.0
C      1  0.5278280000000  0.5332630000000  0.4550460000000 1.0
C      1  0.5161790000000  0.5178340000000  0.4999630000000 1.0
C      1  0.4361560000000  0.4954990000000  0.5249180000000 1.0
C      1  0.4601000000000  0.5245060000000  0.4651640000000 1.0
C      1  0.4901110000000  0.5060300000000  0.5029890000000 1.0
C      1  0.4973260000000  0.5331240000000  0.5551850000000 1.0
C      1  0.5498460000000  0.4841900000000  0.5044820000000 1.0
C      1  0.5220010000000  0.5456340000000  0.5449360000000 1.0
C      1  0.4342110000000  0.4912400000000  0.4968770000000 1.0
C      1  0.4526720000000  0.4539250000000  0.4688320000000 1.0
C      1  0.5431520000000  0.5554080000000  0.4634280000000 1.0
C      1  0.5075980000000  0.4510180000000  0.4568250000000 1.0
C      1  0.5312400000000  0.4605240000000  0.5658910000000 1.0
C      1  0.5640400000000  0.5336980000000  0.5064650000000 1.0
C      1  0.4978120000000  0.4721210000000  0.4361900000000 1.0
C      1  0.5434190000000  0.4864120000000  0.4758460000000 1.0
C      1  0.4497710000000  0.5210450000000  0.5214550000000 1.0
C      1  0.5286290000000  0.5126360000000  0.4749080000000 1.0
C      1  0.4679700000000  0.5361220000000  0.5426520000000 1.0
C      1  0.5088630000000  0.4789220000000  0.5672970000000 1.0
C      1  0.4888920000000  0.4792060000000  0.4950480000000 1.0
C      1  0.5432370000000  0.5124580000000  0.5162790000000 1.0
C      1  0.4455980000000  0.4668020000000  0.5326670000000 1.0
C      1  0.4585420000000  0.5136290000000  0.4940930000000 1.0
C      1  0.4331110000000  0.4625910000000  0.4899290000000 1.0
C      1  0.5375650000000  0.4609000000000  0.5147840000000 1.0
C      1  0.5121380000000  0.5071550000000  0.5591870000000 1.0
C      1  0.4878860000000  0.4607220000000  0.5560170000000 1.0
C      1  0.5173000000000  0.5769240000000  0.5019670000000 1.0
C      1  0.5453380000000  0.4521800000000  0.5411030000000 1.0
C      1  0.5225420000000  0.4361600000000  0.5511920000000 1.0
C      1  0.4481730000000  0.4471260000000  0.5097090000000 1.0
C      1  0.5065830000000  0.4542500000000  0.5081530000000 1.0
C      1  0.5631210000000  0.5526290000000  0.4845660000000 1.0
C      1  0.5192130000000  0.5695860000000  0.4719050000000 1.0
C      1  0.4923000000000  0.5623470000000  0.4649430000000 1.0
C      1  0.5186330000000  0.5218330000000  0.4305640000000 1.0
C      1  0.4965370000000  0.4397060000000  0.4831190000000 1.0
C      1  0.4701010000000  0.5069280000000  0.4439440000000 1.0
C      1  0.4720480000000  0.4791190000000  0.4448020000000 1.0
C      1  0.4928510000000  0.5111310000000  0.4262060000000 1.0
END
