TITL C-883737-113-57 2295493.67519417 125000 -17472.748031288 0 0 119 (C1) n - 1
REM
REM in /home/nfs/bkarasulu/CARBON/AIRSS/Generating-Clusters/ReaxFF-fromJPCA2015/Units_Real/with-SteepDescent/Only-C1/SD-CG/Try1-3A/FIRE-CG
REM
REM
REM
REM
REM
REM ./C.cell (11c1c37f851c82e70ff6c80c92926a4b)
REM
REM compiler GCC version 9.2.1 20190827 (Red Hat 9.2.1-1)
REM options -cpp -mtune=generic -march=x86-64 -g -O0 -fpre-include=/usr/include/finclude/math-vector-fortran.h
REM seed -1626095393 -1817295052 35937132 1576113434 1294370402 -56716473 2103029049 973695128 -968616237 1414207018 -1774463463 -405419805 731940762 1480192676 -107049863 1940871770 -1244000753 -2029239913 6706249 -824854001 -859791604 -240793359 608534572 -1554037940 1850209829 -1950058993 -445423018 -1072596204 2128970083 1668859942 1215641870 1241886180 572269226
REM
CELL 1.54180   50.00000   50.00000   50.00000   90.00000   90.00000   90.00000
LATT -1
SFAC C  
C      1  0.4173150000000  0.4757710000000  0.5398330000000 1.0
C      1  0.4794740000000  0.4981900000000  0.5331160000000 1.0
C      1  0.4855790000000  0.4557170000000  0.5679300000000 1.0
C      1  0.5791230000000  0.4935240000000  0.5649530000000 1.0
C      1  0.5703180000000  0.4541330000000  0.4753210000000 1.0
C      1  0.5917220000000  0.4916430000000  0.4718470000000 1.0
C      1  0.4778630000000  0.5347150000000  0.5688610000000 1.0
C      1  0.4749060000000  0.5129130000000  0.5875690000000 1.0
C      1  0.4657670000000  0.5031610000000  0.4605210000000 1.0
C      1  0.5784610000000  0.5270560000000  0.5534140000000 1.0
C      1  0.5235520000000  0.5012920000000  0.4619580000000 1.0
C      1  0.5503380000000  0.4193100000000  0.5303340000000 1.0
C      1  0.5404460000000  0.4292470000000  0.5064410000000 1.0
C      1  0.5293940000000  0.5652130000000  0.4943060000000 1.0
C      1  0.5821830000000  0.4723990000000  0.5441250000000 1.0
C      1  0.5431610000000  0.5584160000000  0.4520430000000 1.0
C      1  0.5020230000000  0.4591830000000  0.5080380000000 1.0
C      1  0.5214270000000  0.5348830000000  0.4210200000000 1.0
C      1  0.5533720000000  0.4773760000000  0.4818510000000 1.0
C      1  0.4749560000000  0.5745340000000  0.5506980000000 1.0
C      1  0.5210400000000  0.5593440000000  0.4317000000000 1.0
C      1  0.5827450000000  0.4872990000000  0.4441220000000 1.0
C      1  0.4591730000000  0.4385860000000  0.5405430000000 1.0
C      1  0.5796700000000  0.5112860000000  0.4914420000000 1.0
C      1  0.5587740000000  0.4739660000000  0.4277940000000 1.0
C      1  0.5276740000000  0.4268910000000  0.5444680000000 1.0
C      1  0.5507040000000  0.5001450000000  0.4649280000000 1.0
C      1  0.4689800000000  0.5809240000000  0.4982610000000 1.0
C      1  0.4936720000000  0.5680120000000  0.4449780000000 1.0
C      1  0.5535730000000  0.4123330000000  0.4907480000000 1.0
C      1  0.4082850000000  0.5256230000000  0.4721470000000 1.0
C      1  0.5370940000000  0.4616180000000  0.5847460000000 1.0
C      1  0.5325180000000  0.5027640000000  0.5262350000000 1.0
C      1  0.5144890000000  0.5904150000000  0.4891090000000 1.0
C      1  0.4646380000000  0.4341020000000  0.4411730000000 1.0
C      1  0.4864920000000  0.5276710000000  0.5392500000000 1.0
C      1  0.4938940000000  0.4308800000000  0.4314320000000 1.0
C      1  0.4551740000000  0.5302970000000  0.4989470000000 1.0
C      1  0.4265730000000  0.5689810000000  0.4906110000000 1.0
C      1  0.5402450000000  0.4299250000000  0.4458580000000 1.0
C      1  0.4431320000000  0.4777510000000  0.5718320000000 1.0
C      1  0.4567920000000  0.4279350000000  0.5134200000000 1.0
C      1  0.5717060000000  0.5455290000000  0.5320480000000 1.0
C      1  0.4755000000000  0.5523660000000  0.4958140000000 1.0
C      1  0.4990480000000  0.5848530000000  0.5371000000000 1.0
C      1  0.4752370000000  0.4681390000000  0.4974340000000 1.0
C      1  0.4556470000000  0.5047070000000  0.5142290000000 1.0
C      1  0.5377510000000  0.5122070000000  0.5728860000000 1.0
C      1  0.5128780000000  0.4198460000000  0.4493590000000 1.0
C      1  0.5198060000000  0.5299650000000  0.5344620000000 1.0
C      1  0.4471540000000  0.5028020000000  0.5839800000000 1.0
C      1  0.4935930000000  0.5938310000000  0.5094880000000 1.0
C      1  0.5534650000000  0.4660570000000  0.5473260000000 1.0
C      1  0.5235000000000  0.5085070000000  0.4136990000000 1.0
C      1  0.5507110000000  0.5665820000000  0.5361780000000 1.0
C      1  0.4604380000000  0.4759650000000  0.4185460000000 1.0
C      1  0.5141250000000  0.5248880000000  0.4753360000000 1.0
C      1  0.3990080000000  0.4809750000000  0.4461300000000 1.0
C      1  0.4217820000000  0.5398360000000  0.4943930000000 1.0
C      1  0.5327980000000  0.5519330000000  0.5189400000000 1.0
C      1  0.4437080000000  0.5787440000000  0.5135000000000 1.0
C      1  0.5804880000000  0.5384090000000  0.5026640000000 1.0
C      1  0.4314330000000  0.5418510000000  0.5469340000000 1.0
C      1  0.4544250000000  0.5048030000000  0.4204630000000 1.0
C      1  0.5256960000000  0.5779100000000  0.5497750000000 1.0
C      1  0.5669810000000  0.5127500000000  0.4415840000000 1.0
C      1  0.5169460000000  0.5607880000000  0.5710750000000 1.0
C      1  0.4713190000000  0.5406330000000  0.5195810000000 1.0
C      1  0.4993350000000  0.5086900000000  0.4936380000000 1.0
C      1  0.5518160000000  0.4994440000000  0.4177080000000 1.0
C      1  0.5076840000000  0.4663290000000  0.5867880000000 1.0
C      1  0.4735010000000  0.5475910000000  0.4388970000000 1.0
C      1  0.5847200000000  0.4777670000000  0.5159620000000 1.0
C      1  0.5383200000000  0.4526040000000  0.4279470000000 1.0
C      1  0.5249410000000  0.4092500000000  0.4919730000000 1.0
C      1  0.5682560000000  0.5440990000000  0.4507690000000 1.0
C      1  0.5047020000000  0.4379460000000  0.5299890000000 1.0
C      1  0.4849550000000  0.4349980000000  0.5484710000000 1.0
C      1  0.5094900000000  0.4539500000000  0.4779930000000 1.0
C      1  0.4901340000000  0.4724150000000  0.4129350000000 1.0
C      1  0.5014090000000  0.4937480000000  0.4288290000000 1.0
C      1  0.4517920000000  0.4520170000000  0.4966320000000 1.0
C      1  0.4967240000000  0.4932450000000  0.5824900000000 1.0
C      1  0.5927580000000  0.4675940000000  0.4894440000000 1.0
C      1  0.4350320000000  0.5636150000000  0.4640490000000 1.0
C      1  0.5618000000000  0.5274480000000  0.5757610000000 1.0
C      1  0.4450470000000  0.5482360000000  0.4423220000000 1.0
C      1  0.4128830000000  0.5040950000000  0.5498420000000 1.0
C      1  0.4346770000000  0.5185890000000  0.4363280000000 1.0
C      1  0.3988650000000  0.5083260000000  0.4518370000000 1.0
C      1  0.5384090000000  0.4907820000000  0.5520310000000 1.0
C      1  0.4826340000000  0.4831680000000  0.5587340000000 1.0
C      1  0.4381640000000  0.4586410000000  0.5526250000000 1.0
C      1  0.5065160000000  0.4916220000000  0.5156480000000 1.0
C      1  0.5451790000000  0.4426970000000  0.5633460000000 1.0
C      1  0.4278220000000  0.4702310000000  0.4580680000000 1.0
C      1  0.4383810000000  0.5000380000000  0.4586230000000 1.0
C      1  0.5100810000000  0.4754050000000  0.4598230000000 1.0
C      1  0.5614840000000  0.4808630000000  0.5852630000000 1.0
C      1  0.4257600000000  0.4618380000000  0.4873220000000 1.0
C      1  0.4876890000000  0.5615210000000  0.5737250000000 1.0
C      1  0.5046860000000  0.4228130000000  0.4772090000000 1.0
C      1  0.5745210000000  0.5493240000000  0.4772710000000 1.0
C      1  0.4963450000000  0.5837170000000  0.4684450000000 1.0
C      1  0.5608560000000  0.4935420000000  0.5066780000000 1.0
C      1  0.5094460000000  0.4509880000000  0.4180990000000 1.0
C      1  0.4137600000000  0.5253330000000  0.5286170000000 1.0
C      1  0.4776670000000  0.5158690000000  0.4357530000000 1.0
C      1  0.5249330000000  0.5347250000000  0.5622770000000 1.0
C      1  0.4287420000000  0.5209230000000  0.5679140000000 1.0
C      1  0.5601190000000  0.4283080000000  0.4671370000000 1.0
C      1  0.5292420000000  0.5480850000000  0.4745280000000 1.0
C      1  0.4275270000000  0.5034450000000  0.5118470000000 1.0
C      1  0.4727910000000  0.4165920000000  0.4915020000000 1.0
C      1  0.4799210000000  0.4916370000000  0.4820560000000 1.0
C      1  0.4649840000000  0.4244290000000  0.4672230000000 1.0
C      1  0.4477580000000  0.5660740000000  0.5394260000000 1.0
C      1  0.4486930000000  0.4581500000000  0.4375280000000 1.0
C      1  0.4152000000000  0.4769430000000  0.5098340000000 1.0
END
