TITL C-884132-5695-373 92.6930270075408 125000 -22948.5002919504 0 0 154 (C1) n - 1
REM
REM in /home/nfs/bkarasulu/CARBON/AIRSS/Generating-Clusters/ReaxFF-fromJPCA2015/Units_Real/with-SteepDescent/Only-C1/SD-CG/Try1-3A/FIRE-CG
REM
REM
REM
REM
REM
REM ./C.cell (11c1c37f851c82e70ff6c80c92926a4b)
REM
REM compiler GCC version 9.2.1 20190827 (Red Hat 9.2.1-1)
REM options -cpp -mtune=generic -march=x86-64 -g -O0 -fpre-include=/usr/include/finclude/math-vector-fortran.h
REM seed 17026909 -453707821 -259899238 -1308545264 90045122 -610564881 1037504617 966591490 -1628798906 1326533744 2070529360 -229377540 -1633046579 1916686396 591706551 -100396627 1447174461 -541790418 -1487933952 -663088581 2004657928 -1985371744 -921715394 -925704376 499382564 1254038369 -1978764490 -2129412624 -336196053 877572596 -711176864 276018735 -546791225
REM
CELL 1.54180   50.00000   50.00000   50.00000   90.00000   90.00000   90.00000
LATT -1
SFAC C  
C      1  0.4183150000000  0.4981780000000  0.4673090000000 1.0
C      1  0.4417130000000  0.5647580000000  0.4388660000000 1.0
C      1  0.4662130000000  0.4006900000000  0.5075740000000 1.0
C      1  0.5756650000000  0.4614490000000  0.4389640000000 1.0
C      1  0.4618700000000  0.5805020000000  0.5226040000000 1.0
C      1  0.5301960000000  0.5278960000000  0.5863500000000 1.0
C      1  0.4826570000000  0.5660510000000  0.5360060000000 1.0
C      1  0.4967250000000  0.6140200000000  0.5150600000000 1.0
C      1  0.5385410000000  0.5508300000000  0.5744940000000 1.0
C      1  0.5203370000000  0.5077400000000  0.5258800000000 1.0
C      1  0.5116050000000  0.4301730000000  0.4270490000000 1.0
C      1  0.4716210000000  0.5442600000000  0.4047980000000 1.0
C      1  0.4937440000000  0.5609380000000  0.4193070000000 1.0
C      1  0.4908790000000  0.4233560000000  0.5771770000000 1.0
C      1  0.5372630000000  0.4208380000000  0.5490960000000 1.0
C      1  0.4215970000000  0.4548690000000  0.4438760000000 1.0
C      1  0.4557600000000  0.4797290000000  0.5775910000000 1.0
C      1  0.5723890000000  0.5303470000000  0.5388240000000 1.0
C      1  0.4616440000000  0.4114020000000  0.4810060000000 1.0
C      1  0.4784110000000  0.5242780000000  0.4978860000000 1.0
C      1  0.4123110000000  0.4691320000000  0.4673370000000 1.0
C      1  0.4453770000000  0.4215110000000  0.5465270000000 1.0
C      1  0.4420250000000  0.5014520000000  0.4820140000000 1.0
C      1  0.5495800000000  0.4428960000000  0.5617680000000 1.0
C      1  0.5664690000000  0.5106850000000  0.5568300000000 1.0
C      1  0.4104530000000  0.5535400000000  0.4790670000000 1.0
C      1  0.6306490000000  0.5056680000000  0.5284270000000 1.0
C      1  0.4804000000000  0.4676510000000  0.4188240000000 1.0
C      1  0.5664380000000  0.5279330000000  0.4340620000000 1.0
C      1  0.4830110000000  0.5461620000000  0.4441720000000 1.0
C      1  0.4849870000000  0.5184850000000  0.4020290000000 1.0
C      1  0.5689260000000  0.4296850000000  0.5067860000000 1.0
C      1  0.5807880000000  0.5497770000000  0.4751360000000 1.0
C      1  0.4946210000000  0.3992690000000  0.5164250000000 1.0
C      1  0.4337450000000  0.4140390000000  0.4716550000000 1.0
C      1  0.4330230000000  0.4604530000000  0.5787950000000 1.0
C      1  0.4435020000000  0.5283870000000  0.5347220000000 1.0
C      1  0.5197550000000  0.4062140000000  0.5027370000000 1.0
C      1  0.5853880000000  0.4870460000000  0.5606140000000 1.0
C      1  0.4650560000000  0.4919240000000  0.5274770000000 1.0
C      1  0.5120930000000  0.5775960000000  0.4585660000000 1.0
C      1  0.4561500000000  0.4850750000000  0.5015300000000 1.0
C      1  0.4585330000000  0.4245820000000  0.4288700000000 1.0
C      1  0.5133520000000  0.4645640000000  0.6125990000000 1.0
C      1  0.4527930000000  0.5282160000000  0.4839980000000 1.0
C      1  0.4662100000000  0.5999890000000  0.4701210000000 1.0
C      1  0.4857560000000  0.6139170000000  0.4884000000000 1.0
C      1  0.5125670000000  0.6106790000000  0.4924220000000 1.0
C      1  0.5759630000000  0.4695910000000  0.5805110000000 1.0
C      1  0.5071580000000  0.5547670000000  0.5206540000000 1.0
C      1  0.5786840000000  0.4679530000000  0.5392560000000 1.0
C      1  0.4875450000000  0.4148390000000  0.4337020000000 1.0
C      1  0.5735070000000  0.4873390000000  0.4554620000000 1.0
C      1  0.5134480000000  0.5671920000000  0.5809350000000 1.0
C      1  0.4039990000000  0.5791780000000  0.5234890000000 1.0
C      1  0.4998890000000  0.4036960000000  0.4563370000000 1.0
C      1  0.5100920000000  0.6061320000000  0.5407580000000 1.0
C      1  0.5861440000000  0.5265920000000  0.4572250000000 1.0
C      1  0.4426920000000  0.4150940000000  0.5185450000000 1.0
C      1  0.5576810000000  0.5975110000000  0.4680030000000 1.0
C      1  0.6001100000000  0.4892550000000  0.4922730000000 1.0
C      1  0.4118460000000  0.4523950000000  0.4922380000000 1.0
C      1  0.4141430000000  0.4626620000000  0.5591720000000 1.0
C      1  0.4583260000000  0.5516820000000  0.4593300000000 1.0
C      1  0.5158980000000  0.5214180000000  0.4085630000000 1.0
C      1  0.5083800000000  0.4999290000000  0.4457230000000 1.0
C      1  0.5073260000000  0.4632130000000  0.5706440000000 1.0
C      1  0.4434770000000  0.5089620000000  0.5720850000000 1.0
C      1  0.5178810000000  0.5247970000000  0.4419120000000 1.0
C      1  0.4912840000000  0.5541740000000  0.5960530000000 1.0
C      1  0.4348560000000  0.4280110000000  0.4457140000000 1.0
C      1  0.6087830000000  0.5070240000000  0.5150920000000 1.0
C      1  0.4235220000000  0.4256720000000  0.4962760000000 1.0
C      1  0.5737810000000  0.5757410000000  0.4683930000000 1.0
C      1  0.4155300000000  0.5215920000000  0.4482090000000 1.0
C      1  0.4914650000000  0.5495720000000  0.4950780000000 1.0
C      1  0.5220710000000  0.5028330000000  0.5966850000000 1.0
C      1  0.4660320000000  0.5602100000000  0.5828490000000 1.0
C      1  0.5129950000000  0.4100830000000  0.5630280000000 1.0
C      1  0.4927880000000  0.3970300000000  0.5454370000000 1.0
C      1  0.4161770000000  0.5509030000000  0.4524260000000 1.0
C      1  0.4890040000000  0.4514100000000  0.4699650000000 1.0
C      1  0.5467500000000  0.4804410000000  0.4667550000000 1.0
C      1  0.5573340000000  0.5514090000000  0.5503700000000 1.0
C      1  0.5023060000000  0.5902780000000  0.5665310000000 1.0
C      1  0.5571350000000  0.5472810000000  0.4925340000000 1.0
C      1  0.5377270000000  0.5661330000000  0.5049410000000 1.0
C      1  0.5076200000000  0.4542650000000  0.4125710000000 1.0
C      1  0.4308030000000  0.5205550000000  0.4234040000000 1.0
C      1  0.5712780000000  0.4775520000000  0.4155160000000 1.0
C      1  0.4926240000000  0.4533980000000  0.5944730000000 1.0
C      1  0.4871410000000  0.4934690000000  0.4634120000000 1.0
C      1  0.4679990000000  0.4400430000000  0.4875700000000 1.0
C      1  0.5748880000000  0.4407490000000  0.4802320000000 1.0
C      1  0.4519290000000  0.4570830000000  0.5043850000000 1.0
C      1  0.4652050000000  0.5909320000000  0.4428010000000 1.0
C      1  0.5626410000000  0.4396570000000  0.4539480000000 1.0
C      1  0.5207670000000  0.4060090000000  0.4739200000000 1.0
C      1  0.4928740000000  0.4999760000000  0.6061480000000 1.0
C      1  0.4706600000000  0.4119340000000  0.5601960000000 1.0
C      1  0.4250360000000  0.4619140000000  0.5165080000000 1.0
C      1  0.4929680000000  0.4580090000000  0.5457460000000 1.0
C      1  0.5246140000000  0.4851940000000  0.5728170000000 1.0
C      1  0.4981240000000  0.5004940000000  0.4909520000000 1.0
C      1  0.5409190000000  0.4222160000000  0.5184060000000 1.0
C      1  0.5493480000000  0.5536330000000  0.4211590000000 1.0
C      1  0.4450390000000  0.5455100000000  0.4168190000000 1.0
C      1  0.4666660000000  0.5646980000000  0.5000190000000 1.0
C      1  0.5434450000000  0.5263460000000  0.4794280000000 1.0
C      1  0.5370430000000  0.4988420000000  0.4033750000000 1.0
C      1  0.4557510000000  0.4490040000000  0.4144950000000 1.0
C      1  0.4337180000000  0.4672780000000  0.4204080000000 1.0
C      1  0.4784600000000  0.4703480000000  0.4507170000000 1.0
C      1  0.4694520000000  0.4740810000000  0.5493040000000 1.0
C      1  0.5330310000000  0.4293410000000  0.4526550000000 1.0
C      1  0.5236010000000  0.5505740000000  0.4098510000000 1.0
C      1  0.5067580000000  0.4626460000000  0.5206740000000 1.0
C      1  0.5932680000000  0.5018000000000  0.4682170000000 1.0
C      1  0.5399170000000  0.4561780000000  0.6142660000000 1.0
C      1  0.4097480000000  0.5530100000000  0.5062370000000 1.0
C      1  0.4754940000000  0.5787310000000  0.5614960000000 1.0
C      1  0.5185940000000  0.4480210000000  0.4707630000000 1.0
C      1  0.5427830000000  0.5272970000000  0.4507850000000 1.0
C      1  0.5046900000000  0.5493140000000  0.4631150000000 1.0
C      1  0.4372960000000  0.5412360000000  0.5097160000000 1.0
C      1  0.5307310000000  0.4723390000000  0.4155740000000 1.0
C      1  0.5584730000000  0.4501030000000  0.5890090000000 1.0
C      1  0.5515360000000  0.5730930000000  0.5308910000000 1.0
C      1  0.5334320000000  0.5920350000000  0.5400720000000 1.0
C      1  0.4809030000000  0.5262380000000  0.6020470000000 1.0
C      1  0.5636490000000  0.5046530000000  0.4118670000000 1.0
C      1  0.4182390000000  0.4806110000000  0.5380090000000 1.0
C      1  0.4574930000000  0.5309570000000  0.5845610000000 1.0
C      1  0.5501270000000  0.4665830000000  0.5391850000000 1.0
C      1  0.4283440000000  0.5069280000000  0.5474850000000 1.0
C      1  0.5939560000000  0.4611880000000  0.4943250000000 1.0
C      1  0.5267680000000  0.5117720000000  0.4954980000000 1.0
C      1  0.4768670000000  0.4770910000000  0.5986650000000 1.0
C      1  0.5282480000000  0.5882680000000  0.4815550000000 1.0
C      1  0.5370640000000  0.4627580000000  0.4866880000000 1.0
C      1  0.5026830000000  0.4880850000000  0.5155990000000 1.0
C      1  0.4700770000000  0.4950070000000  0.4065680000000 1.0
C      1  0.4738470000000  0.5206300000000  0.5285670000000 1.0
C      1  0.5954760000000  0.5237430000000  0.5297630000000 1.0
C      1  0.5882520000000  0.4481080000000  0.5196780000000 1.0
C      1  0.5285680000000  0.4793150000000  0.4445130000000 1.0
C      1  0.4421530000000  0.4950030000000  0.4140790000000 1.0
C      1  0.5021410000000  0.5301910000000  0.5353970000000 1.0
C      1  0.4323320000000  0.5837630000000  0.5264180000000 1.0
C      1  0.4569560000000  0.5736410000000  0.4778950000000 1.0
C      1  0.4270900000000  0.4376590000000  0.5625860000000 1.0
C      1  0.4932680000000  0.5861490000000  0.4375800000000 1.0
C      1  0.5407090000000  0.4942160000000  0.5493850000000 1.0
C      1  0.5335980000000  0.4557120000000  0.5152540000000 1.0
END
