TITL C-883730-8503-250 126.847530896745 125000 -27548.0578704579 0 0 186 (C1) n - 1
REM
REM in /home/nfs/bkarasulu/CARBON/AIRSS/Generating-Clusters/ReaxFF-fromJPCA2015/Units_Real/with-SteepDescent/Only-C1/SD-CG/Try1-3A/FIRE-CG
REM
REM
REM
REM
REM
REM ./C.cell (11c1c37f851c82e70ff6c80c92926a4b)
REM
REM compiler GCC version 9.2.1 20190827 (Red Hat 9.2.1-1)
REM options -cpp -mtune=generic -march=x86-64 -g -O0 -fpre-include=/usr/include/finclude/math-vector-fortran.h
REM seed -664597350 -517438436 -626474543 -234642096 -304339892 -1877369183 -78766144 -913368437 -969175843 -777612868 -2124075186 -1474375222 -1456245390 1899391709 345356922 -411335785 1669728453 -1805776209 1839055083 -2065057709 -1303447499 1083810317 751565034 506595973 233181454 -1321702369 -1885555245 -92472916 -1862039195 42045106 -1685657497 545163952 -1743276990
REM
CELL 1.54180   50.00000   50.00000   50.00000   90.00000   90.00000   90.00000
LATT -1
SFAC C  
C      1  0.5346530000000  0.5495280000000  0.4002040000000 1.0
C      1  0.4364290000000  0.5346230000000  0.4063090000000 1.0
C      1  0.5198490000000  0.4107610000000  0.5528070000000 1.0
C      1  0.4517510000000  0.4751420000000  0.5010660000000 1.0
C      1  0.4712650000000  0.4201350000000  0.5397940000000 1.0
C      1  0.4304170000000  0.5095200000000  0.5801200000000 1.0
C      1  0.5590400000000  0.4588500000000  0.4272610000000 1.0
C      1  0.5960200000000  0.4514120000000  0.5267240000000 1.0
C      1  0.4779250000000  0.4561520000000  0.5394420000000 1.0
C      1  0.6025530000000  0.5297020000000  0.5427910000000 1.0
C      1  0.5583010000000  0.5608290000000  0.5080550000000 1.0
C      1  0.5382440000000  0.4454800000000  0.4927760000000 1.0
C      1  0.5115940000000  0.4667320000000  0.4442490000000 1.0
C      1  0.5344030000000  0.4819850000000  0.4510460000000 1.0
C      1  0.4370910000000  0.5814420000000  0.5527820000000 1.0
C      1  0.5841210000000  0.4527670000000  0.5765380000000 1.0
C      1  0.5885830000000  0.4280320000000  0.5034150000000 1.0
C      1  0.4854200000000  0.5471450000000  0.5028260000000 1.0
C      1  0.5151380000000  0.5037450000000  0.3891760000000 1.0
C      1  0.5467560000000  0.4523630000000  0.5179400000000 1.0
C      1  0.4832450000000  0.5121410000000  0.4349610000000 1.0
C      1  0.4901400000000  0.5034150000000  0.4765320000000 1.0
C      1  0.4089200000000  0.4979320000000  0.5622150000000 1.0
C      1  0.4933800000000  0.4084180000000  0.4449490000000 1.0
C      1  0.4458350000000  0.4864400000000  0.5941100000000 1.0
C      1  0.5588190000000  0.5207010000000  0.5955150000000 1.0
C      1  0.4734760000000  0.4746210000000  0.5174400000000 1.0
C      1  0.5472450000000  0.4140790000000  0.5627370000000 1.0
C      1  0.3993610000000  0.4470350000000  0.5097020000000 1.0
C      1  0.5566790000000  0.4522650000000  0.4731540000000 1.0
C      1  0.5136540000000  0.5925250000000  0.5251030000000 1.0
C      1  0.4915620000000  0.5519900000000  0.5315140000000 1.0
C      1  0.3793170000000  0.4903730000000  0.4955990000000 1.0
C      1  0.5135920000000  0.5988130000000  0.4696000000000 1.0
C      1  0.4270240000000  0.5400390000000  0.5845560000000 1.0
C      1  0.5703530000000  0.4167360000000  0.5453150000000 1.0
C      1  0.4015840000000  0.5054970000000  0.4486330000000 1.0
C      1  0.4859940000000  0.4425560000000  0.4018610000000 1.0
C      1  0.4210830000000  0.4650110000000  0.4338000000000 1.0
C      1  0.5109130000000  0.4298770000000  0.5753540000000 1.0
C      1  0.5869110000000  0.5608560000000  0.4681360000000 1.0
C      1  0.5374800000000  0.4349610000000  0.5833140000000 1.0
C      1  0.4667410000000  0.5987670000000  0.4782690000000 1.0
C      1  0.4864420000000  0.5100800000000  0.3900500000000 1.0
C      1  0.5767380000000  0.4684160000000  0.4857560000000 1.0
C      1  0.4131170000000  0.4459170000000  0.4838420000000 1.0
C      1  0.5923510000000  0.4335320000000  0.4753950000000 1.0
C      1  0.4460090000000  0.5032710000000  0.4950140000000 1.0
C      1  0.5834790000000  0.5476590000000  0.4978960000000 1.0
C      1  0.5167120000000  0.4799600000000  0.4053040000000 1.0
C      1  0.5155670000000  0.5500500000000  0.4576570000000 1.0
C      1  0.5887020000000  0.5436970000000  0.4446940000000 1.0
C      1  0.4061580000000  0.5543900000000  0.4942130000000 1.0
C      1  0.5665430000000  0.5280470000000  0.4565430000000 1.0
C      1  0.4974600000000  0.4346560000000  0.5082020000000 1.0
C      1  0.5362030000000  0.5856510000000  0.5467930000000 1.0
C      1  0.4863120000000  0.5400980000000  0.3902970000000 1.0
C      1  0.5790780000000  0.4999660000000  0.5930610000000 1.0
C      1  0.5486440000000  0.4122120000000  0.4547430000000 1.0
C      1  0.5281580000000  0.5305290000000  0.5027870000000 1.0
C      1  0.6087770000000  0.5006240000000  0.5444190000000 1.0
C      1  0.4608810000000  0.5431310000000  0.3988550000000 1.0
C      1  0.4413130000000  0.4501110000000  0.4887090000000 1.0
C      1  0.5183500000000  0.4114950000000  0.4621460000000 1.0
C      1  0.6130710000000  0.4767770000000  0.5268270000000 1.0
C      1  0.5122530000000  0.4929620000000  0.6133650000000 1.0
C      1  0.5411320000000  0.5437590000000  0.5249540000000 1.0
C      1  0.4635090000000  0.4917150000000  0.3991340000000 1.0
C      1  0.4693190000000  0.6060950000000  0.5078860000000 1.0
C      1  0.6002980000000  0.5517510000000  0.5232480000000 1.0
C      1  0.4518080000000  0.5761480000000  0.4371520000000 1.0
C      1  0.5496900000000  0.5822170000000  0.4908540000000 1.0
C      1  0.5171880000000  0.4031350000000  0.5242300000000 1.0
C      1  0.4459950000000  0.5248300000000  0.4647530000000 1.0
C      1  0.3736680000000  0.4626100000000  0.5085800000000 1.0
C      1  0.5215990000000  0.5034100000000  0.5079720000000 1.0
C      1  0.3930390000000  0.5292130000000  0.4896620000000 1.0
C      1  0.5754880000000  0.5388480000000  0.4182950000000 1.0
C      1  0.4685480000000  0.4111670000000  0.4595230000000 1.0
C      1  0.4286100000000  0.5630840000000  0.5102600000000 1.0
C      1  0.4818410000000  0.4984940000000  0.5644990000000 1.0
C      1  0.4576170000000  0.5162620000000  0.5619470000000 1.0
C      1  0.4418740000000  0.6019460000000  0.5107290000000 1.0
C      1  0.4333760000000  0.5547410000000  0.4284610000000 1.0
C      1  0.4673550000000  0.5464230000000  0.4656440000000 1.0
C      1  0.5148300000000  0.4366800000000  0.4046260000000 1.0
C      1  0.4889160000000  0.5377310000000  0.4478170000000 1.0
C      1  0.4237340000000  0.5403940000000  0.4523740000000 1.0
C      1  0.3937860000000  0.4856500000000  0.4674600000000 1.0
C      1  0.4812190000000  0.4769160000000  0.4722100000000 1.0
C      1  0.5400570000000  0.3971060000000  0.4779580000000 1.0
C      1  0.5412840000000  0.4017180000000  0.5074350000000 1.0
C      1  0.4601120000000  0.4397000000000  0.5844850000000 1.0
C      1  0.3992400000000  0.5312320000000  0.4614730000000 1.0
C      1  0.4552740000000  0.5739650000000  0.4660340000000 1.0
C      1  0.5271530000000  0.5091550000000  0.4425070000000 1.0
C      1  0.5362250000000  0.4568000000000  0.4099070000000 1.0
C      1  0.5392600000000  0.4841040000000  0.5670930000000 1.0
C      1  0.4577450000000  0.5051260000000  0.4457920000000 1.0
C      1  0.5393150000000  0.5340650000000  0.4487560000000 1.0
C      1  0.4538190000000  0.5235610000000  0.5349020000000 1.0
C      1  0.5459440000000  0.4635690000000  0.5878270000000 1.0
C      1  0.5036110000000  0.4508430000000  0.5305140000000 1.0
C      1  0.5649990000000  0.5794280000000  0.4646090000000 1.0
C      1  0.5076040000000  0.5595780000000  0.4016040000000 1.0
C      1  0.4954660000000  0.4191120000000  0.4178820000000 1.0
C      1  0.5646700000000  0.4951540000000  0.5545880000000 1.0
C      1  0.5670230000000  0.4871580000000  0.4276420000000 1.0
C      1  0.5515260000000  0.5790440000000  0.4388430000000 1.0
C      1  0.5714620000000  0.4665870000000  0.5159670000000 1.0
C      1  0.3842970000000  0.5005750000000  0.5211000000000 1.0
C      1  0.4261550000000  0.4604720000000  0.5530770000000 1.0
C      1  0.6056370000000  0.4586710000000  0.4791800000000 1.0
C      1  0.4975840000000  0.4856560000000  0.4263590000000 1.0
C      1  0.4614160000000  0.4157470000000  0.5680480000000 1.0
C      1  0.4409300000000  0.4187940000000  0.4985710000000 1.0
C      1  0.5359110000000  0.4936630000000  0.5268500000000 1.0
C      1  0.5886790000000  0.5698270000000  0.5437440000000 1.0
C      1  0.5282220000000  0.4662060000000  0.5358100000000 1.0
C      1  0.5876800000000  0.5472280000000  0.5625560000000 1.0
C      1  0.5665040000000  0.4357780000000  0.4509410000000 1.0
C      1  0.6110910000000  0.5062750000000  0.4951540000000 1.0
C      1  0.4377680000000  0.5460250000000  0.5322570000000 1.0
C      1  0.4834440000000  0.4696470000000  0.5637270000000 1.0
C      1  0.4510280000000  0.5411370000000  0.5981220000000 1.0
C      1  0.4412670000000  0.4612050000000  0.5802150000000 1.0
C      1  0.4755670000000  0.5534430000000  0.5565490000000 1.0
C      1  0.5136790000000  0.5343160000000  0.5691720000000 1.0
C      1  0.4190600000000  0.4926540000000  0.4269690000000 1.0
C      1  0.4874340000000  0.6035530000000  0.4586210000000 1.0
C      1  0.4384590000000  0.5040920000000  0.4081960000000 1.0
C      1  0.4748070000000  0.5183130000000  0.4962930000000 1.0
C      1  0.5224920000000  0.5822230000000  0.4451710000000 1.0
C      1  0.4222790000000  0.4859970000000  0.5395220000000 1.0
C      1  0.3962330000000  0.5426040000000  0.5419200000000 1.0
C      1  0.4241420000000  0.5878350000000  0.5270430000000 1.0
C      1  0.4909420000000  0.5116350000000  0.5422070000000 1.0
C      1  0.5566270000000  0.5610150000000  0.4161890000000 1.0
C      1  0.4853430000000  0.5942960000000  0.5302920000000 1.0
C      1  0.5735300000000  0.4700430000000  0.5961250000000 1.0
C      1  0.3904550000000  0.5143940000000  0.5456650000000 1.0
C      1  0.5358110000000  0.4901080000000  0.4802100000000 1.0
C      1  0.5629660000000  0.5130500000000  0.4106560000000 1.0
C      1  0.4615510000000  0.4775240000000  0.4523710000000 1.0
C      1  0.4704470000000  0.4962750000000  0.6059080000000 1.0
C      1  0.5222300000000  0.5072330000000  0.5765930000000 1.0
C      1  0.4662520000000  0.5806530000000  0.5503440000000 1.0
C      1  0.5898790000000  0.4377040000000  0.5535910000000 1.0
C      1  0.5390730000000  0.5206490000000  0.3961940000000 1.0
C      1  0.4983810000000  0.4556320000000  0.4661450000000 1.0
C      1  0.4502560000000  0.4300180000000  0.4447890000000 1.0
C      1  0.5741110000000  0.5004200000000  0.4518380000000 1.0
C      1  0.4058410000000  0.4612430000000  0.4597860000000 1.0
C      1  0.5904370000000  0.4945580000000  0.5664990000000 1.0
C      1  0.5686900000000  0.4947290000000  0.4788830000000 1.0
C      1  0.4746270000000  0.5278150000000  0.6032070000000 1.0
C      1  0.5647150000000  0.4959670000000  0.5249840000000 1.0
C      1  0.4287510000000  0.4164090000000  0.5255000000000 1.0
C      1  0.4463760000000  0.4049100000000  0.5458170000000 1.0
C      1  0.5158870000000  0.5106870000000  0.4698150000000 1.0
C      1  0.3889140000000  0.5462330000000  0.5145860000000 1.0
C      1  0.4919450000000  0.4995670000000  0.5168350000000 1.0
C      1  0.5024740000000  0.5798050000000  0.4212500000000 1.0
C      1  0.4507760000000  0.4530420000000  0.4618740000000 1.0
C      1  0.5619960000000  0.5442280000000  0.5775700000000 1.0
C      1  0.4885810000000  0.5433860000000  0.5821900000000 1.0
C      1  0.4148140000000  0.4404240000000  0.5347010000000 1.0
C      1  0.6191890000000  0.4771810000000  0.4984090000000 1.0
C      1  0.4882220000000  0.4516390000000  0.5863310000000 1.0
C      1  0.5828600000000  0.5142880000000  0.4998470000000 1.0
C      1  0.5420660000000  0.5642290000000  0.5672170000000 1.0
C      1  0.5237950000000  0.5947520000000  0.4969690000000 1.0
C      1  0.4646870000000  0.4625280000000  0.4060950000000 1.0
C      1  0.5309070000000  0.5125630000000  0.6042780000000 1.0
C      1  0.4856270000000  0.4082960000000  0.5141020000000 1.0
C      1  0.5166210000000  0.5440900000000  0.5418730000000 1.0
C      1  0.4437670000000  0.4490420000000  0.4228190000000 1.0
C      1  0.5684450000000  0.4115030000000  0.5168300000000 1.0
C      1  0.5649210000000  0.5893760000000  0.5421390000000 1.0
C      1  0.4358700000000  0.5064920000000  0.5224360000000 1.0
C      1  0.4208550000000  0.5543770000000  0.5577370000000 1.0
C      1  0.4652440000000  0.4073430000000  0.4889980000000 1.0
C      1  0.4906480000000  0.4757930000000  0.6085330000000 1.0
C      1  0.5118170000000  0.4379360000000  0.4838940000000 1.0
C      1  0.4781300000000  0.5898250000000  0.4331390000000 1.0
C      1  0.5104790000000  0.5483130000000  0.4882270000000 1.0
END
