TITL C-883732-77-441 21.1153135404684 125000 -23711.7362852379 0 0 161 (C1) n - 1
REM
REM in /home/nfs/bkarasulu/CARBON/AIRSS/Generating-Clusters/ReaxFF-fromJPCA2015/Units_Real/with-SteepDescent/Only-C1/SD-CG/Try1-3A/FIRE-CG
REM
REM
REM
REM
REM
REM ./C.cell (11c1c37f851c82e70ff6c80c92926a4b)
REM
REM compiler GCC version 9.2.1 20190827 (Red Hat 9.2.1-1)
REM options -cpp -mtune=generic -march=x86-64 -g -O0 -fpre-include=/usr/include/finclude/math-vector-fortran.h
REM seed -1038272156 1017654448 106750004 -940142151 -542292404 1156823851 -2029942696 -1249154293 1977999123 1437116078 -1990625645 -42163785 -900178544 1376997953 -64108844 -1945436146 -1701970886 -463068385 -219334155 863061649 -1913001973 -1431199020 -807310062 -1083942331 611872951 1139410155 -141585201 -829625522 -98844170 2132339742 15330044 1746288411 -114564461
REM
CELL 1.54180   50.00000   50.00000   50.00000   90.00000   90.00000   90.00000
LATT -1
SFAC C  
C      1  0.5216610000000  0.4151000000000  0.4703400000000 1.0
C      1  0.5166270000000  0.4237540000000  0.4408240000000 1.0
C      1  0.4355440000000  0.4053890000000  0.4828410000000 1.0
C      1  0.5980310000000  0.4384920000000  0.5186590000000 1.0
C      1  0.5737620000000  0.5563720000000  0.5162830000000 1.0
C      1  0.5589050000000  0.4065580000000  0.5005020000000 1.0
C      1  0.5472230000000  0.3938730000000  0.5267160000000 1.0
C      1  0.5246080000000  0.4098780000000  0.5363320000000 1.0
C      1  0.4213150000000  0.4908640000000  0.4335220000000 1.0
C      1  0.5841110000000  0.5295710000000  0.5260310000000 1.0
C      1  0.6096210000000  0.4845610000000  0.5010570000000 1.0
C      1  0.6128400000000  0.4617000000000  0.5177260000000 1.0
C      1  0.4622890000000  0.4396100000000  0.5041900000000 1.0
C      1  0.5294830000000  0.5983300000000  0.4268140000000 1.0
C      1  0.5490560000000  0.5458320000000  0.5027660000000 1.0
C      1  0.5003700000000  0.5404940000000  0.4121640000000 1.0
C      1  0.4490810000000  0.5902230000000  0.4864210000000 1.0
C      1  0.4417650000000  0.4784810000000  0.4173770000000 1.0
C      1  0.4755330000000  0.5103860000000  0.6001570000000 1.0
C      1  0.5080170000000  0.5107970000000  0.4718120000000 1.0
C      1  0.4540570000000  0.4083980000000  0.5035560000000 1.0
C      1  0.4738130000000  0.5464670000000  0.4613690000000 1.0
C      1  0.5514960000000  0.4126300000000  0.4729610000000 1.0
C      1  0.5034640000000  0.5964080000000  0.4765140000000 1.0
C      1  0.4864600000000  0.4361060000000  0.5853190000000 1.0
C      1  0.5964110000000  0.5421060000000  0.4710530000000 1.0
C      1  0.4470830000000  0.4617810000000  0.5845800000000 1.0
C      1  0.4749560000000  0.3964510000000  0.4897600000000 1.0
C      1  0.4450120000000  0.5872340000000  0.5147830000000 1.0
C      1  0.5113790000000  0.5483780000000  0.6036270000000 1.0
C      1  0.3944800000000  0.4906390000000  0.5109450000000 1.0
C      1  0.5825640000000  0.4299530000000  0.5440650000000 1.0
C      1  0.4690390000000  0.5594400000000  0.5864250000000 1.0
C      1  0.5271390000000  0.4666090000000  0.4729350000000 1.0
C      1  0.4754370000000  0.4623040000000  0.5935510000000 1.0
C      1  0.4200550000000  0.4280680000000  0.4516900000000 1.0
C      1  0.5436560000000  0.4483800000000  0.5832840000000 1.0
C      1  0.4465720000000  0.5548380000000  0.5701040000000 1.0
C      1  0.5408920000000  0.4772120000000  0.5863420000000 1.0
C      1  0.5729710000000  0.5489350000000  0.4626790000000 1.0
C      1  0.4784880000000  0.5151370000000  0.4191350000000 1.0
C      1  0.5227490000000  0.5718310000000  0.4650480000000 1.0
C      1  0.5111470000000  0.6116620000000  0.5000030000000 1.0
C      1  0.4385470000000  0.4976550000000  0.5191630000000 1.0
C      1  0.5502000000000  0.4768490000000  0.4851360000000 1.0
C      1  0.4863600000000  0.5648680000000  0.4151640000000 1.0
C      1  0.4677400000000  0.4900000000000  0.4784090000000 1.0
C      1  0.4307840000000  0.4866340000000  0.5835890000000 1.0
C      1  0.4353620000000  0.5248930000000  0.4787260000000 1.0
C      1  0.4816540000000  0.4457030000000  0.4764500000000 1.0
C      1  0.5772370000000  0.5166520000000  0.4285390000000 1.0
C      1  0.5151000000000  0.4858610000000  0.5733540000000 1.0
C      1  0.5713930000000  0.4809340000000  0.5273260000000 1.0
C      1  0.4562820000000  0.5580600000000  0.4265730000000 1.0
C      1  0.4031840000000  0.4506890000000  0.4605980000000 1.0
C      1  0.4837660000000  0.4723310000000  0.4687590000000 1.0
C      1  0.5359690000000  0.5404500000000  0.5507580000000 1.0
C      1  0.5578980000000  0.4733530000000  0.4048960000000 1.0
C      1  0.5106560000000  0.5578250000000  0.5110970000000 1.0
C      1  0.4594140000000  0.4906390000000  0.5386930000000 1.0
C      1  0.4383320000000  0.5247120000000  0.5087350000000 1.0
C      1  0.4906720000000  0.5760940000000  0.5737930000000 1.0
C      1  0.4496730000000  0.5293510000000  0.4249420000000 1.0
C      1  0.4150190000000  0.5337800000000  0.4615010000000 1.0
C      1  0.5713370000000  0.5183790000000  0.5763060000000 1.0
C      1  0.5927090000000  0.4430130000000  0.4858290000000 1.0
C      1  0.5163420000000  0.5899950000000  0.5431460000000 1.0
C      1  0.5369490000000  0.5333540000000  0.6119380000000 1.0
C      1  0.3932550000000  0.4832280000000  0.4832990000000 1.0
C      1  0.4841810000000  0.4406670000000  0.5236050000000 1.0
C      1  0.4818970000000  0.6144390000000  0.5068710000000 1.0
C      1  0.5108550000000  0.4569440000000  0.5590400000000 1.0
C      1  0.3949860000000  0.5180860000000  0.5051080000000 1.0
C      1  0.4200700000000  0.5700930000000  0.5163970000000 1.0
C      1  0.4834000000000  0.5265010000000  0.4779180000000 1.0
C      1  0.5630550000000  0.5038750000000  0.4865570000000 1.0
C      1  0.5219480000000  0.5465200000000  0.4473150000000 1.0
C      1  0.4406530000000  0.4776950000000  0.4772150000000 1.0
C      1  0.4683420000000  0.4270790000000  0.5629140000000 1.0
C      1  0.4753550000000  0.6036310000000  0.4796730000000 1.0
C      1  0.5293030000000  0.5626600000000  0.4911130000000 1.0
C      1  0.4766490000000  0.5395070000000  0.5342460000000 1.0
C      1  0.4009060000000  0.4773130000000  0.4551430000000 1.0
C      1  0.4892930000000  0.4249540000000  0.4325040000000 1.0
C      1  0.4188060000000  0.5428190000000  0.5272160000000 1.0
C      1  0.5411550000000  0.5019070000000  0.4411060000000 1.0
C      1  0.4839910000000  0.4860620000000  0.5272580000000 1.0
C      1  0.5070540000000  0.4817730000000  0.5165310000000 1.0
C      1  0.4970430000000  0.4925680000000  0.4271440000000 1.0
C      1  0.4481110000000  0.5034460000000  0.4659850000000 1.0
C      1  0.4363640000000  0.4512740000000  0.5142680000000 1.0
C      1  0.4433200000000  0.5709060000000  0.4484980000000 1.0
C      1  0.5446660000000  0.5607160000000  0.5708090000000 1.0
C      1  0.5451770000000  0.5897120000000  0.4530190000000 1.0
C      1  0.4916500000000  0.4865530000000  0.5927570000000 1.0
C      1  0.5629290000000  0.4804540000000  0.4443760000000 1.0
C      1  0.5276310000000  0.5211360000000  0.4576900000000 1.0
C      1  0.5248510000000  0.5047510000000  0.5241510000000 1.0
C      1  0.5627090000000  0.5713370000000  0.5424380000000 1.0
C      1  0.4268590000000  0.5790980000000  0.4699210000000 1.0
C      1  0.5286300000000  0.5420450000000  0.4194100000000 1.0
C      1  0.5590510000000  0.4508150000000  0.4459380000000 1.0
C      1  0.4726250000000  0.4342500000000  0.4083760000000 1.0
C      1  0.5166510000000  0.5133360000000  0.5514280000000 1.0
C      1  0.4135480000000  0.4842550000000  0.5612140000000 1.0
C      1  0.5233200000000  0.5615630000000  0.5358370000000 1.0
C      1  0.5702600000000  0.4338960000000  0.4667590000000 1.0
C      1  0.4485150000000  0.4489420000000  0.4180380000000 1.0
C      1  0.4875520000000  0.5923110000000  0.5496760000000 1.0
C      1  0.5775470000000  0.4881310000000  0.4195210000000 1.0
C      1  0.4830980000000  0.4816030000000  0.3875890000000 1.0
C      1  0.4088800000000  0.5648560000000  0.4896940000000 1.0
C      1  0.4783180000000  0.4540210000000  0.3898960000000 1.0
C      1  0.5848120000000  0.5664380000000  0.4831600000000 1.0
C      1  0.5158440000000  0.4377670000000  0.5803980000000 1.0
C      1  0.5698980000000  0.4737060000000  0.5537370000000 1.0
C      1  0.3964650000000  0.5385570000000  0.4844160000000 1.0
C      1  0.5066030000000  0.5827470000000  0.4204170000000 1.0
C      1  0.6027200000000  0.4673030000000  0.4801160000000 1.0
C      1  0.5303230000000  0.6063470000000  0.5226850000000 1.0
C      1  0.5586610000000  0.4473380000000  0.5565750000000 1.0
C      1  0.4887680000000  0.5239630000000  0.5537830000000 1.0
C      1  0.4613770000000  0.4955780000000  0.4028590000000 1.0
C      1  0.5494030000000  0.5205900000000  0.4204380000000 1.0
C      1  0.5652830000000  0.4898810000000  0.5765810000000 1.0
C      1  0.4782640000000  0.4159700000000  0.5372030000000 1.0
C      1  0.5274360000000  0.4403890000000  0.5405310000000 1.0
C      1  0.4509600000000  0.5080870000000  0.5840410000000 1.0
C      1  0.5563470000000  0.5396670000000  0.5907360000000 1.0
C      1  0.4296340000000  0.5502370000000  0.5516580000000 1.0
C      1  0.5131170000000  0.4432970000000  0.4836510000000 1.0
C      1  0.4836990000000  0.5386660000000  0.6012570000000 1.0
C      1  0.4705590000000  0.4293160000000  0.4537390000000 1.0
C      1  0.5330360000000  0.4601550000000  0.4055820000000 1.0
C      1  0.4440020000000  0.4432830000000  0.5626730000000 1.0
C      1  0.5592550000000  0.4616240000000  0.5090270000000 1.0
C      1  0.4659290000000  0.5082540000000  0.5608970000000 1.0
C      1  0.5008570000000  0.4014310000000  0.5220260000000 1.0
C      1  0.4244630000000  0.5192890000000  0.4356530000000 1.0
C      1  0.5565270000000  0.4330680000000  0.5118600000000 1.0
C      1  0.4823400000000  0.5558120000000  0.5134860000000 1.0
C      1  0.5172460000000  0.5677100000000  0.5830750000000 1.0
C      1  0.5692510000000  0.5311640000000  0.5502090000000 1.0
C      1  0.4117980000000  0.4140050000000  0.4746390000000 1.0
C      1  0.4313390000000  0.4759940000000  0.5038270000000 1.0
C      1  0.5849600000000  0.5024620000000  0.5113640000000 1.0
C      1  0.5540730000000  0.5914450000000  0.5259220000000 1.0
C      1  0.4463050000000  0.4351610000000  0.4416430000000 1.0
C      1  0.5683860000000  0.4056760000000  0.5412550000000 1.0
C      1  0.4681430000000  0.5995430000000  0.5285450000000 1.0
C      1  0.5022760000000  0.3986710000000  0.4919310000000 1.0
C      1  0.5429950000000  0.5174240000000  0.5042890000000 1.0
C      1  0.5795960000000  0.5207640000000  0.4601840000000 1.0
C      1  0.4053200000000  0.4740530000000  0.5381120000000 1.0
C      1  0.5059110000000  0.4843800000000  0.4590890000000 1.0
C      1  0.4682020000000  0.5310600000000  0.5093920000000 1.0
C      1  0.4244710000000  0.4509230000000  0.5402320000000 1.0
C      1  0.5085480000000  0.4793690000000  0.4050530000000 1.0
C      1  0.5706950000000  0.5893420000000  0.4658240000000 1.0
C      1  0.5112260000000  0.4494610000000  0.5161730000000 1.0
C      1  0.5364840000000  0.4416010000000  0.4289140000000 1.0
END
