TITL C-883738-3659-406 0.939629800992389 125000 -3633.21091728934 0 0 26 (C1) n - 1
REM
REM in /home/nfs/bkarasulu/CARBON/AIRSS/Generating-Clusters/ReaxFF-fromJPCA2015/Units_Real/with-SteepDescent/Only-C1/SD-CG/Try1-3A/FIRE-CG
REM
REM
REM
REM
REM
REM ./C.cell (11c1c37f851c82e70ff6c80c92926a4b)
REM
REM compiler GCC version 9.2.1 20190827 (Red Hat 9.2.1-1)
REM options -cpp -mtune=generic -march=x86-64 -g -O0 -fpre-include=/usr/include/finclude/math-vector-fortran.h
REM seed -996549359 -111110817 -301153680 1911514190 1756623140 1544862610 1913322852 -1006123092 299525680 -2121765466 -1618418267 1797321018 539245966 1205488811 217923462 2039560876 260206775 -1187262477 865953539 -799789925 1007708683 -124222594 233575172 -1602468806 1848470873 906468085 1314282053 330813169 1801935339 -1688369557 -1610451206 762074110 -1363494414
REM
CELL 1.54180   50.00000   50.00000   50.00000   90.00000   90.00000   90.00000
LATT -1
SFAC C  
C      1  0.5447090000000  0.5234930000000  0.4635290000000 1.0
C      1  0.4815050000000  0.5474520000000  0.4904660000000 1.0
C      1  0.5097630000000  0.5224530000000  0.5560850000000 1.0
C      1  0.4974680000000  0.5047840000000  0.4652890000000 1.0
C      1  0.4888480000000  0.4887510000000  0.5113500000000 1.0
C      1  0.5400680000000  0.4762110000000  0.4575480000000 1.0
C      1  0.4713570000000  0.4558390000000  0.5509590000000 1.0
C      1  0.4670860000000  0.5077070000000  0.5207100000000 1.0
C      1  0.4871360000000  0.5317370000000  0.4665370000000 1.0
C      1  0.5036580000000  0.4764380000000  0.5327240000000 1.0
C      1  0.5254770000000  0.5016220000000  0.4595740000000 1.0
C      1  0.5694870000000  0.4824620000000  0.4612410000000 1.0
C      1  0.5337470000000  0.5499710000000  0.4717620000000 1.0
C      1  0.4989050000000  0.5435800000000  0.5375510000000 1.0
C      1  0.4855440000000  0.4818980000000  0.4819430000000 1.0
C      1  0.4962860000000  0.4958760000000  0.5539900000000 1.0
C      1  0.5728850000000  0.5119280000000  0.4644660000000 1.0
C      1  0.4544550000000  0.4732870000000  0.5573420000000 1.0
C      1  0.5044710000000  0.5552680000000  0.4726320000000 1.0
C      1  0.4429920000000  0.4983170000000  0.5002520000000 1.0
C      1  0.4667610000000  0.4974850000000  0.5510600000000 1.0
C      1  0.4791670000000  0.5361090000000  0.5168380000000 1.0
C      1  0.4523110000000  0.4815080000000  0.4803250000000 1.0
C      1  0.5245900000000  0.4512580000000  0.4636150000000 1.0
C      1  0.5049770000000  0.4581380000000  0.4720990000000 1.0
C      1  0.4963470000000  0.4464260000000  0.5401140000000 1.0
END
