TITL C-883729-9652-376 51.7196464201714 125000 -26894.8561642999 0 0 179 (C1) n - 1
REM
REM in /home/nfs/bkarasulu/CARBON/AIRSS/Generating-Clusters/ReaxFF-fromJPCA2015/Units_Real/with-SteepDescent/Only-C1/SD-CG/Try1-3A/FIRE-CG
REM
REM
REM
REM
REM
REM ./C.cell (11c1c37f851c82e70ff6c80c92926a4b)
REM
REM compiler GCC version 9.2.1 20190827 (Red Hat 9.2.1-1)
REM options -cpp -mtune=generic -march=x86-64 -g -O0 -fpre-include=/usr/include/finclude/math-vector-fortran.h
REM seed -693546273 -607993155 626487925 1906799810 41551870 1539488018 1022640622 -199970079 1907899760 -663169098 1375463935 1552147968 -234065203 -259569956 177438121 -1927579510 512062609 1959453960 287749215 -1926717231 1686572266 -620157710 -2025374199 -948587383 1983310967 -1057165884 -365461057 -1093240606 -1979544938 -1891484567 1391808713 -1185332695 752889893
REM
CELL 1.54180   50.00000   50.00000   50.00000   90.00000   90.00000   90.00000
LATT -1
SFAC C  
C      1  0.4682890000000  0.5160480000000  0.5365790000000 1.0
C      1  0.4008360000000  0.4887710000000  0.5089560000000 1.0
C      1  0.4410620000000  0.4467420000000  0.5976470000000 1.0
C      1  0.4852500000000  0.5100120000000  0.6141020000000 1.0
C      1  0.5016130000000  0.5761080000000  0.4239230000000 1.0
C      1  0.5063190000000  0.5245630000000  0.3897110000000 1.0
C      1  0.5684950000000  0.5656670000000  0.4685630000000 1.0
C      1  0.5546780000000  0.5193770000000  0.4889350000000 1.0
C      1  0.4575570000000  0.4365530000000  0.4063250000000 1.0
C      1  0.4561280000000  0.4894250000000  0.4099630000000 1.0
C      1  0.5965080000000  0.4646230000000  0.5370100000000 1.0
C      1  0.5125950000000  0.3999850000000  0.5556810000000 1.0
C      1  0.4686000000000  0.5902150000000  0.5285130000000 1.0
C      1  0.4940140000000  0.5979760000000  0.5404150000000 1.0
C      1  0.5873630000000  0.5129560000000  0.5569260000000 1.0
C      1  0.5691520000000  0.4758700000000  0.5849800000000 1.0
C      1  0.4646030000000  0.5319670000000  0.5115990000000 1.0
C      1  0.4546440000000  0.5100940000000  0.6010400000000 1.0
C      1  0.5613290000000  0.5028230000000  0.5946530000000 1.0
C      1  0.4120770000000  0.5238100000000  0.5764810000000 1.0
C      1  0.4779030000000  0.5042720000000  0.4758810000000 1.0
C      1  0.4861620000000  0.5311480000000  0.4718760000000 1.0
C      1  0.5411370000000  0.4119780000000  0.5140680000000 1.0
C      1  0.4211230000000  0.5149650000000  0.6019550000000 1.0
C      1  0.5021460000000  0.4796170000000  0.4465790000000 1.0
C      1  0.5606300000000  0.4934810000000  0.4756710000000 1.0
C      1  0.5702150000000  0.5309730000000  0.4328140000000 1.0
C      1  0.4464250000000  0.5746000000000  0.5360690000000 1.0
C      1  0.4970150000000  0.5675420000000  0.4985920000000 1.0
C      1  0.4361520000000  0.5442620000000  0.5758570000000 1.0
C      1  0.4494330000000  0.5639870000000  0.4164670000000 1.0
C      1  0.5914320000000  0.5156000000000  0.4466620000000 1.0
C      1  0.4551070000000  0.4827290000000  0.4391640000000 1.0
C      1  0.5137570000000  0.5294610000000  0.5210160000000 1.0
C      1  0.4433720000000  0.5711960000000  0.5650220000000 1.0
C      1  0.6110170000000  0.5382470000000  0.5202440000000 1.0
C      1  0.4585680000000  0.4169720000000  0.5586980000000 1.0
C      1  0.4979070000000  0.5799840000000  0.5640930000000 1.0
C      1  0.4644330000000  0.4460100000000  0.6143160000000 1.0
C      1  0.4733180000000  0.5778250000000  0.4280470000000 1.0
C      1  0.5500330000000  0.4772380000000  0.5450030000000 1.0
C      1  0.5097270000000  0.6096200000000  0.5180820000000 1.0
C      1  0.5522830000000  0.4215950000000  0.4418340000000 1.0
C      1  0.5286290000000  0.4708630000000  0.5656310000000 1.0
C      1  0.4102620000000  0.5376830000000  0.4411280000000 1.0
C      1  0.5221750000000  0.5469800000000  0.4663320000000 1.0
C      1  0.5036810000000  0.4499640000000  0.5313790000000 1.0
C      1  0.5155820000000  0.5075680000000  0.5420240000000 1.0
C      1  0.6092330000000  0.5136960000000  0.5358680000000 1.0
C      1  0.5857760000000  0.4484610000000  0.4798990000000 1.0
C      1  0.5463840000000  0.5861390000000  0.4735200000000 1.0
C      1  0.5515660000000  0.5191590000000  0.4125760000000 1.0
C      1  0.4139180000000  0.5517310000000  0.4945110000000 1.0
C      1  0.5599430000000  0.5480040000000  0.5885060000000 1.0
C      1  0.5719370000000  0.5730580000000  0.5276030000000 1.0
C      1  0.4007900000000  0.4989430000000  0.4813340000000 1.0
C      1  0.6054460000000  0.4942210000000  0.4320270000000 1.0
C      1  0.5067600000000  0.5006860000000  0.5967100000000 1.0
C      1  0.5027780000000  0.4933720000000  0.3884030000000 1.0
C      1  0.3842490000000  0.4500110000000  0.4574360000000 1.0
C      1  0.4887990000000  0.4117830000000  0.5668380000000 1.0
C      1  0.4546380000000  0.5394820000000  0.3998640000000 1.0
C      1  0.4909520000000  0.3982820000000  0.5150370000000 1.0
C      1  0.4812620000000  0.4315960000000  0.5215040000000 1.0
C      1  0.4673440000000  0.3787990000000  0.5255430000000 1.0
C      1  0.4623390000000  0.5718960000000  0.4558640000000 1.0
C      1  0.4032090000000  0.5376060000000  0.5185660000000 1.0
C      1  0.4895410000000  0.5404870000000  0.5005090000000 1.0
C      1  0.4836920000000  0.5260970000000  0.5612770000000 1.0
C      1  0.4304400000000  0.4429740000000  0.5201160000000 1.0
C      1  0.4460860000000  0.4822790000000  0.4981620000000 1.0
C      1  0.4915500000000  0.4898180000000  0.4971390000000 1.0
C      1  0.4607300000000  0.5305250000000  0.5804580000000 1.0
C      1  0.5384560000000  0.6109900000000  0.5150990000000 1.0
C      1  0.3932600000000  0.4822990000000  0.4594600000000 1.0
C      1  0.5219480000000  0.5665010000000  0.4835500000000 1.0
C      1  0.4421230000000  0.4412780000000  0.3876400000000 1.0
C      1  0.4317840000000  0.4350070000000  0.4916750000000 1.0
C      1  0.4436340000000  0.4593960000000  0.4511510000000 1.0
C      1  0.5073200000000  0.4543820000000  0.5579940000000 1.0
C      1  0.5721770000000  0.4719860000000  0.4933890000000 1.0
C      1  0.5435400000000  0.5038390000000  0.5400740000000 1.0
C      1  0.5427920000000  0.6127270000000  0.4856280000000 1.0
C      1  0.4698220000000  0.6070790000000  0.4876690000000 1.0
C      1  0.5595970000000  0.5735180000000  0.5768070000000 1.0
C      1  0.4153940000000  0.4676160000000  0.5251340000000 1.0
C      1  0.5105140000000  0.5510500000000  0.5643520000000 1.0
C      1  0.4978240000000  0.6151970000000  0.4911950000000 1.0
C      1  0.3934940000000  0.5108290000000  0.5277210000000 1.0
C      1  0.5635440000000  0.5581130000000  0.4417820000000 1.0
C      1  0.5250690000000  0.5512700000000  0.5389810000000 1.0
C      1  0.5725850000000  0.5440520000000  0.4875440000000 1.0
C      1  0.5120730000000  0.5266180000000  0.4533420000000 1.0
C      1  0.6002820000000  0.5647130000000  0.5294090000000 1.0
C      1  0.5183600000000  0.4874510000000  0.5010250000000 1.0
C      1  0.4755200000000  0.5848550000000  0.5028030000000 1.0
C      1  0.6003240000000  0.5129780000000  0.4759230000000 1.0
C      1  0.5666100000000  0.4460560000000  0.4352350000000 1.0
C      1  0.5287010000000  0.4776700000000  0.3901640000000 1.0
C      1  0.5248370000000  0.5643490000000  0.4127600000000 1.0
C      1  0.4120710000000  0.5287920000000  0.4713510000000 1.0
C      1  0.4743250000000  0.4187420000000  0.4453740000000 1.0
C      1  0.5581320000000  0.5990720000000  0.5629200000000 1.0
C      1  0.5913440000000  0.4473460000000  0.4509800000000 1.0
C      1  0.4423600000000  0.5043140000000  0.5331990000000 1.0
C      1  0.4983000000000  0.4324000000000  0.4362470000000 1.0
C      1  0.5559090000000  0.4732440000000  0.4302770000000 1.0
C      1  0.5300630000000  0.5359920000000  0.4033080000000 1.0
C      1  0.5279790000000  0.4112610000000  0.4556670000000 1.0
C      1  0.4722400000000  0.4708000000000  0.5033340000000 1.0
C      1  0.4414770000000  0.4106840000000  0.4778840000000 1.0
C      1  0.5472750000000  0.4888430000000  0.4521240000000 1.0
C      1  0.5311710000000  0.5131820000000  0.5023270000000 1.0
C      1  0.5186580000000  0.3982020000000  0.5268500000000 1.0
C      1  0.4811300000000  0.5333680000000  0.3945730000000 1.0
C      1  0.6008330000000  0.5371000000000  0.4919310000000 1.0
C      1  0.4031880000000  0.4312530000000  0.4551760000000 1.0
C      1  0.5496180000000  0.4899550000000  0.4075470000000 1.0
C      1  0.4616950000000  0.5431250000000  0.4612650000000 1.0
C      1  0.5972000000000  0.4901230000000  0.4947200000000 1.0
C      1  0.4973970000000  0.4368800000000  0.5779840000000 1.0
C      1  0.4151620000000  0.5156820000000  0.4220480000000 1.0
C      1  0.5421150000000  0.5774030000000  0.4323690000000 1.0
C      1  0.4412580000000  0.5260260000000  0.4701570000000 1.0
C      1  0.4777380000000  0.4900340000000  0.4516610000000 1.0
C      1  0.4615020000000  0.4817300000000  0.5926810000000 1.0
C      1  0.4161190000000  0.5762560000000  0.4546950000000 1.0
C      1  0.5081650000000  0.4519590000000  0.4546360000000 1.0
C      1  0.4373900000000  0.4611350000000  0.4788580000000 1.0
C      1  0.5136050000000  0.4539740000000  0.3946590000000 1.0
C      1  0.4831660000000  0.4694940000000  0.6094920000000 1.0
C      1  0.4821580000000  0.4446640000000  0.4965560000000 1.0
C      1  0.5309200000000  0.5421140000000  0.5865690000000 1.0
C      1  0.5383630000000  0.4070500000000  0.5711810000000 1.0
C      1  0.4229970000000  0.5624310000000  0.4308020000000 1.0
C      1  0.4401800000000  0.4355610000000  0.5725720000000 1.0
C      1  0.5529990000000  0.4310860000000  0.5645930000000 1.0
C      1  0.4244670000000  0.4831880000000  0.5491090000000 1.0
C      1  0.4475080000000  0.3911110000000  0.5409670000000 1.0
C      1  0.5812610000000  0.4796260000000  0.5581290000000 1.0
C      1  0.5506910000000  0.4613260000000  0.5198710000000 1.0
C      1  0.5771190000000  0.5237100000000  0.5838820000000 1.0
C      1  0.5636200000000  0.5233880000000  0.5395860000000 1.0
C      1  0.5590110000000  0.5993300000000  0.5322820000000 1.0
C      1  0.4704040000000  0.5791390000000  0.5695900000000 1.0
C      1  0.4405780000000  0.5136720000000  0.4061960000000 1.0
C      1  0.4894490000000  0.4460380000000  0.4079270000000 1.0
C      1  0.4418580000000  0.5523210000000  0.5164880000000 1.0
C      1  0.4262710000000  0.4159290000000  0.4537120000000 1.0
C      1  0.5848910000000  0.4274560000000  0.4996180000000 1.0
C      1  0.5615860000000  0.4093520000000  0.4934710000000 1.0
C      1  0.4285620000000  0.5310680000000  0.5305800000000 1.0
C      1  0.4935640000000  0.3996640000000  0.4858260000000 1.0
C      1  0.4814310000000  0.4788470000000  0.3999350000000 1.0
C      1  0.5186940000000  0.6156120000000  0.4701530000000 1.0
C      1  0.5575670000000  0.4338510000000  0.5329590000000 1.0
C      1  0.6112880000000  0.4656430000000  0.4382990000000 1.0
C      1  0.5091100000000  0.4428190000000  0.4835950000000 1.0
C      1  0.5540600000000  0.5501620000000  0.5359660000000 1.0
C      1  0.5220370000000  0.4993630000000  0.4485750000000 1.0
C      1  0.4492750000000  0.5916500000000  0.4736010000000 1.0
C      1  0.4482670000000  0.4322700000000  0.4365640000000 1.0
C      1  0.4041310000000  0.5044220000000  0.5543550000000 1.0
C      1  0.4908570000000  0.4436500000000  0.6042140000000 1.0
C      1  0.4697120000000  0.4050970000000  0.4703610000000 1.0
C      1  0.5169570000000  0.4149480000000  0.4820040000000 1.0
C      1  0.5337770000000  0.5157720000000  0.5971110000000 1.0
C      1  0.5231260000000  0.4609390000000  0.5113550000000 1.0
C      1  0.5012840000000  0.5015730000000  0.5657420000000 1.0
C      1  0.4526820000000  0.5101300000000  0.4902600000000 1.0
C      1  0.5486800000000  0.4558600000000  0.5807590000000 1.0
C      1  0.5274730000000  0.5952040000000  0.4507370000000 1.0
C      1  0.4224730000000  0.5787400000000  0.4818980000000 1.0
C      1  0.4544250000000  0.4318080000000  0.5338910000000 1.0
C      1  0.4031640000000  0.4961570000000  0.4388050000000 1.0
C      1  0.5866750000000  0.4391190000000  0.5266500000000 1.0
C      1  0.6074800000000  0.4879730000000  0.5219600000000 1.0
C      1  0.5548400000000  0.4042280000000  0.4651690000000 1.0
C      1  0.4418180000000  0.4657030000000  0.5760010000000 1.0
END
