TITL C-883732-77-209 -0.169729306214104 125000 -10750.9557886172 0 0 72 (C1) n - 1
REM
REM in /home/nfs/bkarasulu/CARBON/AIRSS/Generating-Clusters/ReaxFF-fromJPCA2015/Units_Real/with-SteepDescent/Only-C1/SD-CG/Try1-3A/FIRE-CG
REM
REM
REM
REM
REM
REM ./C.cell (11c1c37f851c82e70ff6c80c92926a4b)
REM
REM compiler GCC version 9.2.1 20190827 (Red Hat 9.2.1-1)
REM options -cpp -mtune=generic -march=x86-64 -g -O0 -fpre-include=/usr/include/finclude/math-vector-fortran.h
REM seed -513224616 1717015621 1976752351 -2078620298 -618101273 58092663 -335742063 210688102 -122650148 1188270663 1049860831 89789562 -584652450 1525753895 944420864 -342288434 -298316632 -1724195526 1574116208 -861866934 -1641269999 961381300 831962769 -1341913535 -241303847 -1570804977 -1708867425 1791568880 -1751232569 -843692672 -1747004959 -1543537908 -1621001403
REM
CELL 1.54180   50.00000   50.00000   50.00000   90.00000   90.00000   90.00000
LATT -1
SFAC C  
C      1  0.5070640000000  0.5199280000000  0.5716730000000 1.0
C      1  0.5743200000000  0.5429600000000  0.4908900000000 1.0
C      1  0.4745810000000  0.5215270000000  0.4769420000000 1.0
C      1  0.5851800000000  0.5064480000000  0.5430290000000 1.0
C      1  0.5036460000000  0.4273750000000  0.5502530000000 1.0
C      1  0.5228310000000  0.4471020000000  0.5585610000000 1.0
C      1  0.5645930000000  0.4857430000000  0.5535260000000 1.0
C      1  0.5435110000000  0.5572950000000  0.5272070000000 1.0
C      1  0.5334740000000  0.4430320000000  0.4903220000000 1.0
C      1  0.4425700000000  0.5096870000000  0.4355020000000 1.0
C      1  0.4574930000000  0.5169540000000  0.5604810000000 1.0
C      1  0.4458460000000  0.4627370000000  0.4441580000000 1.0
C      1  0.5206650000000  0.4204610000000  0.5277160000000 1.0
C      1  0.4416610000000  0.4833170000000  0.5263520000000 1.0
C      1  0.4860790000000  0.5579450000000  0.5619400000000 1.0
C      1  0.5596270000000  0.5057450000000  0.4674640000000 1.0
C      1  0.5382740000000  0.4928100000000  0.5655100000000 1.0
C      1  0.5403880000000  0.4401710000000  0.5366500000000 1.0
C      1  0.5148630000000  0.4231120000000  0.5000430000000 1.0
C      1  0.4793020000000  0.5508590000000  0.4827140000000 1.0
C      1  0.5336180000000  0.5495640000000  0.4342350000000 1.0
C      1  0.5762440000000  0.5441640000000  0.4629850000000 1.0
C      1  0.4667290000000  0.4167660000000  0.5024750000000 1.0
C      1  0.5511950000000  0.5599680000000  0.5007720000000 1.0
C      1  0.4516850000000  0.5532170000000  0.4989060000000 1.0
C      1  0.5448710000000  0.4992580000000  0.4447650000000 1.0
C      1  0.4738050000000  0.4772790000000  0.4926340000000 1.0
C      1  0.4236070000000  0.4915030000000  0.4824620000000 1.0
C      1  0.4866940000000  0.4881190000000  0.4272920000000 1.0
C      1  0.4768520000000  0.4401780000000  0.5471790000000 1.0
C      1  0.5805590000000  0.4948230000000  0.5157320000000 1.0
C      1  0.4267740000000  0.5053100000000  0.4584610000000 1.0
C      1  0.5160040000000  0.4748410000000  0.5561900000000 1.0
C      1  0.4617320000000  0.4366920000000  0.5223910000000 1.0
C      1  0.4751800000000  0.4674030000000  0.5597510000000 1.0
C      1  0.4938540000000  0.4787520000000  0.4714850000000 1.0
C      1  0.4554310000000  0.4625060000000  0.5108690000000 1.0
C      1  0.5002960000000  0.5075240000000  0.4683980000000 1.0
C      1  0.5382850000000  0.5507040000000  0.5536680000000 1.0
C      1  0.5311790000000  0.4714370000000  0.4441850000000 1.0
C      1  0.4999560000000  0.5150090000000  0.4335960000000 1.0
C      1  0.4388790000000  0.5319030000000  0.5151440000000 1.0
C      1  0.4899750000000  0.4151260000000  0.4879610000000 1.0
C      1  0.5740130000000  0.5129480000000  0.4899020000000 1.0
C      1  0.4760920000000  0.5046410000000  0.5024600000000 1.0
C      1  0.4583610000000  0.4846730000000  0.4293340000000 1.0
C      1  0.4596900000000  0.5633460000000  0.5474630000000 1.0
C      1  0.5065670000000  0.5474510000000  0.4959800000000 1.0
C      1  0.4316250000000  0.5039350000000  0.5089150000000 1.0
C      1  0.4539310000000  0.4492400000000  0.4669960000000 1.0
C      1  0.5176840000000  0.5644960000000  0.4553730000000 1.0
C      1  0.5149680000000  0.4801380000000  0.5276270000000 1.0
C      1  0.5649750000000  0.4723900000000  0.5269840000000 1.0
C      1  0.4812740000000  0.5396300000000  0.4349270000000 1.0
C      1  0.5262500000000  0.5643340000000  0.4835800000000 1.0
C      1  0.5294200000000  0.5207270000000  0.4310080000000 1.0
C      1  0.5379020000000  0.4629740000000  0.5158460000000 1.0
C      1  0.4892240000000  0.5597420000000  0.4538980000000 1.0
C      1  0.5124590000000  0.5603650000000  0.5533250000000 1.0
C      1  0.5338810000000  0.4557680000000  0.4662330000000 1.0
C      1  0.5593440000000  0.5465350000000  0.4432070000000 1.0
C      1  0.5011180000000  0.4692840000000  0.4443050000000 1.0
C      1  0.4651690000000  0.4242260000000  0.4752490000000 1.0
C      1  0.4559310000000  0.5697070000000  0.5205840000000 1.0
C      1  0.5138050000000  0.5192740000000  0.4934340000000 1.0
C      1  0.4307770000000  0.4653310000000  0.4686250000000 1.0
C      1  0.5329630000000  0.5214480000000  0.5681680000000 1.0
C      1  0.4554030000000  0.4891520000000  0.5523750000000 1.0
C      1  0.5026790000000  0.5035280000000  0.5157250000000 1.0
C      1  0.4452150000000  0.5375960000000  0.5439190000000 1.0
C      1  0.4814940000000  0.5296530000000  0.5726220000000 1.0
C      1  0.4584150000000  0.5302170000000  0.4494670000000 1.0
END
