TITL C-883734-4173-196 -29.8146348542046 125000 -23674.0046821586 0 0 159 (C1) n - 1
REM
REM in /home/nfs/bkarasulu/CARBON/AIRSS/Generating-Clusters/ReaxFF-fromJPCA2015/Units_Real/with-SteepDescent/Only-C1/SD-CG/Try1-3A/FIRE-CG
REM
REM
REM
REM
REM
REM ./C.cell (11c1c37f851c82e70ff6c80c92926a4b)
REM
REM compiler GCC version 9.2.1 20190827 (Red Hat 9.2.1-1)
REM options -cpp -mtune=generic -march=x86-64 -g -O0 -fpre-include=/usr/include/finclude/math-vector-fortran.h
REM seed -170264033 -1258158253 1329724300 34066002 -707126680 818765214 1154380449 -1849203185 -101247180 1761119908 -1497968116 -1607883856 748517958 805751816 94703874 -660573311 1611191937 -1833579571 -1491058781 911016770 -204031671 890644397 1169325781 1412566417 2146606164 502004050 1053794715 175422848 -1390439347 1823629579 -1390663397 1112228606 1655958745
REM
CELL 1.54180   50.00000   50.00000   50.00000   90.00000   90.00000   90.00000
LATT -1
SFAC C  
C      1  0.5089640000000  0.5301620000000  0.4058580000000 1.0
C      1  0.5166170000000  0.4900750000000  0.5018650000000 1.0
C      1  0.4441800000000  0.5537360000000  0.5396280000000 1.0
C      1  0.4933080000000  0.4931440000000  0.6137210000000 1.0
C      1  0.5330740000000  0.5645860000000  0.4777290000000 1.0
C      1  0.3983620000000  0.5152500000000  0.4869650000000 1.0
C      1  0.4682170000000  0.5427690000000  0.5247940000000 1.0
C      1  0.5097890000000  0.4702980000000  0.5682460000000 1.0
C      1  0.4326690000000  0.4606560000000  0.5728740000000 1.0
C      1  0.5617660000000  0.5575880000000  0.5644890000000 1.0
C      1  0.4561360000000  0.5710650000000  0.4897040000000 1.0
C      1  0.5972060000000  0.4932260000000  0.5378490000000 1.0
C      1  0.5170990000000  0.4116470000000  0.4514560000000 1.0
C      1  0.3971230000000  0.4645160000000  0.5051120000000 1.0
C      1  0.5228570000000  0.4281950000000  0.5945450000000 1.0
C      1  0.4825510000000  0.5554520000000  0.4332210000000 1.0
C      1  0.5225960000000  0.6134650000000  0.4672360000000 1.0
C      1  0.4848280000000  0.6004560000000  0.4673110000000 1.0
C      1  0.4972490000000  0.4123770000000  0.5531150000000 1.0
C      1  0.4239420000000  0.4567110000000  0.5219850000000 1.0
C      1  0.5660000000000  0.5171360000000  0.4282920000000 1.0
C      1  0.5027050000000  0.5123020000000  0.5124650000000 1.0
C      1  0.5047310000000  0.5995160000000  0.4479560000000 1.0
C      1  0.4747670000000  0.5408570000000  0.4565620000000 1.0
C      1  0.5631010000000  0.4449030000000  0.4512160000000 1.0
C      1  0.4844380000000  0.5844160000000  0.5485110000000 1.0
C      1  0.5935260000000  0.5278490000000  0.4861790000000 1.0
C      1  0.4492480000000  0.5452290000000  0.4722480000000 1.0
C      1  0.4933430000000  0.5257510000000  0.4720610000000 1.0
C      1  0.4922130000000  0.4496530000000  0.4097780000000 1.0
C      1  0.4285580000000  0.4112170000000  0.4949930000000 1.0
C      1  0.4618070000000  0.5341870000000  0.6124950000000 1.0
C      1  0.5392100000000  0.4032550000000  0.4999010000000 1.0
C      1  0.5154050000000  0.6078870000000  0.4942790000000 1.0
C      1  0.4870250000000  0.4582240000000  0.5814220000000 1.0
C      1  0.4940270000000  0.4584390000000  0.4759540000000 1.0
C      1  0.5697370000000  0.4918820000000  0.4381300000000 1.0
C      1  0.5880580000000  0.4542670000000  0.4944230000000 1.0
C      1  0.4581260000000  0.5319220000000  0.5820890000000 1.0
C      1  0.5065090000000  0.4882480000000  0.4346400000000 1.0
C      1  0.4731130000000  0.4349220000000  0.4265260000000 1.0
C      1  0.4401140000000  0.5947320000000  0.5266820000000 1.0
C      1  0.4740260000000  0.4960270000000  0.3992030000000 1.0
C      1  0.4468810000000  0.4184360000000  0.5421080000000 1.0
C      1  0.5392550000000  0.5665650000000  0.5783240000000 1.0
C      1  0.5153980000000  0.4611990000000  0.4232890000000 1.0
C      1  0.4185420000000  0.4699560000000  0.5492120000000 1.0
C      1  0.5339250000000  0.5310890000000  0.4520140000000 1.0
C      1  0.4199990000000  0.5317920000000  0.4403870000000 1.0
C      1  0.5597780000000  0.5027790000000  0.5795240000000 1.0
C      1  0.5254170000000  0.5502820000000  0.4072930000000 1.0
C      1  0.5123770000000  0.5662410000000  0.5860240000000 1.0
C      1  0.5411380000000  0.4641110000000  0.4087550000000 1.0
C      1  0.5161220000000  0.4980300000000  0.5776450000000 1.0
C      1  0.3964330000000  0.4906470000000  0.4963290000000 1.0
C      1  0.5420660000000  0.4228670000000  0.4425680000000 1.0
C      1  0.5469350000000  0.4439450000000  0.4777330000000 1.0
C      1  0.6142720000000  0.5013320000000  0.4869660000000 1.0
C      1  0.5712760000000  0.4775130000000  0.4895300000000 1.0
C      1  0.4505420000000  0.4630230000000  0.4701860000000 1.0
C      1  0.5211400000000  0.5341410000000  0.5107080000000 1.0
C      1  0.5601270000000  0.5260560000000  0.5593130000000 1.0
C      1  0.4692370000000  0.4960950000000  0.5476580000000 1.0
C      1  0.4869260000000  0.4159090000000  0.4439250000000 1.0
C      1  0.5065550000000  0.5731170000000  0.4337970000000 1.0
C      1  0.5753760000000  0.5760060000000  0.4958450000000 1.0
C      1  0.4546770000000  0.5834400000000  0.5469510000000 1.0
C      1  0.5735210000000  0.5334840000000  0.4629970000000 1.0
C      1  0.5583050000000  0.5880060000000  0.5189030000000 1.0
C      1  0.5078980000000  0.5480040000000  0.4886870000000 1.0
C      1  0.4913020000000  0.3988160000000  0.4876980000000 1.0
C      1  0.4754720000000  0.4109760000000  0.5355070000000 1.0
C      1  0.4992550000000  0.5394350000000  0.5862540000000 1.0
C      1  0.5978060000000  0.5578470000000  0.4956170000000 1.0
C      1  0.4630440000000  0.4848720000000  0.4556520000000 1.0
C      1  0.5207920000000  0.4819570000000  0.6148600000000 1.0
C      1  0.5531210000000  0.5680590000000  0.5387690000000 1.0
C      1  0.5596530000000  0.4230540000000  0.4941180000000 1.0
C      1  0.5063640000000  0.5904940000000  0.5679220000000 1.0
C      1  0.4421440000000  0.5176470000000  0.4821060000000 1.0
C      1  0.4455660000000  0.3975850000000  0.4747080000000 1.0
C      1  0.5390370000000  0.4878080000000  0.3912180000000 1.0
C      1  0.4203030000000  0.5551790000000  0.5183480000000 1.0
C      1  0.4826940000000  0.4207000000000  0.5072630000000 1.0
C      1  0.6076130000000  0.4795060000000  0.4668320000000 1.0
C      1  0.5611490000000  0.4943660000000  0.5102290000000 1.0
C      1  0.4421010000000  0.5279070000000  0.4227060000000 1.0
C      1  0.4887730000000  0.4732470000000  0.4517430000000 1.0
C      1  0.4893830000000  0.5231040000000  0.6100620000000 1.0
C      1  0.5494520000000  0.5211370000000  0.4753830000000 1.0
C      1  0.5303060000000  0.5298680000000  0.5501820000000 1.0
C      1  0.5851760000000  0.4676460000000  0.5496920000000 1.0
C      1  0.4116670000000  0.5233660000000  0.5624870000000 1.0
C      1  0.4458370000000  0.4351980000000  0.5661320000000 1.0
C      1  0.4824310000000  0.5595700000000  0.5071770000000 1.0
C      1  0.5808580000000  0.4916430000000  0.4659600000000 1.0
C      1  0.5615300000000  0.4788440000000  0.5626130000000 1.0
C      1  0.4686040000000  0.4516290000000  0.4904230000000 1.0
C      1  0.4540620000000  0.4696170000000  0.5120430000000 1.0
C      1  0.5282260000000  0.4727430000000  0.5225790000000 1.0
C      1  0.4584940000000  0.5026150000000  0.5726370000000 1.0
C      1  0.5281510000000  0.4153310000000  0.5245310000000 1.0
C      1  0.4711850000000  0.4479760000000  0.5587830000000 1.0
C      1  0.4305830000000  0.5788140000000  0.5051820000000 1.0
C      1  0.3970470000000  0.5195280000000  0.5373320000000 1.0
C      1  0.4955180000000  0.5093810000000  0.4140700000000 1.0
C      1  0.5351760000000  0.5929220000000  0.4797620000000 1.0
C      1  0.4451510000000  0.4461860000000  0.4292910000000 1.0
C      1  0.4867890000000  0.4711050000000  0.3893940000000 1.0
C      1  0.4688300000000  0.4693530000000  0.5378060000000 1.0
C      1  0.4356850000000  0.4751760000000  0.4262390000000 1.0
C      1  0.5187360000000  0.3989090000000  0.4791200000000 1.0
C      1  0.4596350000000  0.5887030000000  0.4653540000000 1.0
C      1  0.4300550000000  0.4270670000000  0.5195670000000 1.0
C      1  0.5554100000000  0.5126910000000  0.4029930000000 1.0
C      1  0.5613210000000  0.4654240000000  0.4297180000000 1.0
C      1  0.5810120000000  0.5177270000000  0.5365710000000 1.0
C      1  0.4548430000000  0.5003630000000  0.5032730000000 1.0
C      1  0.5154410000000  0.5084050000000  0.4571150000000 1.0
C      1  0.5214550000000  0.4567550000000  0.5454540000000 1.0
C      1  0.5714910000000  0.4441760000000  0.5399350000000 1.0
C      1  0.4523930000000  0.4994120000000  0.4195380000000 1.0
C      1  0.4263950000000  0.5569200000000  0.4536210000000 1.0
C      1  0.5615740000000  0.5602670000000  0.4738880000000 1.0
C      1  0.4673200000000  0.5047840000000  0.4768510000000 1.0
C      1  0.4227790000000  0.4121550000000  0.4653260000000 1.0
C      1  0.5121340000000  0.4830410000000  0.3851870000000 1.0
C      1  0.4751070000000  0.5150120000000  0.5230140000000 1.0
C      1  0.5727440000000  0.5212000000000  0.5086760000000 1.0
C      1  0.4735800000000  0.4005090000000  0.4645680000000 1.0
C      1  0.4217110000000  0.4588530000000  0.4627920000000 1.0
C      1  0.5093740000000  0.4329500000000  0.5100920000000 1.0
C      1  0.5303740000000  0.5557920000000  0.4355400000000 1.0
C      1  0.5325020000000  0.4976750000000  0.4793140000000 1.0
C      1  0.5403370000000  0.4329730000000  0.5467470000000 1.0
C      1  0.5225010000000  0.6028560000000  0.5462390000000 1.0
C      1  0.4548840000000  0.5554920000000  0.4226390000000 1.0
C      1  0.4172220000000  0.4830710000000  0.4471030000000 1.0
C      1  0.4041740000000  0.5322170000000  0.5113880000000 1.0
C      1  0.5330440000000  0.6042890000000  0.5187340000000 1.0
C      1  0.5247210000000  0.5523210000000  0.5332080000000 1.0
C      1  0.4982780000000  0.5696690000000  0.5282670000000 1.0
C      1  0.4158740000000  0.5100990000000  0.4615540000000 1.0
C      1  0.5107050000000  0.5226910000000  0.5674090000000 1.0
C      1  0.5216150000000  0.4169500000000  0.5663350000000 1.0
C      1  0.4052250000000  0.4955440000000  0.5522490000000 1.0
C      1  0.4486000000000  0.4801510000000  0.5887240000000 1.0
C      1  0.5235450000000  0.4527230000000  0.6093620000000 1.0
C      1  0.4740330000000  0.4743360000000  0.6023730000000 1.0
C      1  0.5500780000000  0.4840740000000  0.5347750000000 1.0
C      1  0.4447060000000  0.5755550000000  0.4418150000000 1.0
C      1  0.5945460000000  0.4533280000000  0.4664520000000 1.0
C      1  0.5788190000000  0.4340310000000  0.5141550000000 1.0
C      1  0.5376720000000  0.4999280000000  0.5977690000000 1.0
C      1  0.5185780000000  0.4471920000000  0.4861550000000 1.0
C      1  0.4353450000000  0.5396320000000  0.5650720000000 1.0
C      1  0.5478170000000  0.5400720000000  0.4013240000000 1.0
C      1  0.4247710000000  0.4342050000000  0.4460570000000 1.0
C      1  0.6167550000000  0.4933410000000  0.5148990000000 1.0
END
