TITL C-883732-77-195 55.6072962091496 125000 -16557.7998945022 0 0 114 (C1) n - 1
REM
REM in /home/nfs/bkarasulu/CARBON/AIRSS/Generating-Clusters/ReaxFF-fromJPCA2015/Units_Real/with-SteepDescent/Only-C1/SD-CG/Try1-3A/FIRE-CG
REM
REM
REM
REM
REM
REM ./C.cell (11c1c37f851c82e70ff6c80c92926a4b)
REM
REM compiler GCC version 9.2.1 20190827 (Red Hat 9.2.1-1)
REM options -cpp -mtune=generic -march=x86-64 -g -O0 -fpre-include=/usr/include/finclude/math-vector-fortran.h
REM seed 441598495 2140162852 -628492738 -1240251401 1682732605 -1993264179 -1220842946 -613859450 775773392 1698280215 -1671139932 -1131406256 -635142635 279010587 -616400448 -1755996026 1172948286 -304125452 1220415946 504949596 -1417133969 -263870464 -1541278937 -362366082 9735027 383933775 -459893330 -1670511961 -85262748 -1293546930 2123483860 -1453742216 1324767706
REM
CELL 1.54180   50.00000   50.00000   50.00000   90.00000   90.00000   90.00000
LATT -1
SFAC C  
C      1  0.5025470000000  0.5752060000000  0.5446720000000 1.0
C      1  0.5021200000000  0.5301340000000  0.4308870000000 1.0
C      1  0.5243870000000  0.5408820000000  0.4878470000000 1.0
C      1  0.4896600000000  0.4850630000000  0.4152020000000 1.0
C      1  0.4223390000000  0.4800440000000  0.5288540000000 1.0
C      1  0.5452570000000  0.4706480000000  0.4250110000000 1.0
C      1  0.4937040000000  0.5057280000000  0.5499800000000 1.0
C      1  0.4606260000000  0.4285340000000  0.5638170000000 1.0
C      1  0.5637330000000  0.4402570000000  0.5170300000000 1.0
C      1  0.4968220000000  0.5524330000000  0.5005650000000 1.0
C      1  0.5683780000000  0.4908940000000  0.4588400000000 1.0
C      1  0.5119700000000  0.4267570000000  0.5317430000000 1.0
C      1  0.4704160000000  0.5035140000000  0.4657290000000 1.0
C      1  0.4633630000000  0.4117880000000  0.5402860000000 1.0
C      1  0.4323140000000  0.5523740000000  0.4509490000000 1.0
C      1  0.5398990000000  0.4435290000000  0.4575500000000 1.0
C      1  0.5323910000000  0.4178210000000  0.4673200000000 1.0
C      1  0.4898300000000  0.4069110000000  0.5286280000000 1.0
C      1  0.5166070000000  0.4467650000000  0.5644400000000 1.0
C      1  0.5293570000000  0.4466410000000  0.4300760000000 1.0
C      1  0.4672110000000  0.5460290000000  0.4913690000000 1.0
C      1  0.4406130000000  0.5858990000000  0.5037210000000 1.0
C      1  0.4463060000000  0.5187160000000  0.5286800000000 1.0
C      1  0.4733160000000  0.5742650000000  0.5394020000000 1.0
C      1  0.5564070000000  0.5894530000000  0.4836200000000 1.0
C      1  0.5763190000000  0.5240930000000  0.5432960000000 1.0
C      1  0.5792570000000  0.4559320000000  0.4971040000000 1.0
C      1  0.5258970000000  0.5818000000000  0.5286060000000 1.0
C      1  0.4797620000000  0.4809200000000  0.5895700000000 1.0
C      1  0.4736400000000  0.4527150000000  0.5616830000000 1.0
C      1  0.5058690000000  0.4150350000000  0.4584440000000 1.0
C      1  0.4800430000000  0.4635540000000  0.5340320000000 1.0
C      1  0.4589850000000  0.5577740000000  0.4381430000000 1.0
C      1  0.5093690000000  0.5034830000000  0.4133630000000 1.0
C      1  0.4006020000000  0.5198410000000  0.4730130000000 1.0
C      1  0.4254490000000  0.5049330000000  0.5442310000000 1.0
C      1  0.4519030000000  0.5001620000000  0.5072950000000 1.0
C      1  0.4551580000000  0.5607250000000  0.4672310000000 1.0
C      1  0.5278670000000  0.4908590000000  0.5814890000000 1.0
C      1  0.4449560000000  0.4535130000000  0.4692830000000 1.0
C      1  0.4281190000000  0.5096580000000  0.4286170000000 1.0
C      1  0.5636270000000  0.5215740000000  0.5693040000000 1.0
C      1  0.5256090000000  0.4902430000000  0.4798300000000 1.0
C      1  0.4966810000000  0.5382830000000  0.5258330000000 1.0
C      1  0.4403540000000  0.5034150000000  0.5698060000000 1.0
C      1  0.4673190000000  0.5163420000000  0.4904050000000 1.0
C      1  0.4909820000000  0.5839440000000  0.4929310000000 1.0
C      1  0.5149180000000  0.5882300000000  0.4776260000000 1.0
C      1  0.5345850000000  0.4612240000000  0.5426470000000 1.0
C      1  0.4729520000000  0.5375220000000  0.4233160000000 1.0
C      1  0.5786090000000  0.4962930000000  0.5307990000000 1.0
C      1  0.4813890000000  0.4189930000000  0.4728400000000 1.0
C      1  0.5723280000000  0.5164330000000  0.4452470000000 1.0
C      1  0.5034280000000  0.4333760000000  0.4341870000000 1.0
C      1  0.5491780000000  0.5740980000000  0.4584450000000 1.0
C      1  0.5312050000000  0.4184060000000  0.4907810000000 1.0
C      1  0.4508910000000  0.4785160000000  0.5825510000000 1.0
C      1  0.4082810000000  0.4741840000000  0.5038260000000 1.0
C      1  0.4076950000000  0.4914720000000  0.4804430000000 1.0
C      1  0.5382960000000  0.4239940000000  0.5147770000000 1.0
C      1  0.5474100000000  0.5236540000000  0.4321320000000 1.0
C      1  0.4618390000000  0.4326770000000  0.4568580000000 1.0
C      1  0.5178670000000  0.5450440000000  0.5683490000000 1.0
C      1  0.5693930000000  0.4666960000000  0.4422800000000 1.0
C      1  0.5250160000000  0.5591830000000  0.4629090000000 1.0
C      1  0.5729150000000  0.5673900000000  0.4744570000000 1.0
C      1  0.5940010000000  0.5053120000000  0.4881520000000 1.0
C      1  0.4490890000000  0.4689580000000  0.5212570000000 1.0
C      1  0.5323520000000  0.5927790000000  0.5000400000000 1.0
C      1  0.4464300000000  0.4528050000000  0.5699380000000 1.0
C      1  0.4219180000000  0.4532340000000  0.4881100000000 1.0
C      1  0.4531180000000  0.4204330000000  0.5145330000000 1.0
C      1  0.4494540000000  0.4893100000000  0.4281460000000 1.0
C      1  0.5765340000000  0.5418110000000  0.4851490000000 1.0
C      1  0.4747430000000  0.5269800000000  0.5433200000000 1.0
C      1  0.4541390000000  0.5163120000000  0.4165020000000 1.0
C      1  0.5122750000000  0.5160240000000  0.4804160000000 1.0
C      1  0.4764040000000  0.4424420000000  0.4329630000000 1.0
C      1  0.5198710000000  0.4631430000000  0.4718730000000 1.0
C      1  0.4809550000000  0.4227100000000  0.5036410000000 1.0
C      1  0.5539980000000  0.4890670000000  0.4843860000000 1.0
C      1  0.4944080000000  0.5175180000000  0.4581690000000 1.0
C      1  0.5535510000000  0.5322970000000  0.5014010000000 1.0
C      1  0.4493740000000  0.5614230000000  0.5167120000000 1.0
C      1  0.4684100000000  0.4730240000000  0.4711120000000 1.0
C      1  0.5080420000000  0.4699510000000  0.5825680000000 1.0
C      1  0.5629990000000  0.4521920000000  0.5434500000000 1.0
C      1  0.5218810000000  0.5389130000000  0.5398810000000 1.0
C      1  0.5720200000000  0.4777400000000  0.5539070000000 1.0
C      1  0.4818730000000  0.5098680000000  0.5891840000000 1.0
C      1  0.4942690000000  0.4655440000000  0.4712320000000 1.0
C      1  0.5512660000000  0.5000720000000  0.5109550000000 1.0
C      1  0.5767830000000  0.4499300000000  0.4676410000000 1.0
C      1  0.4640610000000  0.5923790000000  0.4929960000000 1.0
C      1  0.5914880000000  0.4836950000000  0.5049920000000 1.0
C      1  0.5555850000000  0.4932000000000  0.5728270000000 1.0
C      1  0.4955180000000  0.4463940000000  0.5176450000000 1.0
C      1  0.5652690000000  0.5444870000000  0.5262110000000 1.0
C      1  0.5002800000000  0.4856290000000  0.5307210000000 1.0
C      1  0.4625800000000  0.5214990000000  0.5718030000000 1.0
C      1  0.4396510000000  0.4444940000000  0.5085380000000 1.0
C      1  0.4282890000000  0.5394580000000  0.5205970000000 1.0
C      1  0.4300970000000  0.5048270000000  0.4932400000000 1.0
C      1  0.5429640000000  0.5598150000000  0.5365050000000 1.0
C      1  0.4692130000000  0.5932940000000  0.5557050000000 1.0
C      1  0.5288610000000  0.4840250000000  0.5263520000000 1.0
C      1  0.4165350000000  0.5276520000000  0.4492130000000 1.0
C      1  0.5370910000000  0.4983790000000  0.4197640000000 1.0
C      1  0.5282930000000  0.5447220000000  0.4377350000000 1.0
C      1  0.5447580000000  0.5433210000000  0.5795690000000 1.0
C      1  0.5901950000000  0.5245900000000  0.4677430000000 1.0
C      1  0.4167650000000  0.5297590000000  0.4955500000000 1.0
C      1  0.5082250000000  0.5140700000000  0.5749760000000 1.0
C      1  0.4685900000000  0.4680490000000  0.4184820000000 1.0
END
