TITL C-884127-5181-206 56.2030387311524 125000 -27009.9242965254 0 0 182 (C1) n - 1
REM
REM in /home/nfs/bkarasulu/CARBON/AIRSS/Generating-Clusters/ReaxFF-fromJPCA2015/Units_Real/with-SteepDescent/Only-C1/SD-CG/Try1-3A/FIRE-CG
REM
REM
REM
REM
REM
REM ./C.cell (11c1c37f851c82e70ff6c80c92926a4b)
REM
REM compiler GCC version 9.2.1 20190827 (Red Hat 9.2.1-1)
REM options -cpp -mtune=generic -march=x86-64 -g -O0 -fpre-include=/usr/include/finclude/math-vector-fortran.h
REM seed -1714870990 1053034072 -1688227397 -293692438 1259670802 2076486264 182747747 -43443063 -2108358717 1546313422 -1269034694 -1276163367 1595114666 -2085286378 -932984623 -1637039246 -372710063 1924603988 -1627263046 -5200127 -139856323 -1209580985 1872456169 -1736250934 740197069 2138407202 -215314997 -1107143502 -1372448044 -1812844120 997451827 70975127 -1922236835
REM
CELL 1.54180   50.00000   50.00000   50.00000   90.00000   90.00000   90.00000
LATT -1
SFAC C  
C      1  0.4891430000000  0.5114620000000  0.4793520000000 1.0
C      1  0.5090600000000  0.5253720000000  0.4662360000000 1.0
C      1  0.4443970000000  0.5499310000000  0.4662070000000 1.0
C      1  0.5591950000000  0.4154860000000  0.5477170000000 1.0
C      1  0.5693630000000  0.5828830000000  0.5312810000000 1.0
C      1  0.4070160000000  0.4759130000000  0.4496510000000 1.0
C      1  0.5986530000000  0.4469010000000  0.5160790000000 1.0
C      1  0.5142420000000  0.5601450000000  0.5249180000000 1.0
C      1  0.5170230000000  0.6057680000000  0.4682810000000 1.0
C      1  0.5974630000000  0.5359790000000  0.4588760000000 1.0
C      1  0.5458810000000  0.5961830000000  0.4645480000000 1.0
C      1  0.4814270000000  0.4350810000000  0.5281790000000 1.0
C      1  0.5029180000000  0.4682110000000  0.5735870000000 1.0
C      1  0.4751410000000  0.5044150000000  0.6024310000000 1.0
C      1  0.4823170000000  0.3948040000000  0.5511390000000 1.0
C      1  0.5765790000000  0.5530780000000  0.4456940000000 1.0
C      1  0.5672140000000  0.5165130000000  0.4185410000000 1.0
C      1  0.5156890000000  0.4073660000000  0.4601560000000 1.0
C      1  0.4838430000000  0.5757260000000  0.5779790000000 1.0
C      1  0.4954820000000  0.4426910000000  0.4388480000000 1.0
C      1  0.4516100000000  0.5012800000000  0.5830920000000 1.0
C      1  0.4075500000000  0.4524730000000  0.5080670000000 1.0
C      1  0.4865000000000  0.5502450000000  0.5374540000000 1.0
C      1  0.6108190000000  0.5148920000000  0.4734480000000 1.0
C      1  0.3993320000000  0.5307260000000  0.4447060000000 1.0
C      1  0.4486850000000  0.4600510000000  0.3900980000000 1.0
C      1  0.4908250000000  0.4003070000000  0.4781910000000 1.0
C      1  0.5052400000000  0.5097240000000  0.5252590000000 1.0
C      1  0.5342150000000  0.5827890000000  0.5643840000000 1.0
C      1  0.4887710000000  0.5281510000000  0.6079260000000 1.0
C      1  0.4735630000000  0.4500380000000  0.5064150000000 1.0
C      1  0.4809740000000  0.5213400000000  0.4221830000000 1.0
C      1  0.5444350000000  0.5100570000000  0.4042610000000 1.0
C      1  0.4198450000000  0.4525720000000  0.4609630000000 1.0
C      1  0.4183090000000  0.5805070000000  0.4509000000000 1.0
C      1  0.6039590000000  0.5143000000000  0.5146310000000 1.0
C      1  0.4081110000000  0.4844580000000  0.5118550000000 1.0
C      1  0.4750260000000  0.6073090000000  0.5246860000000 1.0
C      1  0.5612650000000  0.4261980000000  0.5765940000000 1.0
C      1  0.3892910000000  0.5221950000000  0.4693650000000 1.0
C      1  0.4488870000000  0.5780450000000  0.5091530000000 1.0
C      1  0.5215710000000  0.3957540000000  0.5181480000000 1.0
C      1  0.4553320000000  0.4366270000000  0.4043360000000 1.0
C      1  0.4276370000000  0.4566310000000  0.5762640000000 1.0
C      1  0.5780690000000  0.4552290000000  0.4682360000000 1.0
C      1  0.4789480000000  0.4727660000000  0.5567010000000 1.0
C      1  0.5162180000000  0.4202940000000  0.4338950000000 1.0
C      1  0.5030160000000  0.4729100000000  0.4355350000000 1.0
C      1  0.4450480000000  0.5946010000000  0.4509720000000 1.0
C      1  0.4078990000000  0.5122750000000  0.4891440000000 1.0
C      1  0.4962510000000  0.4835880000000  0.4882620000000 1.0
C      1  0.4643250000000  0.4486680000000  0.5484200000000 1.0
C      1  0.3916100000000  0.5362930000000  0.4938460000000 1.0
C      1  0.5813210000000  0.5066590000000  0.5308040000000 1.0
C      1  0.5461600000000  0.5033090000000  0.5772260000000 1.0
C      1  0.4809130000000  0.4282390000000  0.4125840000000 1.0
C      1  0.5529970000000  0.5418400000000  0.4302850000000 1.0
C      1  0.4575420000000  0.4750310000000  0.4344540000000 1.0
C      1  0.5802730000000  0.4225900000000  0.5277340000000 1.0
C      1  0.5851960000000  0.4059840000000  0.4802250000000 1.0
C      1  0.5951920000000  0.5430250000000  0.5162370000000 1.0
C      1  0.5450140000000  0.5876150000000  0.4931100000000 1.0
C      1  0.4732410000000  0.5568330000000  0.4654330000000 1.0
C      1  0.4803100000000  0.5140250000000  0.3917520000000 1.0
C      1  0.5512340000000  0.4584920000000  0.4265390000000 1.0
C      1  0.4898230000000  0.5216050000000  0.5478280000000 1.0
C      1  0.5673980000000  0.4243590000000  0.4659230000000 1.0
C      1  0.5311990000000  0.4727000000000  0.4435210000000 1.0
C      1  0.4945080000000  0.3930870000000  0.5058980000000 1.0
C      1  0.4964380000000  0.5495760000000  0.4374780000000 1.0
C      1  0.4368290000000  0.4820890000000  0.5055410000000 1.0
C      1  0.4717660000000  0.4418340000000  0.4794810000000 1.0
C      1  0.5649620000000  0.4922640000000  0.5949440000000 1.0
C      1  0.5160890000000  0.5157890000000  0.6182370000000 1.0
C      1  0.4950740000000  0.5245910000000  0.5029310000000 1.0
C      1  0.6085990000000  0.4935490000000  0.4936810000000 1.0
C      1  0.4055000000000  0.5614840000000  0.4977150000000 1.0
C      1  0.5219640000000  0.6083100000000  0.5237150000000 1.0
C      1  0.4679220000000  0.4587820000000  0.6022520000000 1.0
C      1  0.4941620000000  0.4415510000000  0.3895920000000 1.0
C      1  0.5260570000000  0.5504810000000  0.4411580000000 1.0
C      1  0.4764420000000  0.4632610000000  0.3796290000000 1.0
C      1  0.5997110000000  0.4652410000000  0.4934820000000 1.0
C      1  0.5061010000000  0.5907140000000  0.5660780000000 1.0
C      1  0.5174450000000  0.4822630000000  0.3941600000000 1.0
C      1  0.4572270000000  0.5786340000000  0.4307880000000 1.0
C      1  0.5399560000000  0.4134520000000  0.4737720000000 1.0
C      1  0.4114230000000  0.4658640000000  0.5540120000000 1.0
C      1  0.4450970000000  0.4837310000000  0.4777450000000 1.0
C      1  0.5046100000000  0.4155730000000  0.5555720000000 1.0
C      1  0.4346910000000  0.5250530000000  0.5747650000000 1.0
C      1  0.4924190000000  0.5992950000000  0.4534460000000 1.0
C      1  0.4492420000000  0.5245040000000  0.5128700000000 1.0
C      1  0.5761360000000  0.4676510000000  0.4388440000000 1.0
C      1  0.4094970000000  0.4917970000000  0.5413020000000 1.0
C      1  0.5572580000000  0.5074940000000  0.4790480000000 1.0
C      1  0.4920260000000  0.4789510000000  0.6042110000000 1.0
C      1  0.5467530000000  0.5583140000000  0.5760870000000 1.0
C      1  0.5331580000000  0.5398660000000  0.5257140000000 1.0
C      1  0.5346980000000  0.4358820000000  0.4167470000000 1.0
C      1  0.5171870000000  0.4624690000000  0.4809130000000 1.0
C      1  0.5861260000000  0.5079770000000  0.4604560000000 1.0
C      1  0.6080000000000  0.4668230000000  0.5333200000000 1.0
C      1  0.4803870000000  0.6114670000000  0.4952870000000 1.0
C      1  0.4244830000000  0.5640060000000  0.5199980000000 1.0
C      1  0.5768630000000  0.5519730000000  0.4954810000000 1.0
C      1  0.4664870000000  0.5669880000000  0.5548990000000 1.0
C      1  0.4708870000000  0.3919340000000  0.5245610000000 1.0
C      1  0.4123730000000  0.4426370000000  0.5345210000000 1.0
C      1  0.5188620000000  0.5108720000000  0.4447170000000 1.0
C      1  0.5436390000000  0.5947160000000  0.5395460000000 1.0
C      1  0.4727780000000  0.4351930000000  0.5865850000000 1.0
C      1  0.4585330000000  0.5076200000000  0.4712410000000 1.0
C      1  0.5442840000000  0.4721420000000  0.6040260000000 1.0
C      1  0.5814500000000  0.4948330000000  0.4328660000000 1.0
C      1  0.5817530000000  0.5572810000000  0.5390960000000 1.0
C      1  0.4181520000000  0.5185570000000  0.5510540000000 1.0
C      1  0.4665860000000  0.4986060000000  0.5524580000000 1.0
C      1  0.5711190000000  0.4049910000000  0.5079520000000 1.0
C      1  0.5284350000000  0.5467740000000  0.4756220000000 1.0
C      1  0.5290400000000  0.5376650000000  0.6065490000000 1.0
C      1  0.5808910000000  0.5180860000000  0.5574840000000 1.0
C      1  0.4756590000000  0.5516820000000  0.5932880000000 1.0
C      1  0.4315580000000  0.4217290000000  0.5409390000000 1.0
C      1  0.4028100000000  0.5022640000000  0.4362840000000 1.0
C      1  0.4191750000000  0.4372690000000  0.4868890000000 1.0
C      1  0.5579820000000  0.5001880000000  0.5127820000000 1.0
C      1  0.5370720000000  0.4958620000000  0.4599170000000 1.0
C      1  0.5207070000000  0.4522330000000  0.3968740000000 1.0
C      1  0.5700020000000  0.5449630000000  0.5620000000000 1.0
C      1  0.4686610000000  0.6048210000000  0.4684290000000 1.0
C      1  0.4756590000000  0.5423930000000  0.5117340000000 1.0
C      1  0.4641470000000  0.4119270000000  0.4768160000000 1.0
C      1  0.5415880000000  0.4117340000000  0.5034140000000 1.0
C      1  0.5063700000000  0.4495890000000  0.5289550000000 1.0
C      1  0.5867100000000  0.4952830000000  0.5746870000000 1.0
C      1  0.5715250000000  0.5800500000000  0.5026660000000 1.0
C      1  0.4999110000000  0.6067760000000  0.5415790000000 1.0
C      1  0.5202020000000  0.5054800000000  0.4144000000000 1.0
C      1  0.4451500000000  0.4332580000000  0.5663110000000 1.0
C      1  0.4574370000000  0.4954710000000  0.5219490000000 1.0
C      1  0.5093450000000  0.6114500000000  0.4960610000000 1.0
C      1  0.4239470000000  0.5700980000000  0.4764550000000 1.0
C      1  0.5220670000000  0.5432180000000  0.5809290000000 1.0
C      1  0.5444350000000  0.4551150000000  0.5519580000000 1.0
C      1  0.4526370000000  0.5290540000000  0.4203520000000 1.0
C      1  0.4190390000000  0.4935260000000  0.4136610000000 1.0
C      1  0.4862240000000  0.5774400000000  0.4327820000000 1.0
C      1  0.5221950000000  0.4935960000000  0.5669570000000 1.0
C      1  0.5678010000000  0.4632170000000  0.5386810000000 1.0
C      1  0.5610580000000  0.4710170000000  0.5106900000000 1.0
C      1  0.4815720000000  0.4910870000000  0.4329150000000 1.0
C      1  0.5304350000000  0.4049400000000  0.5439030000000 1.0
C      1  0.4124340000000  0.5552700000000  0.4371650000000 1.0
C      1  0.4443690000000  0.4068490000000  0.5199030000000 1.0
C      1  0.4383820000000  0.5242440000000  0.4835380000000 1.0
C      1  0.4381140000000  0.4722630000000  0.4142460000000 1.0
C      1  0.5230330000000  0.4585260000000  0.5090470000000 1.0
C      1  0.4439970000000  0.4726540000000  0.5932580000000 1.0
C      1  0.5545530000000  0.4593520000000  0.4849850000000 1.0
C      1  0.4543790000000  0.5139710000000  0.3829290000000 1.0
C      1  0.4395740000000  0.4151160000000  0.4924010000000 1.0
C      1  0.5453680000000  0.4506850000000  0.5815440000000 1.0
C      1  0.5553100000000  0.5361420000000  0.4835810000000 1.0
C      1  0.5335540000000  0.4413270000000  0.5278570000000 1.0
C      1  0.5100160000000  0.5194690000000  0.5668710000000 1.0
C      1  0.5231570000000  0.5679540000000  0.4979840000000 1.0
C      1  0.4411320000000  0.5527730000000  0.4317580000000 1.0
C      1  0.5340770000000  0.5122700000000  0.5284630000000 1.0
C      1  0.4982910000000  0.4447930000000  0.4679590000000 1.0
C      1  0.4333700000000  0.5166360000000  0.4009490000000 1.0
C      1  0.4992890000000  0.4374690000000  0.5753650000000 1.0
C      1  0.5201950000000  0.4863900000000  0.6131790000000 1.0
C      1  0.5915740000000  0.4732110000000  0.5548660000000 1.0
C      1  0.4287580000000  0.5366480000000  0.5304140000000 1.0
C      1  0.4716160000000  0.5664590000000  0.4923740000000 1.0
C      1  0.5615470000000  0.5757190000000  0.4529510000000 1.0
C      1  0.4516080000000  0.5483700000000  0.5775450000000 1.0
C      1  0.4919700000000  0.4882260000000  0.3814950000000 1.0
C      1  0.4770890000000  0.4769390000000  0.5076230000000 1.0
C      1  0.4554840000000  0.5886670000000  0.5350790000000 1.0
C      1  0.4496100000000  0.4608280000000  0.4591390000000 1.0
END
