TITL C-884141-4321-92 -0.276600142145487 125000 -8055.07044369811 0 0 55 (C1) n - 1
REM
REM in /home/nfs/bkarasulu/CARBON/AIRSS/Generating-Clusters/ReaxFF-fromJPCA2015/Units_Real/with-SteepDescent/Only-C1/SD-CG/Try1-3A/FIRE-CG
REM
REM
REM
REM
REM
REM ./C.cell (11c1c37f851c82e70ff6c80c92926a4b)
REM
REM compiler GCC version 9.2.1 20190827 (Red Hat 9.2.1-1)
REM options -cpp -mtune=generic -march=x86-64 -g -O0 -fpre-include=/usr/include/finclude/math-vector-fortran.h
REM seed -189906072 625198377 -1015301569 -2096203418 138868028 1775706048 850402534 -2001629938 372658612 1015757577 -683090954 63914196 779012783 1081743907 -1528204311 -2118978607 -1996217575 -1563331801 -1846022623 332902418 1598683848 -134705565 -606626513 1631134366 1836754761 30921929 -492052403 1637783146 876417824 -1681710756 97018297 -1984488916 1876599020
REM
CELL 1.54180   50.00000   50.00000   50.00000   90.00000   90.00000   90.00000
LATT -1
SFAC C  
C      1  0.5224680000000  0.4413590000000  0.5228430000000 1.0
C      1  0.5031050000000  0.4843900000000  0.4208690000000 1.0
C      1  0.4692670000000  0.4862030000000  0.5246740000000 1.0
C      1  0.5347660000000  0.4994970000000  0.4723360000000 1.0
C      1  0.4808950000000  0.5195780000000  0.5530750000000 1.0
C      1  0.4566400000000  0.4436540000000  0.5117230000000 1.0
C      1  0.4681050000000  0.4958280000000  0.5001880000000 1.0
C      1  0.4760500000000  0.4290460000000  0.4955880000000 1.0
C      1  0.4897220000000  0.4964790000000  0.4825020000000 1.0
C      1  0.5322930000000  0.4993350000000  0.5689530000000 1.0
C      1  0.5029450000000  0.5063770000000  0.5701120000000 1.0
C      1  0.5200370000000  0.5480870000000  0.4845020000000 1.0
C      1  0.4425340000000  0.5052760000000  0.4931140000000 1.0
C      1  0.4646410000000  0.4719100000000  0.5618560000000 1.0
C      1  0.5704000000000  0.5008250000000  0.5047240000000 1.0
C      1  0.5523490000000  0.5535710000000  0.5387940000000 1.0
C      1  0.4691540000000  0.5659580000000  0.5015310000000 1.0
C      1  0.4971120000000  0.5301540000000  0.4367840000000 1.0
C      1  0.5028600000000  0.3973720000000  0.4994920000000 1.0
C      1  0.4655630000000  0.4602720000000  0.5340910000000 1.0
C      1  0.4604680000000  0.4634760000000  0.4638920000000 1.0
C      1  0.4874270000000  0.4837390000000  0.5742840000000 1.0
C      1  0.5179630000000  0.5674780000000  0.5064300000000 1.0
C      1  0.5149850000000  0.4608480000000  0.4350900000000 1.0
C      1  0.4361250000000  0.5335460000000  0.4996470000000 1.0
C      1  0.4529550000000  0.5488060000000  0.5187320000000 1.0
C      1  0.4655680000000  0.5588150000000  0.4716730000000 1.0
C      1  0.5320550000000  0.5307330000000  0.5408540000000 1.0
C      1  0.4802490000000  0.4426590000000  0.4688900000000 1.0
C      1  0.4771700000000  0.5425690000000  0.5357170000000 1.0
C      1  0.5356960000000  0.4683540000000  0.5684730000000 1.0
C      1  0.5340310000000  0.5535060000000  0.4579380000000 1.0
C      1  0.5313940000000  0.4841060000000  0.4283540000000 1.0
C      1  0.4416070000000  0.5404250000000  0.4714010000000 1.0
C      1  0.5286410000000  0.4511200000000  0.5470750000000 1.0
C      1  0.5254310000000  0.4652140000000  0.5079120000000 1.0
C      1  0.4851660000000  0.5033760000000  0.4332350000000 1.0
C      1  0.5419300000000  0.5054420000000  0.4458660000000 1.0
C      1  0.5007920000000  0.4196080000000  0.5112790000000 1.0
C      1  0.4452160000000  0.5119910000000  0.4649430000000 1.0
C      1  0.5278900000000  0.5310060000000  0.4399280000000 1.0
C      1  0.5357000000000  0.4888490000000  0.5229040000000 1.0
C      1  0.4690980000000  0.4943260000000  0.4571440000000 1.0
C      1  0.5524540000000  0.5140680000000  0.5536350000000 1.0
C      1  0.5136000000000  0.5195290000000  0.4909120000000 1.0
C      1  0.5633570000000  0.4964370000000  0.5315270000000 1.0
C      1  0.4825100000000  0.5461840000000  0.4541440000000 1.0
C      1  0.5609050000000  0.5025320000000  0.4815600000000 1.0
C      1  0.5121770000000  0.4742370000000  0.4818670000000 1.0
C      1  0.4431800000000  0.4558700000000  0.4866880000000 1.0
C      1  0.5427650000000  0.5759600000000  0.5213190000000 1.0
C      1  0.5069470000000  0.4528120000000  0.4617920000000 1.0
C      1  0.4601560000000  0.4987370000000  0.5486690000000 1.0
C      1  0.4919860000000  0.5641100000000  0.5197550000000 1.0
C      1  0.5215010000000  0.5143640000000  0.5187210000000 1.0
END
