TITL C-883737-113-98 15.3169241340887 125000 -15793.8576327169 0 0 108 (C1) n - 1
REM
REM in /home/nfs/bkarasulu/CARBON/AIRSS/Generating-Clusters/ReaxFF-fromJPCA2015/Units_Real/with-SteepDescent/Only-C1/SD-CG/Try1-3A/FIRE-CG
REM
REM
REM
REM
REM
REM ./C.cell (11c1c37f851c82e70ff6c80c92926a4b)
REM
REM compiler GCC version 9.2.1 20190827 (Red Hat 9.2.1-1)
REM options -cpp -mtune=generic -march=x86-64 -g -O0 -fpre-include=/usr/include/finclude/math-vector-fortran.h
REM seed -1808794933 126596377 -1085268322 143953669 323563532 -2036100615 325254169 905417907 -1345377730 -1386578251 -42740332 -1637789158 1546565737 1942027873 1980265121 -1208933264 367856914 -1415366435 871644158 2073320452 1982728605 -982186469 -81048328 -2029022145 -724653916 1877042974 1633942744 -1327094541 107084826 -1568050506 669850141 1766723227 -1961769808
REM
CELL 1.54180   50.00000   50.00000   50.00000   90.00000   90.00000   90.00000
LATT -1
SFAC C  
C      1  0.5108470000000  0.5048200000000  0.4212090000000 1.0
C      1  0.5305570000000  0.5330790000000  0.5039700000000 1.0
C      1  0.4836800000000  0.4243230000000  0.5117760000000 1.0
C      1  0.4255140000000  0.4697300000000  0.4759440000000 1.0
C      1  0.5249300000000  0.4212620000000  0.5391740000000 1.0
C      1  0.5411180000000  0.4798460000000  0.5296460000000 1.0
C      1  0.5798940000000  0.5083830000000  0.4890980000000 1.0
C      1  0.4147320000000  0.5205740000000  0.4834200000000 1.0
C      1  0.5009810000000  0.5181900000000  0.5457820000000 1.0
C      1  0.5312830000000  0.5738850000000  0.4564170000000 1.0
C      1  0.4978430000000  0.5056890000000  0.4474690000000 1.0
C      1  0.5428020000000  0.4645630000000  0.5569200000000 1.0
C      1  0.5398260000000  0.4696990000000  0.4145000000000 1.0
C      1  0.5445720000000  0.5705930000000  0.5396800000000 1.0
C      1  0.4264910000000  0.4853200000000  0.5135810000000 1.0
C      1  0.5375860000000  0.5662690000000  0.4281380000000 1.0
C      1  0.4950470000000  0.4128750000000  0.4680110000000 1.0
C      1  0.5046260000000  0.5573650000000  0.4644230000000 1.0
C      1  0.4880360000000  0.5829160000000  0.5580750000000 1.0
C      1  0.4687920000000  0.4623200000000  0.4592890000000 1.0
C      1  0.5188600000000  0.5343040000000  0.4770070000000 1.0
C      1  0.5673180000000  0.4357830000000  0.4746040000000 1.0
C      1  0.5144330000000  0.4323340000000  0.4303140000000 1.0
C      1  0.5832300000000  0.5104510000000  0.4623050000000 1.0
C      1  0.4096510000000  0.4901860000000  0.4888290000000 1.0
C      1  0.5482480000000  0.5797140000000  0.4780590000000 1.0
C      1  0.4822020000000  0.5779490000000  0.4799350000000 1.0
C      1  0.5464900000000  0.4360060000000  0.5524230000000 1.0
C      1  0.4530140000000  0.4937800000000  0.5782700000000 1.0
C      1  0.4561990000000  0.5701700000000  0.4782580000000 1.0
C      1  0.4871660000000  0.4517730000000  0.5559660000000 1.0
C      1  0.5067040000000  0.5584600000000  0.5635030000000 1.0
C      1  0.4475050000000  0.4760740000000  0.4933500000000 1.0
C      1  0.4535120000000  0.4410170000000  0.4728210000000 1.0
C      1  0.4912110000000  0.4183170000000  0.4407750000000 1.0
C      1  0.5717680000000  0.4854890000000  0.5344930000000 1.0
C      1  0.4772770000000  0.5874900000000  0.5306210000000 1.0
C      1  0.4612840000000  0.5000770000000  0.4838560000000 1.0
C      1  0.5786010000000  0.5260850000000  0.5135650000000 1.0
C      1  0.4586560000000  0.4374250000000  0.5025950000000 1.0
C      1  0.4588070000000  0.4750830000000  0.4311560000000 1.0
C      1  0.4900380000000  0.5929870000000  0.5046250000000 1.0
C      1  0.4505580000000  0.5255390000000  0.4455630000000 1.0
C      1  0.4896640000000  0.5381510000000  0.5804960000000 1.0
C      1  0.4704020000000  0.5078110000000  0.4570080000000 1.0
C      1  0.5397020000000  0.4798130000000  0.4673750000000 1.0
C      1  0.5282740000000  0.4782990000000  0.5780560000000 1.0
C      1  0.4341150000000  0.5470260000000  0.5275210000000 1.0
C      1  0.4265470000000  0.5343530000000  0.4604590000000 1.0
C      1  0.5177160000000  0.5065160000000  0.4678310000000 1.0
C      1  0.4679130000000  0.5159990000000  0.5071060000000 1.0
C      1  0.4996020000000  0.4814480000000  0.4067530000000 1.0
C      1  0.5537570000000  0.5259890000000  0.5599300000000 1.0
C      1  0.4468260000000  0.4207650000000  0.5445190000000 1.0
C      1  0.4716380000000  0.4249470000000  0.5591580000000 1.0
C      1  0.4916320000000  0.5540910000000  0.4366940000000 1.0
C      1  0.4722880000000  0.4910020000000  0.4076520000000 1.0
C      1  0.5782500000000  0.4994970000000  0.4387740000000 1.0
C      1  0.4720370000000  0.4083110000000  0.5350580000000 1.0
C      1  0.4917890000000  0.4677440000000  0.4756960000000 1.0
C      1  0.4963420000000  0.5460690000000  0.5402250000000 1.0
C      1  0.5227540000000  0.5140660000000  0.5964380000000 1.0
C      1  0.5414780000000  0.4203280000000  0.4729630000000 1.0
C      1  0.4343940000000  0.5318820000000  0.5497360000000 1.0
C      1  0.5016260000000  0.4370520000000  0.5314780000000 1.0
C      1  0.4812490000000  0.5398000000000  0.5007110000000 1.0
C      1  0.5424300000000  0.5891000000000  0.5184400000000 1.0
C      1  0.5722820000000  0.5146690000000  0.5397390000000 1.0
C      1  0.5010270000000  0.4924610000000  0.4867580000000 1.0
C      1  0.5164870000000  0.5818060000000  0.5054370000000 1.0
C      1  0.4612110000000  0.5443980000000  0.5806310000000 1.0
C      1  0.5633360000000  0.4439300000000  0.4469050000000 1.0
C      1  0.4625290000000  0.5694180000000  0.5648780000000 1.0
C      1  0.4998650000000  0.4724100000000  0.5778740000000 1.0
C      1  0.5628810000000  0.5740760000000  0.5020290000000 1.0
C      1  0.4805060000000  0.4995490000000  0.5328810000000 1.0
C      1  0.4444420000000  0.4737450000000  0.5586840000000 1.0
C      1  0.4950730000000  0.5158100000000  0.5988400000000 1.0
C      1  0.4693150000000  0.4191670000000  0.4601560000000 1.0
C      1  0.5399810000000  0.4261850000000  0.4437820000000 1.0
C      1  0.5354280000000  0.4579620000000  0.5101540000000 1.0
C      1  0.4203420000000  0.5433700000000  0.5007490000000 1.0
C      1  0.5772590000000  0.4586520000000  0.4916010000000 1.0
C      1  0.4755480000000  0.5210500000000  0.4053290000000 1.0
C      1  0.5399040000000  0.5520720000000  0.5587250000000 1.0
C      1  0.5554490000000  0.4736910000000  0.4412540000000 1.0
C      1  0.4808970000000  0.4909110000000  0.5881950000000 1.0
C      1  0.5584330000000  0.5449730000000  0.5059960000000 1.0
C      1  0.4366190000000  0.4751420000000  0.4189460000000 1.0
C      1  0.5433480000000  0.5071430000000  0.5803100000000 1.0
C      1  0.5208040000000  0.4555890000000  0.4841950000000 1.0
C      1  0.5071670000000  0.5531500000000  0.5145750000000 1.0
C      1  0.5042020000000  0.5283460000000  0.4045680000000 1.0
C      1  0.4677600000000  0.5400220000000  0.4267070000000 1.0
C      1  0.4386000000000  0.4401630000000  0.5240120000000 1.0
C      1  0.5122560000000  0.5546850000000  0.4163650000000 1.0
C      1  0.4424970000000  0.5215350000000  0.5743620000000 1.0
C      1  0.4604550000000  0.5622970000000  0.5354500000000 1.0
C      1  0.5148970000000  0.4259960000000  0.4841050000000 1.0
C      1  0.5457910000000  0.4340470000000  0.5229480000000 1.0
C      1  0.4691490000000  0.4729320000000  0.5437680000000 1.0
C      1  0.4303080000000  0.5595080000000  0.4772400000000 1.0
C      1  0.5623860000000  0.4838080000000  0.4854470000000 1.0
C      1  0.5230450000000  0.5091280000000  0.5273560000000 1.0
C      1  0.5149960000000  0.4550890000000  0.4110610000000 1.0
C      1  0.5035830000000  0.4913100000000  0.5148390000000 1.0
C      1  0.4277550000000  0.4657280000000  0.5350920000000 1.0
C      1  0.5878750000000  0.4658240000000  0.5185640000000 1.0
END
