TITL C-884139-6216-316 27.743559559747 125000 -19055.6501464403 0 0 128 (C1) n - 1
REM
REM in /home/nfs/bkarasulu/CARBON/AIRSS/Generating-Clusters/ReaxFF-fromJPCA2015/Units_Real/with-SteepDescent/Only-C1/SD-CG/Try1-3A/FIRE-CG
REM
REM
REM
REM
REM
REM ./C.cell (11c1c37f851c82e70ff6c80c92926a4b)
REM
REM compiler GCC version 9.2.1 20190827 (Red Hat 9.2.1-1)
REM options -cpp -mtune=generic -march=x86-64 -g -O0 -fpre-include=/usr/include/finclude/math-vector-fortran.h
REM seed 177574395 570638833 -1170034097 1531995447 1132771964 -545423998 680355356 481782115 -1219424455 87925539 1704463605 368313691 302053970 -401943779 -1309643667 -1124530926 -1932354021 -491855067 -1134895824 1159742690 535441539 292924472 -159299887 -316030117 -408468733 -1269465205 -529547637 -298811956 1374034344 1800935267 -1730079247 418539531 853916609
REM
CELL 1.54180   50.00000   50.00000   50.00000   90.00000   90.00000   90.00000
LATT -1
SFAC C  
C      1  0.5362350000000  0.5856380000000  0.4861750000000 1.0
C      1  0.4232700000000  0.5485730000000  0.4695050000000 1.0
C      1  0.4076920000000  0.4583260000000  0.4893050000000 1.0
C      1  0.4213080000000  0.4955830000000  0.4705630000000 1.0
C      1  0.4005990000000  0.5076110000000  0.5149970000000 1.0
C      1  0.4265010000000  0.5405900000000  0.5451470000000 1.0
C      1  0.5148200000000  0.4748350000000  0.4027410000000 1.0
C      1  0.4760640000000  0.4537710000000  0.5389500000000 1.0
C      1  0.4927060000000  0.5614670000000  0.5549220000000 1.0
C      1  0.5505490000000  0.5231150000000  0.5135810000000 1.0
C      1  0.5687280000000  0.4590120000000  0.4767390000000 1.0
C      1  0.4882380000000  0.4255240000000  0.5633000000000 1.0
C      1  0.4677370000000  0.4470960000000  0.4229000000000 1.0
C      1  0.5653960000000  0.5133290000000  0.5698100000000 1.0
C      1  0.4514960000000  0.4689260000000  0.5308590000000 1.0
C      1  0.4928210000000  0.4659290000000  0.4230950000000 1.0
C      1  0.5434480000000  0.4188250000000  0.4757320000000 1.0
C      1  0.5298500000000  0.5172140000000  0.4129190000000 1.0
C      1  0.5079980000000  0.5029110000000  0.3992320000000 1.0
C      1  0.4141290000000  0.5325680000000  0.5206410000000 1.0
C      1  0.5744190000000  0.5371720000000  0.4472780000000 1.0
C      1  0.4383000000000  0.4180680000000  0.4824990000000 1.0
C      1  0.4636050000000  0.5126970000000  0.5364300000000 1.0
C      1  0.4706630000000  0.5373990000000  0.4678820000000 1.0
C      1  0.4861060000000  0.4362070000000  0.4714510000000 1.0
C      1  0.4809080000000  0.5099540000000  0.4087440000000 1.0
C      1  0.4391880000000  0.4375200000000  0.4615460000000 1.0
C      1  0.5618810000000  0.5584130000000  0.4585620000000 1.0
C      1  0.5604950000000  0.5507560000000  0.5105030000000 1.0
C      1  0.4883310000000  0.3954380000000  0.4779600000000 1.0
C      1  0.4705390000000  0.5377010000000  0.4112570000000 1.0
C      1  0.4757730000000  0.4424160000000  0.4975740000000 1.0
C      1  0.5348450000000  0.5100940000000  0.4678520000000 1.0
C      1  0.5782070000000  0.4917320000000  0.5529060000000 1.0
C      1  0.3972480000000  0.4804630000000  0.5045890000000 1.0
C      1  0.5306820000000  0.5551910000000  0.4521370000000 1.0
C      1  0.4590770000000  0.4938880000000  0.5155920000000 1.0
C      1  0.4561200000000  0.5899910000000  0.4971840000000 1.0
C      1  0.6022530000000  0.5255400000000  0.4949690000000 1.0
C      1  0.5892370000000  0.4530220000000  0.4972100000000 1.0
C      1  0.5194770000000  0.5738160000000  0.5565660000000 1.0
C      1  0.5562130000000  0.4496130000000  0.5302330000000 1.0
C      1  0.5212170000000  0.4715530000000  0.4693690000000 1.0
C      1  0.4817270000000  0.4496020000000  0.5796640000000 1.0
C      1  0.4833580000000  0.4892080000000  0.5025150000000 1.0
C      1  0.5087880000000  0.4698830000000  0.4502350000000 1.0
C      1  0.5466370000000  0.4998660000000  0.5871480000000 1.0
C      1  0.5634760000000  0.4672070000000  0.5542410000000 1.0
C      1  0.5973770000000  0.4801810000000  0.5055350000000 1.0
C      1  0.4163530000000  0.4630950000000  0.4307960000000 1.0
C      1  0.4897380000000  0.5835440000000  0.4604670000000 1.0
C      1  0.5183740000000  0.5806070000000  0.4643060000000 1.0
C      1  0.4943410000000  0.5508620000000  0.4232770000000 1.0
C      1  0.5487950000000  0.4620330000000  0.4982730000000 1.0
C      1  0.5180740000000  0.5408130000000  0.5892820000000 1.0
C      1  0.5444880000000  0.4729190000000  0.5755890000000 1.0
C      1  0.4495300000000  0.4484160000000  0.5085210000000 1.0
C      1  0.4363200000000  0.5282930000000  0.5702830000000 1.0
C      1  0.5212530000000  0.4714620000000  0.5578120000000 1.0
C      1  0.4413590000000  0.4741410000000  0.5615570000000 1.0
C      1  0.5958170000000  0.5265350000000  0.5241540000000 1.0
C      1  0.5758500000000  0.5466280000000  0.5353120000000 1.0
C      1  0.4246420000000  0.5205750000000  0.4600260000000 1.0
C      1  0.5288890000000  0.6015250000000  0.5100790000000 1.0
C      1  0.5598010000000  0.5675910000000  0.4862300000000 1.0
C      1  0.5228530000000  0.4231400000000  0.4390730000000 1.0
C      1  0.5608910000000  0.5404790000000  0.5602610000000 1.0
C      1  0.4518990000000  0.5177280000000  0.4571800000000 1.0
C      1  0.4238730000000  0.4363160000000  0.5008620000000 1.0
C      1  0.5823950000000  0.4927580000000  0.4567040000000 1.0
C      1  0.5231770000000  0.5146730000000  0.5986020000000 1.0
C      1  0.4631800000000  0.4008020000000  0.4931060000000 1.0
C      1  0.4862870000000  0.5369970000000  0.5967150000000 1.0
C      1  0.4605780000000  0.5393270000000  0.5851010000000 1.0
C      1  0.4611270000000  0.5343880000000  0.5187480000000 1.0
C      1  0.4924370000000  0.4678560000000  0.5596220000000 1.0
C      1  0.4859680000000  0.5556700000000  0.4518110000000 1.0
C      1  0.4976920000000  0.5325300000000  0.5494780000000 1.0
C      1  0.5120390000000  0.5334370000000  0.5243460000000 1.0
C      1  0.4518090000000  0.5524630000000  0.4285570000000 1.0
C      1  0.5090370000000  0.4161470000000  0.4680840000000 1.0
C      1  0.4002660000000  0.5025550000000  0.4867450000000 1.0
C      1  0.5219330000000  0.5421850000000  0.4243090000000 1.0
C      1  0.5318700000000  0.5156040000000  0.5346380000000 1.0
C      1  0.4411910000000  0.4553660000000  0.4220180000000 1.0
C      1  0.4656110000000  0.4937220000000  0.4548810000000 1.0
C      1  0.5365830000000  0.4267190000000  0.5395440000000 1.0
C      1  0.4662750000000  0.4222100000000  0.5444280000000 1.0
C      1  0.4717330000000  0.5758940000000  0.5413420000000 1.0
C      1  0.5382090000000  0.4136070000000  0.5157370000000 1.0
C      1  0.4799740000000  0.4911790000000  0.4303570000000 1.0
C      1  0.5569150000000  0.4147660000000  0.4992540000000 1.0
C      1  0.4781600000000  0.5385730000000  0.4955260000000 1.0
C      1  0.5400200000000  0.4694620000000  0.4150110000000 1.0
C      1  0.5026160000000  0.6069980000000  0.5214780000000 1.0
C      1  0.4763140000000  0.5937870000000  0.5197770000000 1.0
C      1  0.5567310000000  0.4381190000000  0.4590720000000 1.0
C      1  0.5215750000000  0.4888970000000  0.5357940000000 1.0
C      1  0.5070550000000  0.4762710000000  0.5147730000000 1.0
C      1  0.5059680000000  0.5383910000000  0.4967380000000 1.0
C      1  0.5423530000000  0.4432240000000  0.4328140000000 1.0
C      1  0.4648870000000  0.4082280000000  0.5204970000000 1.0
C      1  0.4766450000000  0.4901050000000  0.4792050000000 1.0
C      1  0.5243280000000  0.5966010000000  0.5387400000000 1.0
C      1  0.5748830000000  0.4328590000000  0.5133240000000 1.0
C      1  0.4762400000000  0.4957230000000  0.5841710000000 1.0
C      1  0.4602480000000  0.4702260000000  0.5839590000000 1.0
C      1  0.5941950000000  0.4974520000000  0.5294360000000 1.0
C      1  0.4839240000000  0.5067130000000  0.5574920000000 1.0
C      1  0.5362750000000  0.5540880000000  0.5706730000000 1.0
C      1  0.4656530000000  0.4350780000000  0.4493390000000 1.0
C      1  0.4208560000000  0.4659350000000  0.4640870000000 1.0
C      1  0.4935790000000  0.5090240000000  0.6031910000000 1.0
C      1  0.5301680000000  0.4794090000000  0.4960340000000 1.0
C      1  0.4345380000000  0.5745610000000  0.5081320000000 1.0
C      1  0.5079610000000  0.4261520000000  0.5413330000000 1.0
C      1  0.4615340000000  0.5835170000000  0.4693590000000 1.0
C      1  0.4959120000000  0.4479320000000  0.5190690000000 1.0
C      1  0.4190530000000  0.5529630000000  0.4978110000000 1.0
C      1  0.5968630000000  0.4984840000000  0.4829760000000 1.0
C      1  0.5410890000000  0.5059190000000  0.4938870000000 1.0
C      1  0.5500750000000  0.4962020000000  0.4225720000000 1.0
C      1  0.4423600000000  0.5650010000000  0.4535950000000 1.0
C      1  0.5527260000000  0.4929510000000  0.4517850000000 1.0
C      1  0.4368020000000  0.5001050000000  0.5672040000000 1.0
C      1  0.5833160000000  0.5149360000000  0.4384510000000 1.0
C      1  0.5223410000000  0.5344620000000  0.4728740000000 1.0
C      1  0.4476030000000  0.5586670000000  0.5316130000000 1.0
END
