TITL C-883732-77-341 -2.25616224900698 125000 -12709.2404316789 0 0 85 (C1) n - 1
REM
REM in /home/nfs/bkarasulu/CARBON/AIRSS/Generating-Clusters/ReaxFF-fromJPCA2015/Units_Real/with-SteepDescent/Only-C1/SD-CG/Try1-3A/FIRE-CG
REM
REM
REM
REM
REM
REM ./C.cell (11c1c37f851c82e70ff6c80c92926a4b)
REM
REM compiler GCC version 9.2.1 20190827 (Red Hat 9.2.1-1)
REM options -cpp -mtune=generic -march=x86-64 -g -O0 -fpre-include=/usr/include/finclude/math-vector-fortran.h
REM seed 1682938736 1093093680 -881399210 225095304 -130586477 1106558767 -1265480060 -897873617 -398341684 -580666673 1316147226 -533179716 1724260676 1079948708 -1404719333 -961043318 1096507431 2005033082 1259311011 -1030329661 945843276 -2102902926 -31786845 1709861162 287176753 2001276096 1837549732 133982926 447604813 -185562347 -1669156111 -732426558 1732136772
REM
CELL 1.54180   50.00000   50.00000   50.00000   90.00000   90.00000   90.00000
LATT -1
SFAC C  
C      1  0.5511670000000  0.5308350000000  0.4673180000000 1.0
C      1  0.5561820000000  0.4310070000000  0.4890420000000 1.0
C      1  0.5176440000000  0.4678470000000  0.5656810000000 1.0
C      1  0.5038610000000  0.4263960000000  0.4535420000000 1.0
C      1  0.5545230000000  0.4437560000000  0.4647670000000 1.0
C      1  0.4539050000000  0.4908800000000  0.5067090000000 1.0
C      1  0.4768830000000  0.5104280000000  0.4312970000000 1.0
C      1  0.5175030000000  0.4496030000000  0.4390230000000 1.0
C      1  0.5348510000000  0.4436850000000  0.5342780000000 1.0
C      1  0.4660550000000  0.5669040000000  0.5032090000000 1.0
C      1  0.4371900000000  0.5670220000000  0.4962560000000 1.0
C      1  0.5138500000000  0.5382180000000  0.5436130000000 1.0
C      1  0.4528350000000  0.4604800000000  0.4369720000000 1.0
C      1  0.5363030000000  0.4065650000000  0.4878550000000 1.0
C      1  0.4452380000000  0.4688080000000  0.5678220000000 1.0
C      1  0.5138490000000  0.5099770000000  0.5359330000000 1.0
C      1  0.5389410000000  0.5567920000000  0.5410900000000 1.0
C      1  0.5073910000000  0.4343040000000  0.5336910000000 1.0
C      1  0.5237060000000  0.5159270000000  0.5783300000000 1.0
C      1  0.5009650000000  0.5046810000000  0.4786510000000 1.0
C      1  0.4328640000000  0.5518740000000  0.4692940000000 1.0
C      1  0.4704790000000  0.4554330000000  0.5661060000000 1.0
C      1  0.4762120000000  0.4590530000000  0.4224100000000 1.0
C      1  0.4774440000000  0.5384340000000  0.4390880000000 1.0
C      1  0.4929800000000  0.4573630000000  0.4972980000000 1.0
C      1  0.4307870000000  0.5514600000000  0.5185740000000 1.0
C      1  0.4353960000000  0.4499350000000  0.5437890000000 1.0
C      1  0.5296140000000  0.5052300000000  0.5121300000000 1.0
C      1  0.4226340000000  0.4566500000000  0.4939520000000 1.0
C      1  0.5036510000000  0.5486400000000  0.4566770000000 1.0
C      1  0.5098180000000  0.4157420000000  0.4814420000000 1.0
C      1  0.5260610000000  0.5091320000000  0.4337680000000 1.0
C      1  0.4506640000000  0.4368700000000  0.4559390000000 1.0
C      1  0.4763920000000  0.4283200000000  0.4488740000000 1.0
C      1  0.5427680000000  0.5531970000000  0.5101060000000 1.0
C      1  0.5596740000000  0.4894200000000  0.5484100000000 1.0
C      1  0.4338580000000  0.4984460000000  0.4636920000000 1.0
C      1  0.5535880000000  0.5734590000000  0.4917360000000 1.0
C      1  0.5693650000000  0.4920300000000  0.5213780000000 1.0
C      1  0.4432140000000  0.4364580000000  0.4847840000000 1.0
C      1  0.4869910000000  0.5837400000000  0.5154470000000 1.0
C      1  0.5102090000000  0.4959310000000  0.5619810000000 1.0
C      1  0.5831280000000  0.4985140000000  0.4826300000000 1.0
C      1  0.5392900000000  0.5281480000000  0.4979230000000 1.0
C      1  0.5456350000000  0.4576800000000  0.4432560000000 1.0
C      1  0.4627690000000  0.5438110000000  0.5684520000000 1.0
C      1  0.5462770000000  0.4805600000000  0.5034870000000 1.0
C      1  0.5519340000000  0.5142920000000  0.5657030000000 1.0
C      1  0.4966420000000  0.4468240000000  0.5578950000000 1.0
C      1  0.5015860000000  0.4978700000000  0.4228640000000 1.0
C      1  0.4603140000000  0.4448820000000  0.5272360000000 1.0
C      1  0.5895760000000  0.5106480000000  0.5076500000000 1.0
C      1  0.4359110000000  0.5285670000000  0.5331300000000 1.0
C      1  0.5312140000000  0.5887630000000  0.4804980000000 1.0
C      1  0.5476980000000  0.4509470000000  0.5089210000000 1.0
C      1  0.4578230000000  0.5188680000000  0.5151800000000 1.0
C      1  0.4934120000000  0.4285000000000  0.5059570000000 1.0
C      1  0.5080970000000  0.5782650000000  0.4671440000000 1.0
C      1  0.4430530000000  0.4968200000000  0.5664660000000 1.0
C      1  0.5023600000000  0.4674460000000  0.4199060000000 1.0
C      1  0.4826710000000  0.4846460000000  0.4683930000000 1.0
C      1  0.4194970000000  0.4545450000000  0.5217670000000 1.0
C      1  0.5239540000000  0.4848540000000  0.4760710000000 1.0
C      1  0.5428370000000  0.4884910000000  0.4505270000000 1.0
C      1  0.5029780000000  0.4652040000000  0.4723610000000 1.0
C      1  0.4546010000000  0.5482000000000  0.4513750000000 1.0
C      1  0.5033160000000  0.5918170000000  0.4921790000000 1.0
C      1  0.4607340000000  0.4897500000000  0.4482350000000 1.0
C      1  0.4407820000000  0.5241360000000  0.5635370000000 1.0
C      1  0.5713000000000  0.5540560000000  0.4783360000000 1.0
C      1  0.4957400000000  0.5328620000000  0.4822310000000 1.0
C      1  0.4960420000000  0.5798180000000  0.5436960000000 1.0
C      1  0.5237020000000  0.5843470000000  0.5486230000000 1.0
C      1  0.4284540000000  0.5239160000000  0.4710310000000 1.0
C      1  0.5850880000000  0.5364990000000  0.4956360000000 1.0
C      1  0.5602980000000  0.5404530000000  0.5586580000000 1.0
C      1  0.4618050000000  0.4270210000000  0.5046860000000 1.0
C      1  0.4746160000000  0.5383770000000  0.5004230000000 1.0
C      1  0.5435030000000  0.4653530000000  0.5536310000000 1.0
C      1  0.4720970000000  0.4687860000000  0.5136780000000 1.0
C      1  0.4299290000000  0.4856760000000  0.4898600000000 1.0
C      1  0.4866360000000  0.5590120000000  0.5674950000000 1.0
C      1  0.5664060000000  0.5048690000000  0.4613040000000 1.0
C      1  0.5102920000000  0.5412360000000  0.5725350000000 1.0
C      1  0.5284990000000  0.5337350000000  0.4474790000000 1.0
END
