TITL C-883736-9678-137 108.989411859404 125000 -26763.9867603517 0 0 181 (C1) n - 1
REM
REM in /home/nfs/bkarasulu/CARBON/AIRSS/Generating-Clusters/ReaxFF-fromJPCA2015/Units_Real/with-SteepDescent/Only-C1/SD-CG/Try1-3A/FIRE-CG
REM
REM
REM
REM
REM
REM ./C.cell (11c1c37f851c82e70ff6c80c92926a4b)
REM
REM compiler GCC version 9.2.1 20190827 (Red Hat 9.2.1-1)
REM options -cpp -mtune=generic -march=x86-64 -g -O0 -fpre-include=/usr/include/finclude/math-vector-fortran.h
REM seed -1619551681 -1979577598 961080162 -114036368 33868144 -749073108 -1829277964 740645570 192767822 -585613897 1234788759 -1135704049 -355106681 -121777624 -1644310717 -1380287431 1467287211 194796832 -1455367247 -927517769 1947058548 1880511316 2084653625 833744702 -370968648 -1279289944 278753 -578499745 2078279474 -1553147156 -906270419 712906907 291868499
REM
CELL 1.54180   50.00000   50.00000   50.00000   90.00000   90.00000   90.00000
LATT -1
SFAC C  
C      1  0.5254370000000  0.3730940000000  0.5061890000000 1.0
C      1  0.5484870000000  0.4756680000000  0.5869790000000 1.0
C      1  0.4383550000000  0.4525290000000  0.5755670000000 1.0
C      1  0.5393850000000  0.5330290000000  0.4760130000000 1.0
C      1  0.5292530000000  0.4336990000000  0.4963040000000 1.0
C      1  0.4598090000000  0.5004580000000  0.5687830000000 1.0
C      1  0.6001230000000  0.4669280000000  0.4945470000000 1.0
C      1  0.5026080000000  0.5589950000000  0.5454060000000 1.0
C      1  0.5777080000000  0.4763990000000  0.4559280000000 1.0
C      1  0.4847510000000  0.4742900000000  0.4521870000000 1.0
C      1  0.5694090000000  0.5615260000000  0.5489260000000 1.0
C      1  0.5055960000000  0.5428320000000  0.4345490000000 1.0
C      1  0.4490790000000  0.4836870000000  0.5319110000000 1.0
C      1  0.4544130000000  0.5429360000000  0.4656400000000 1.0
C      1  0.5764960000000  0.4306810000000  0.5279270000000 1.0
C      1  0.6064830000000  0.5109030000000  0.4702150000000 1.0
C      1  0.4038210000000  0.4951020000000  0.4688930000000 1.0
C      1  0.5600350000000  0.4149440000000  0.5761120000000 1.0
C      1  0.4846790000000  0.5251680000000  0.4446060000000 1.0
C      1  0.4110630000000  0.4505180000000  0.5298300000000 1.0
C      1  0.5282920000000  0.4862990000000  0.6067110000000 1.0
C      1  0.5954800000000  0.4550360000000  0.4687180000000 1.0
C      1  0.4631950000000  0.4557960000000  0.4137700000000 1.0
C      1  0.5241150000000  0.5549450000000  0.5286150000000 1.0
C      1  0.5705830000000  0.5688850000000  0.5204270000000 1.0
C      1  0.4763070000000  0.4356300000000  0.5100420000000 1.0
C      1  0.5346070000000  0.5053490000000  0.4416500000000 1.0
C      1  0.5480880000000  0.4883940000000  0.5400560000000 1.0
C      1  0.5462900000000  0.4592740000000  0.5015100000000 1.0
C      1  0.5380900000000  0.4803960000000  0.4057690000000 1.0
C      1  0.4403850000000  0.5002970000000  0.5925920000000 1.0
C      1  0.4433240000000  0.5304810000000  0.5471010000000 1.0
C      1  0.5263170000000  0.5256120000000  0.5227520000000 1.0
C      1  0.4373370000000  0.5912280000000  0.4887640000000 1.0
C      1  0.5018880000000  0.5092430000000  0.3903240000000 1.0
C      1  0.4545070000000  0.4006050000000  0.5094290000000 1.0
C      1  0.5389550000000  0.6114930000000  0.4781520000000 1.0
C      1  0.5739220000000  0.4388500000000  0.5570780000000 1.0
C      1  0.4843120000000  0.4352420000000  0.5906320000000 1.0
C      1  0.5341840000000  0.4690050000000  0.5263950000000 1.0
C      1  0.3973680000000  0.5070620000000  0.5285930000000 1.0
C      1  0.3982830000000  0.5349420000000  0.5373490000000 1.0
C      1  0.5984410000000  0.4553530000000  0.5632130000000 1.0
C      1  0.4855030000000  0.4625350000000  0.5967650000000 1.0
C      1  0.5081230000000  0.4389620000000  0.4719420000000 1.0
C      1  0.5243940000000  0.5089550000000  0.5628720000000 1.0
C      1  0.5141440000000  0.5948810000000  0.4930740000000 1.0
C      1  0.4136630000000  0.5794560000000  0.5036660000000 1.0
C      1  0.4908700000000  0.4815970000000  0.5044160000000 1.0
C      1  0.4722560000000  0.5916930000000  0.5505390000000 1.0
C      1  0.4552970000000  0.4212100000000  0.5255970000000 1.0
C      1  0.4144860000000  0.5089980000000  0.5751420000000 1.0
C      1  0.4931820000000  0.4734790000000  0.5519470000000 1.0
C      1  0.5797340000000  0.5351860000000  0.5586240000000 1.0
C      1  0.4398110000000  0.4794130000000  0.5058530000000 1.0
C      1  0.5237680000000  0.5199530000000  0.4963940000000 1.0
C      1  0.5514530000000  0.5104540000000  0.5249320000000 1.0
C      1  0.5420850000000  0.6018840000000  0.4517170000000 1.0
C      1  0.5040180000000  0.4350220000000  0.4095770000000 1.0
C      1  0.5283120000000  0.5608890000000  0.5799670000000 1.0
C      1  0.6017650000000  0.5145800000000  0.5172940000000 1.0
C      1  0.5638550000000  0.5228370000000  0.5800840000000 1.0
C      1  0.4963080000000  0.4548170000000  0.5159650000000 1.0
C      1  0.4143930000000  0.5114760000000  0.4414510000000 1.0
C      1  0.5102260000000  0.4819160000000  0.3984040000000 1.0
C      1  0.5085060000000  0.4991570000000  0.4841260000000 1.0
C      1  0.5964760000000  0.5149480000000  0.5454900000000 1.0
C      1  0.5281110000000  0.5538850000000  0.4023040000000 1.0
C      1  0.5319970000000  0.4329160000000  0.4172390000000 1.0
C      1  0.5154080000000  0.4121600000000  0.5215510000000 1.0
C      1  0.5013200000000  0.5384330000000  0.4008600000000 1.0
C      1  0.5640230000000  0.6008260000000  0.4860280000000 1.0
C      1  0.4690000000000  0.5401300000000  0.5964610000000 1.0
C      1  0.5754010000000  0.5649040000000  0.4424220000000 1.0
C      1  0.5508250000000  0.4161370000000  0.4874540000000 1.0
C      1  0.4348670000000  0.4939710000000  0.4800990000000 1.0
C      1  0.5627450000000  0.5055480000000  0.4984420000000 1.0
C      1  0.5342210000000  0.5304490000000  0.5860440000000 1.0
C      1  0.5028020000000  0.5724610000000  0.5713380000000 1.0
C      1  0.4634100000000  0.5319310000000  0.5246280000000 1.0
C      1  0.5018030000000  0.3904880000000  0.5055010000000 1.0
C      1  0.4601070000000  0.4320640000000  0.5749930000000 1.0
C      1  0.4335450000000  0.5505260000000  0.5671120000000 1.0
C      1  0.4440740000000  0.5458770000000  0.4387870000000 1.0
C      1  0.4220030000000  0.4213820000000  0.4634600000000 1.0
C      1  0.4031760000000  0.5669360000000  0.4813790000000 1.0
C      1  0.4639910000000  0.5153010000000  0.6104490000000 1.0
C      1  0.4402360000000  0.4672020000000  0.4680600000000 1.0
C      1  0.4714070000000  0.3915660000000  0.4916210000000 1.0
C      1  0.4643740000000  0.3994860000000  0.4710070000000 1.0
C      1  0.4718940000000  0.5001850000000  0.4483140000000 1.0
C      1  0.4523680000000  0.5620940000000  0.5858310000000 1.0
C      1  0.5299250000000  0.5319770000000  0.4483400000000 1.0
C      1  0.6082760000000  0.4947990000000  0.4950700000000 1.0
C      1  0.5815540000000  0.5288450000000  0.4999430000000 1.0
C      1  0.5290300000000  0.5712770000000  0.4857170000000 1.0
C      1  0.4081970000000  0.4927230000000  0.5533360000000 1.0
C      1  0.5295450000000  0.4855530000000  0.4626490000000 1.0
C      1  0.5694770000000  0.4950560000000  0.5808660000000 1.0
C      1  0.5051580000000  0.4211810000000  0.5754820000000 1.0
C      1  0.4758530000000  0.5250230000000  0.5722640000000 1.0
C      1  0.4753650000000  0.5050960000000  0.3935990000000 1.0
C      1  0.5418760000000  0.5765930000000  0.5226990000000 1.0
C      1  0.5096270000000  0.5988940000000  0.5239700000000 1.0
C      1  0.4234110000000  0.4263060000000  0.5201640000000 1.0
C      1  0.5448700000000  0.4530910000000  0.5684940000000 1.0
C      1  0.4705210000000  0.5164240000000  0.5002690000000 1.0
C      1  0.5346620000000  0.4156470000000  0.4409120000000 1.0
C      1  0.4833810000000  0.5889650000000  0.4789720000000 1.0
C      1  0.4565290000000  0.5131700000000  0.4737750000000 1.0
C      1  0.4071450000000  0.4431440000000  0.4487630000000 1.0
C      1  0.5314550000000  0.5946810000000  0.5430720000000 1.0
C      1  0.4361310000000  0.4696910000000  0.5983280000000 1.0
C      1  0.5985290000000  0.5382600000000  0.4776010000000 1.0
C      1  0.4977780000000  0.4149480000000  0.5493210000000 1.0
C      1  0.5511230000000  0.5374900000000  0.4060920000000 1.0
C      1  0.5054130000000  0.5130110000000  0.5407700000000 1.0
C      1  0.5487820000000  0.4564580000000  0.4166180000000 1.0
C      1  0.4880830000000  0.4191480000000  0.4289570000000 1.0
C      1  0.5916300000000  0.5005940000000  0.4479080000000 1.0
C      1  0.5581080000000  0.4171010000000  0.4592090000000 1.0
C      1  0.5548940000000  0.4821590000000  0.4816520000000 1.0
C      1  0.4635170000000  0.5986240000000  0.4989220000000 1.0
C      1  0.4186590000000  0.4268900000000  0.4917770000000 1.0
C      1  0.5905290000000  0.4871120000000  0.5595480000000 1.0
C      1  0.5828650000000  0.5811890000000  0.4929610000000 1.0
C      1  0.4553030000000  0.5644710000000  0.4188190000000 1.0
C      1  0.5785960000000  0.4577970000000  0.5153710000000 1.0
C      1  0.5795170000000  0.4358040000000  0.4530450000000 1.0
C      1  0.4869070000000  0.5345760000000  0.5471570000000 1.0
C      1  0.5638030000000  0.4092050000000  0.5137000000000 1.0
C      1  0.5281420000000  0.5783490000000  0.4194030000000 1.0
C      1  0.4114750000000  0.5659590000000  0.4548570000000 1.0
C      1  0.5779140000000  0.5138380000000  0.4273560000000 1.0
C      1  0.4891040000000  0.5372810000000  0.4911910000000 1.0
C      1  0.4673070000000  0.4595630000000  0.4680960000000 1.0
C      1  0.4732620000000  0.5588040000000  0.4794070000000 1.0
C      1  0.4401170000000  0.4746530000000  0.4186730000000 1.0
C      1  0.4406260000000  0.5492890000000  0.5256770000000 1.0
C      1  0.4075440000000  0.5360280000000  0.5657910000000 1.0
C      1  0.5737430000000  0.4792370000000  0.5362940000000 1.0
C      1  0.4608700000000  0.4299160000000  0.4296390000000 1.0
C      1  0.4152910000000  0.5397440000000  0.4381890000000 1.0
C      1  0.4799190000000  0.4888170000000  0.5310140000000 1.0
C      1  0.3989650000000  0.4669730000000  0.5082390000000 1.0
C      1  0.5110920000000  0.4644490000000  0.4569180000000 1.0
C      1  0.5507450000000  0.5052540000000  0.4173630000000 1.0
C      1  0.4701400000000  0.4185930000000  0.5518550000000 1.0
C      1  0.5887680000000  0.5640090000000  0.4679370000000 1.0
C      1  0.5009800000000  0.4772870000000  0.6143170000000 1.0
C      1  0.4539000000000  0.5198140000000  0.4030410000000 1.0
C      1  0.4904910000000  0.4596430000000  0.4029570000000 1.0
C      1  0.4802720000000  0.4395590000000  0.4823290000000 1.0
C      1  0.3951290000000  0.4943340000000  0.5024790000000 1.0
C      1  0.5134430000000  0.4554380000000  0.5413000000000 1.0
C      1  0.4697600000000  0.5447490000000  0.4031650000000 1.0
C      1  0.4240910000000  0.4570840000000  0.4914750000000 1.0
C      1  0.5514730000000  0.5558550000000  0.4897410000000 1.0
C      1  0.4787430000000  0.4775330000000  0.5743110000000 1.0
C      1  0.3958300000000  0.4685760000000  0.4589540000000 1.0
C      1  0.4835520000000  0.5904360000000  0.4479800000000 1.0
C      1  0.4563470000000  0.5856800000000  0.4396040000000 1.0
C      1  0.4266290000000  0.4682150000000  0.5493890000000 1.0
C      1  0.5396500000000  0.3949070000000  0.5236010000000 1.0
C      1  0.5039830000000  0.5743090000000  0.4352120000000 1.0
C      1  0.5739590000000  0.5424370000000  0.4232640000000 1.0
C      1  0.4315340000000  0.4568750000000  0.4400910000000 1.0
C      1  0.4791110000000  0.6005710000000  0.5253120000000 1.0
C      1  0.4963980000000  0.5217290000000  0.4689900000000 1.0
C      1  0.4333420000000  0.5032990000000  0.4214010000000 1.0
C      1  0.5075990000000  0.4164740000000  0.4503440000000 1.0
C      1  0.5540730000000  0.5847580000000  0.4341630000000 1.0
C      1  0.4342390000000  0.5846120000000  0.4595000000000 1.0
C      1  0.4486870000000  0.4146930000000  0.4530120000000 1.0
C      1  0.5706530000000  0.4566190000000  0.4354670000000 1.0
C      1  0.4130850000000  0.5536910000000  0.5194650000000 1.0
C      1  0.4734550000000  0.5807560000000  0.5758230000000 1.0
C      1  0.5457560000000  0.5745430000000  0.5619030000000 1.0
C      1  0.4913050000000  0.5056660000000  0.6149850000000 1.0
C      1  0.5196110000000  0.5138060000000  0.6080850000000 1.0
C      1  0.5348820000000  0.4283670000000  0.5809500000000 1.0
END
