TITL C-884133-6611-237 -10.2201081865908 125000 -8321.13656052664 0 0 57 (C1) n - 1
REM
REM in /home/nfs/bkarasulu/CARBON/AIRSS/Generating-Clusters/ReaxFF-fromJPCA2015/Units_Real/with-SteepDescent/Only-C1/SD-CG/Try1-3A/FIRE-CG
REM
REM
REM
REM
REM
REM ./C.cell (11c1c37f851c82e70ff6c80c92926a4b)
REM
REM compiler GCC version 9.2.1 20190827 (Red Hat 9.2.1-1)
REM options -cpp -mtune=generic -march=x86-64 -g -O0 -fpre-include=/usr/include/finclude/math-vector-fortran.h
REM seed -1743392100 895430302 285479225 622363223 -2087144474 2050990417 657277769 1279272412 -1855814512 -1480039603 642390376 -704119385 1830855507 1393464358 -1390201258 688491592 -164598780 1901603051 1483215507 -262737691 670550430 1743966810 593240264 -352940482 1256296311 947873404 -2145847451 -876031520 1828096334 226925393 765928423 -1034838205 1857968782
REM
CELL 1.54180   50.00000   50.00000   50.00000   90.00000   90.00000   90.00000
LATT -1
SFAC C  
C      1  0.4314620000000  0.4678500000000  0.5329440000000 1.0
C      1  0.4811940000000  0.5050150000000  0.4875210000000 1.0
C      1  0.5672270000000  0.4594120000000  0.5236220000000 1.0
C      1  0.4390880000000  0.5195530000000  0.4803700000000 1.0
C      1  0.5082090000000  0.5436620000000  0.5418380000000 1.0
C      1  0.5149490000000  0.5329350000000  0.4537950000000 1.0
C      1  0.4708790000000  0.5170640000000  0.4418210000000 1.0
C      1  0.4798230000000  0.5523250000000  0.5411120000000 1.0
C      1  0.4738530000000  0.5608460000000  0.4789630000000 1.0
C      1  0.5090610000000  0.4703990000000  0.4372980000000 1.0
C      1  0.4438830000000  0.4476660000000  0.5167900000000 1.0
C      1  0.4615950000000  0.5335390000000  0.4944740000000 1.0
C      1  0.5500090000000  0.5114440000000  0.4878180000000 1.0
C      1  0.4759760000000  0.5465370000000  0.4301620000000 1.0
C      1  0.5651490000000  0.4971740000000  0.5415890000000 1.0
C      1  0.5142490000000  0.5823850000000  0.4833650000000 1.0
C      1  0.4924750000000  0.5131950000000  0.4600910000000 1.0
C      1  0.5354150000000  0.5116600000000  0.4600890000000 1.0
C      1  0.4607910000000  0.5353410000000  0.5246490000000 1.0
C      1  0.4540290000000  0.4543850000000  0.5417990000000 1.0
C      1  0.4656290000000  0.5659650000000  0.4501630000000 1.0
C      1  0.5366900000000  0.4404860000000  0.4831520000000 1.0
C      1  0.5824760000000  0.4882200000000  0.5190100000000 1.0
C      1  0.4624450000000  0.4519110000000  0.4943830000000 1.0
C      1  0.4572800000000  0.4778900000000  0.4539120000000 1.0
C      1  0.4851170000000  0.5839270000000  0.4972590000000 1.0
C      1  0.5816990000000  0.5021310000000  0.4947370000000 1.0
C      1  0.4808890000000  0.4629560000000  0.5407290000000 1.0
C      1  0.5567820000000  0.5414530000000  0.5283760000000 1.0
C      1  0.5440820000000  0.4781270000000  0.5308830000000 1.0
C      1  0.4573550000000  0.5093520000000  0.5364070000000 1.0
C      1  0.5380370000000  0.4703790000000  0.4778360000000 1.0
C      1  0.5081010000000  0.4358420000000  0.4762650000000 1.0
C      1  0.4834320000000  0.5718450000000  0.5220240000000 1.0
C      1  0.4849520000000  0.4936890000000  0.5378490000000 1.0
C      1  0.4221590000000  0.5068010000000  0.5004510000000 1.0
C      1  0.5231870000000  0.5240000000000  0.5577760000000 1.0
C      1  0.5140450000000  0.4500360000000  0.5610930000000 1.0
C      1  0.4470620000000  0.5057350000000  0.4539460000000 1.0
C      1  0.4997090000000  0.4452340000000  0.4495020000000 1.0
C      1  0.5100210000000  0.4251330000000  0.5471150000000 1.0
C      1  0.5538530000000  0.4438370000000  0.5051280000000 1.0
C      1  0.5057940000000  0.5566980000000  0.4742490000000 1.0
C      1  0.4970150000000  0.5062600000000  0.5121530000000 1.0
C      1  0.4634530000000  0.4782500000000  0.4821320000000 1.0
C      1  0.5127290000000  0.5303980000000  0.5154400000000 1.0
C      1  0.5085050000000  0.4995690000000  0.5584110000000 1.0
C      1  0.5388040000000  0.4871400000000  0.5007340000000 1.0
C      1  0.5405690000000  0.5350640000000  0.5064500000000 1.0
C      1  0.4331700000000  0.4966050000000  0.5269940000000 1.0
C      1  0.4954560000000  0.4429860000000  0.5251620000000 1.0
C      1  0.5245990000000  0.4760750000000  0.5566640000000 1.0
C      1  0.5528170000000  0.5229380000000  0.5495180000000 1.0
C      1  0.5039870000000  0.5435510000000  0.4244730000000 1.0
C      1  0.4804920000000  0.4649060000000  0.4393480000000 1.0
C      1  0.4883300000000  0.4374630000000  0.4973770000000 1.0
C      1  0.5299630000000  0.4847610000000  0.4527890000000 1.0
END
