TITL C-884134-5972-246 16.4228419876967 125000 -15218.0506597765 0 0 102 (C1) n - 1
REM
REM in /home/nfs/bkarasulu/CARBON/AIRSS/Generating-Clusters/ReaxFF-fromJPCA2015/Units_Real/with-SteepDescent/Only-C1/SD-CG/Try1-3A/FIRE-CG
REM
REM
REM
REM
REM
REM ./C.cell (11c1c37f851c82e70ff6c80c92926a4b)
REM
REM compiler GCC version 9.2.1 20190827 (Red Hat 9.2.1-1)
REM options -cpp -mtune=generic -march=x86-64 -g -O0 -fpre-include=/usr/include/finclude/math-vector-fortran.h
REM seed 1513179701 -1456561848 -1428676897 631944755 -1903644703 276533376 1405593568 -1757157262 175994150 -1104581391 1342424644 -1985268513 -409229217 -274646063 -1364925781 -1615766085 1220620105 -574693126 -1997422674 1047478246 72052645 -606371342 -75886338 -1832932902 302115743 -365649359 681512177 1983508632 1046714501 481490796 1576028157 -381040094 -1213343344
REM
CELL 1.54180   50.00000   50.00000   50.00000   90.00000   90.00000   90.00000
LATT -1
SFAC C  
C      1  0.4461220000000  0.4624460000000  0.4719310000000 1.0
C      1  0.4237550000000  0.4960670000000  0.4495420000000 1.0
C      1  0.4658660000000  0.5012500000000  0.4156730000000 1.0
C      1  0.4985950000000  0.4209500000000  0.4491920000000 1.0
C      1  0.4355360000000  0.5378800000000  0.5477390000000 1.0
C      1  0.4631290000000  0.5186840000000  0.5792790000000 1.0
C      1  0.5161990000000  0.5292910000000  0.4231840000000 1.0
C      1  0.4962170000000  0.5114500000000  0.4114970000000 1.0
C      1  0.5882560000000  0.5188500000000  0.4823310000000 1.0
C      1  0.4807250000000  0.4272090000000  0.5180070000000 1.0
C      1  0.4829180000000  0.5582550000000  0.5739040000000 1.0
C      1  0.4360780000000  0.4465160000000  0.5283950000000 1.0
C      1  0.5749010000000  0.4853250000000  0.5487590000000 1.0
C      1  0.5160830000000  0.5404040000000  0.4644040000000 1.0
C      1  0.5338850000000  0.5478880000000  0.5665160000000 1.0
C      1  0.5462790000000  0.4706090000000  0.5101610000000 1.0
C      1  0.5471420000000  0.5840920000000  0.5149280000000 1.0
C      1  0.5591070000000  0.4927060000000  0.4986180000000 1.0
C      1  0.4242580000000  0.4766650000000  0.4871210000000 1.0
C      1  0.4527780000000  0.4298080000000  0.5094310000000 1.0
C      1  0.5456320000000  0.5742110000000  0.4890790000000 1.0
C      1  0.4984910000000  0.5867640000000  0.4624070000000 1.0
C      1  0.5439750000000  0.4294230000000  0.4774870000000 1.0
C      1  0.4613800000000  0.4721960000000  0.5645290000000 1.0
C      1  0.4602790000000  0.4755250000000  0.4031570000000 1.0
C      1  0.4919990000000  0.4554690000000  0.5215130000000 1.0
C      1  0.4846680000000  0.5172860000000  0.5039120000000 1.0
C      1  0.4757390000000  0.5874660000000  0.5055120000000 1.0
C      1  0.5505230000000  0.4845210000000  0.4277610000000 1.0
C      1  0.5274430000000  0.5262160000000  0.5150710000000 1.0
C      1  0.4364230000000  0.5297710000000  0.4763970000000 1.0
C      1  0.5798490000000  0.4680150000000  0.4635590000000 1.0
C      1  0.5409000000000  0.5727950000000  0.5547630000000 1.0
C      1  0.4259910000000  0.5109360000000  0.5541140000000 1.0
C      1  0.5175880000000  0.4581360000000  0.4474950000000 1.0
C      1  0.5555820000000  0.5316940000000  0.5530380000000 1.0
C      1  0.4732140000000  0.5452610000000  0.4510830000000 1.0
C      1  0.5535260000000  0.5013600000000  0.5582690000000 1.0
C      1  0.4649430000000  0.4871200000000  0.4748680000000 1.0
C      1  0.5157170000000  0.5671930000000  0.4812340000000 1.0
C      1  0.5465930000000  0.5894810000000  0.5389680000000 1.0
C      1  0.4563490000000  0.4340130000000  0.4812710000000 1.0
C      1  0.4727920000000  0.5735470000000  0.4625500000000 1.0
C      1  0.5693170000000  0.4605450000000  0.5297750000000 1.0
C      1  0.4267300000000  0.5419670000000  0.5196370000000 1.0
C      1  0.4806300000000  0.4683130000000  0.5901680000000 1.0
C      1  0.4139780000000  0.4987570000000  0.5302950000000 1.0
C      1  0.4282030000000  0.4675150000000  0.4455410000000 1.0
C      1  0.5262950000000  0.4314070000000  0.4545210000000 1.0
C      1  0.5720810000000  0.4887840000000  0.4435210000000 1.0
C      1  0.4463650000000  0.5348010000000  0.4489960000000 1.0
C      1  0.5265920000000  0.4586590000000  0.5607820000000 1.0
C      1  0.4610050000000  0.5052810000000  0.4960320000000 1.0
C      1  0.5822700000000  0.5401910000000  0.5004570000000 1.0
C      1  0.4385080000000  0.5530720000000  0.4944220000000 1.0
C      1  0.5041430000000  0.4630870000000  0.4942580000000 1.0
C      1  0.5688740000000  0.4462660000000  0.4801500000000 1.0
C      1  0.4752010000000  0.4475590000000  0.4035330000000 1.0
C      1  0.4973350000000  0.5670630000000  0.5062480000000 1.0
C      1  0.4583060000000  0.4907500000000  0.5194170000000 1.0
C      1  0.4781560000000  0.4807920000000  0.5382610000000 1.0
C      1  0.4896610000000  0.5419810000000  0.5192110000000 1.0
C      1  0.5723550000000  0.5337410000000  0.5285300000000 1.0
C      1  0.5069190000000  0.5415840000000  0.5774980000000 1.0
C      1  0.5268630000000  0.4165510000000  0.4983580000000 1.0
C      1  0.4776260000000  0.5783730000000  0.5558650000000 1.0
C      1  0.5163560000000  0.4918000000000  0.4079730000000 1.0
C      1  0.5017650000000  0.4714990000000  0.4669060000000 1.0
C      1  0.5662540000000  0.5551920000000  0.4802180000000 1.0
C      1  0.4966680000000  0.4888630000000  0.5998430000000 1.0
C      1  0.4877490000000  0.4953760000000  0.4601810000000 1.0
C      1  0.4457200000000  0.4976360000000  0.5712350000000 1.0
C      1  0.5265490000000  0.4869900000000  0.5581670000000 1.0
C      1  0.5860730000000  0.4837080000000  0.4888030000000 1.0
C      1  0.4865490000000  0.4320090000000  0.4250540000000 1.0
C      1  0.5015690000000  0.5010630000000  0.5502890000000 1.0
C      1  0.5080420000000  0.5273270000000  0.5361480000000 1.0
C      1  0.4427410000000  0.4657690000000  0.4216010000000 1.0
C      1  0.5341690000000  0.5415120000000  0.4419070000000 1.0
C      1  0.5118210000000  0.5074870000000  0.5004410000000 1.0
C      1  0.4442510000000  0.5106060000000  0.4329530000000 1.0
C      1  0.4757850000000  0.5892440000000  0.5333070000000 1.0
C      1  0.4966810000000  0.4147460000000  0.4969520000000 1.0
C      1  0.4806210000000  0.4203610000000  0.4733180000000 1.0
C      1  0.4134700000000  0.5182530000000  0.5099270000000 1.0
C      1  0.5514140000000  0.4429080000000  0.5714880000000 1.0
C      1  0.4430240000000  0.4475090000000  0.5557290000000 1.0
C      1  0.5692390000000  0.4354810000000  0.5501810000000 1.0
C      1  0.5217130000000  0.4805680000000  0.5051030000000 1.0
C      1  0.5844340000000  0.4567140000000  0.5030830000000 1.0
C      1  0.5283080000000  0.4691500000000  0.4208390000000 1.0
C      1  0.5297980000000  0.4211310000000  0.5275420000000 1.0
C      1  0.4920000000000  0.5248880000000  0.4595010000000 1.0
C      1  0.4170140000000  0.5040700000000  0.4782270000000 1.0
C      1  0.4937270000000  0.5149230000000  0.5799560000000 1.0
C      1  0.4558180000000  0.5752740000000  0.4874130000000 1.0
C      1  0.5624850000000  0.5407090000000  0.4548130000000 1.0
C      1  0.5131620000000  0.4426090000000  0.5405220000000 1.0
C      1  0.4310230000000  0.4761640000000  0.5168220000000 1.0
C      1  0.5539220000000  0.5150620000000  0.5159790000000 1.0
C      1  0.4564980000000  0.5442420000000  0.5676810000000 1.0
C      1  0.5787470000000  0.5173730000000  0.4557730000000 1.0
END
