TITL C-883740-3686-24 696762.487199371 125000 -20672.8191603201 0 0 139 (C1) n - 1
REM
REM in /home/nfs/bkarasulu/CARBON/AIRSS/Generating-Clusters/ReaxFF-fromJPCA2015/Units_Real/with-SteepDescent/Only-C1/SD-CG/Try1-3A/FIRE-CG
REM
REM
REM
REM
REM
REM ./C.cell (11c1c37f851c82e70ff6c80c92926a4b)
REM
REM compiler GCC version 9.2.1 20190827 (Red Hat 9.2.1-1)
REM options -cpp -mtune=generic -march=x86-64 -g -O0 -fpre-include=/usr/include/finclude/math-vector-fortran.h
REM seed -1362145526 -236739086 1548668124 -319013758 1519850576 1649645745 -548681421 -1708876178 -2049211206 -964599312 1888640051 -1091454490 1969117302 -922416570 807097035 159338914 1193439251 -1843189719 88355750 501108935 -755224622 -516976859 2127043302 -2101095465 -402239643 -1632540551 2015397905 1926150960 895320220 -246602194 -926986611 -912628144 -1424216029
REM
CELL 1.54180   50.00000   50.00000   50.00000   90.00000   90.00000   90.00000
LATT -1
SFAC C  
C      1  0.5229610000000  0.5909710000000  0.5285270000000 1.0
C      1  0.5016000000000  0.5528630000000  0.5795370000000 1.0
C      1  0.4959740000000  0.5079610000000  0.4048620000000 1.0
C      1  0.4492670000000  0.4665490000000  0.4602310000000 1.0
C      1  0.5186550000000  0.4117410000000  0.4938020000000 1.0
C      1  0.4356030000000  0.5487010000000  0.5510660000000 1.0
C      1  0.5688250000000  0.4378800000000  0.4858310000000 1.0
C      1  0.5609630000000  0.5183600000000  0.5753520000000 1.0
C      1  0.5837420000000  0.4836420000000  0.4605470000000 1.0
C      1  0.4751200000000  0.5227340000000  0.4783050000000 1.0
C      1  0.4758300000000  0.5136510000000  0.5049000000000 1.0
C      1  0.5667850000000  0.5551400000000  0.4591280000000 1.0
C      1  0.4466330000000  0.5026260000000  0.5496120000000 1.0
C      1  0.4690270000000  0.5074460000000  0.5908720000000 1.0
C      1  0.5607730000000  0.4411250000000  0.5612360000000 1.0
C      1  0.5299960000000  0.4690780000000  0.4173050000000 1.0
C      1  0.4154450000000  0.5296920000000  0.5405430000000 1.0
C      1  0.4325320000000  0.5731240000000  0.4607800000000 1.0
C      1  0.4931340000000  0.4891100000000  0.5947620000000 1.0
C      1  0.4564490000000  0.5451460000000  0.4761720000000 1.0
C      1  0.4201600000000  0.4259400000000  0.5027990000000 1.0
C      1  0.4820710000000  0.4697500000000  0.4536000000000 1.0
C      1  0.5343220000000  0.4846760000000  0.4418490000000 1.0
C      1  0.5488450000000  0.5419070000000  0.4773400000000 1.0
C      1  0.4953180000000  0.5921860000000  0.5246010000000 1.0
C      1  0.4039450000000  0.4664900000000  0.4976060000000 1.0
C      1  0.4892770000000  0.5804850000000  0.5014000000000 1.0
C      1  0.5077100000000  0.4620350000000  0.4757910000000 1.0
C      1  0.4437710000000  0.4964940000000  0.5783370000000 1.0
C      1  0.4299600000000  0.4707880000000  0.5726950000000 1.0
C      1  0.4137800000000  0.4415740000000  0.4818450000000 1.0
C      1  0.5892710000000  0.5089820000000  0.5349040000000 1.0
C      1  0.5691200000000  0.4932140000000  0.5782800000000 1.0
C      1  0.5521840000000  0.4592870000000  0.5148390000000 1.0
C      1  0.4430310000000  0.5952720000000  0.5110640000000 1.0
C      1  0.5264640000000  0.5887890000000  0.4749590000000 1.0
C      1  0.4772370000000  0.5789170000000  0.5404280000000 1.0
C      1  0.4939220000000  0.5230290000000  0.5453640000000 1.0
C      1  0.4540630000000  0.5407750000000  0.5701970000000 1.0
C      1  0.4609390000000  0.4184950000000  0.4752590000000 1.0
C      1  0.4833060000000  0.4087590000000  0.5526960000000 1.0
C      1  0.4514050000000  0.4964940000000  0.4193280000000 1.0
C      1  0.5938240000000  0.5368550000000  0.4959570000000 1.0
C      1  0.5628350000000  0.5734030000000  0.5066720000000 1.0
C      1  0.5316030000000  0.5803470000000  0.4349900000000 1.0
C      1  0.4998450000000  0.4621820000000  0.5902810000000 1.0
C      1  0.4472870000000  0.4784140000000  0.4883050000000 1.0
C      1  0.5293600000000  0.4108770000000  0.5415370000000 1.0
C      1  0.5432470000000  0.4813470000000  0.5866870000000 1.0
C      1  0.5381280000000  0.5120570000000  0.4430130000000 1.0
C      1  0.4637320000000  0.4127920000000  0.5066420000000 1.0
C      1  0.4942430000000  0.5758910000000  0.5639050000000 1.0
C      1  0.4299330000000  0.4998590000000  0.4978650000000 1.0
C      1  0.5249680000000  0.4549370000000  0.5195530000000 1.0
C      1  0.4360600000000  0.4138750000000  0.5215710000000 1.0
C      1  0.5304980000000  0.4973750000000  0.5378430000000 1.0
C      1  0.5690210000000  0.4360750000000  0.5137200000000 1.0
C      1  0.4532900000000  0.5211290000000  0.4595570000000 1.0
C      1  0.5964550000000  0.5089190000000  0.5069140000000 1.0
C      1  0.5062750000000  0.4858440000000  0.4903940000000 1.0
C      1  0.4872460000000  0.4527870000000  0.4286380000000 1.0
C      1  0.4865750000000  0.4883150000000  0.5082730000000 1.0
C      1  0.5309580000000  0.5224890000000  0.4692560000000 1.0
C      1  0.5097700000000  0.4168710000000  0.5617490000000 1.0
C      1  0.4786420000000  0.4894580000000  0.4049020000000 1.0
C      1  0.4673790000000  0.4683880000000  0.5059170000000 1.0
C      1  0.5895620000000  0.5106840000000  0.4505950000000 1.0
C      1  0.5021480000000  0.5408560000000  0.4695180000000 1.0
C      1  0.4640130000000  0.5479590000000  0.4164720000000 1.0
C      1  0.4089160000000  0.5270990000000  0.4580480000000 1.0
C      1  0.4994920000000  0.5892980000000  0.4590790000000 1.0
C      1  0.5341310000000  0.4655160000000  0.4645510000000 1.0
C      1  0.5713420000000  0.4574950000000  0.4492550000000 1.0
C      1  0.5002530000000  0.4685130000000  0.4080370000000 1.0
C      1  0.4243140000000  0.5001810000000  0.5286540000000 1.0
C      1  0.4117600000000  0.4989890000000  0.4536330000000 1.0
C      1  0.5183030000000  0.5140340000000  0.5585400000000 1.0
C      1  0.4121630000000  0.4717970000000  0.5253390000000 1.0
C      1  0.5441720000000  0.5045000000000  0.5137450000000 1.0
C      1  0.5474190000000  0.4483900000000  0.4270800000000 1.0
C      1  0.5745200000000  0.5361220000000  0.5387630000000 1.0
C      1  0.4065200000000  0.5465860000000  0.5200850000000 1.0
C      1  0.4972400000000  0.4267660000000  0.4355950000000 1.0
C      1  0.4696730000000  0.5904670000000  0.4632830000000 1.0
C      1  0.5289060000000  0.4257290000000  0.4329570000000 1.0
C      1  0.4401520000000  0.4373040000000  0.4678470000000 1.0
C      1  0.5056140000000  0.5308480000000  0.4142500000000 1.0
C      1  0.5224640000000  0.5803770000000  0.5559320000000 1.0
C      1  0.5565390000000  0.4478990000000  0.4668260000000 1.0
C      1  0.5084250000000  0.4404520000000  0.4996680000000 1.0
C      1  0.4105780000000  0.5559040000000  0.4653930000000 1.0
C      1  0.5192100000000  0.4988980000000  0.5839870000000 1.0
C      1  0.5562780000000  0.5427270000000  0.5671390000000 1.0
C      1  0.4840480000000  0.4128160000000  0.4582350000000 1.0
C      1  0.5145350000000  0.4392630000000  0.5824720000000 1.0
C      1  0.4758390000000  0.4998050000000  0.5477330000000 1.0
C      1  0.5285890000000  0.4076800000000  0.4543100000000 1.0
C      1  0.4905070000000  0.5341920000000  0.5182050000000 1.0
C      1  0.4884130000000  0.4739060000000  0.5475660000000 1.0
C      1  0.5840280000000  0.4853980000000  0.5519350000000 1.0
C      1  0.5783940000000  0.5173850000000  0.4256580000000 1.0
C      1  0.5040460000000  0.5801870000000  0.4315900000000 1.0
C      1  0.4762090000000  0.5354220000000  0.5856910000000 1.0
C      1  0.5129780000000  0.3991760000000  0.5195330000000 1.0
C      1  0.4863730000000  0.4984630000000  0.4499490000000 1.0
C      1  0.5640850000000  0.4833660000000  0.5077220000000 1.0
C      1  0.4350870000000  0.4287990000000  0.5468880000000 1.0
C      1  0.4349130000000  0.4847890000000  0.4397380000000 1.0
C      1  0.5487840000000  0.5802930000000  0.4569840000000 1.0
C      1  0.4844560000000  0.3998910000000  0.5249590000000 1.0
C      1  0.4620790000000  0.4291040000000  0.5578000000000 1.0
C      1  0.4777080000000  0.4418310000000  0.5126560000000 1.0
C      1  0.5342880000000  0.5272640000000  0.4201400000000 1.0
C      1  0.5496330000000  0.5301400000000  0.5232820000000 1.0
C      1  0.5862940000000  0.4866530000000  0.4892770000000 1.0
C      1  0.4060290000000  0.4922660000000  0.4824020000000 1.0
C      1  0.5301720000000  0.5560010000000  0.5706440000000 1.0
C      1  0.5451050000000  0.5498540000000  0.5036790000000 1.0
C      1  0.4212000000000  0.4554080000000  0.5486360000000 1.0
C      1  0.5591310000000  0.5242240000000  0.4110760000000 1.0
C      1  0.4649900000000  0.5960680000000  0.4919710000000 1.0
C      1  0.5879770000000  0.5369790000000  0.4673280000000 1.0
C      1  0.4150360000000  0.5596550000000  0.4967060000000 1.0
C      1  0.4430760000000  0.5546340000000  0.5038900000000 1.0
C      1  0.4584090000000  0.5666130000000  0.4560850000000 1.0
C      1  0.5378870000000  0.5895670000000  0.5031610000000 1.0
C      1  0.5402760000000  0.4527750000000  0.5811870000000 1.0
C      1  0.5558360000000  0.4237670000000  0.5384220000000 1.0
C      1  0.4511060000000  0.5234360000000  0.4303970000000 1.0
C      1  0.4905830000000  0.5575750000000  0.4143870000000 1.0
C      1  0.5074520000000  0.3981970000000  0.4703020000000 1.0
C      1  0.4508460000000  0.5685910000000  0.5296280000000 1.0
C      1  0.4973640000000  0.5529300000000  0.4965690000000 1.0
C      1  0.5134640000000  0.4755740000000  0.5339010000000 1.0
C      1  0.5834210000000  0.5552150000000  0.5163300000000 1.0
C      1  0.4949310000000  0.5250180000000  0.4448430000000 1.0
C      1  0.5269920000000  0.5044590000000  0.4908450000000 1.0
C      1  0.5766680000000  0.4586490000000  0.5466730000000 1.0
C      1  0.4760690000000  0.4489660000000  0.5416520000000 1.0
END
