TITL C-883736-9678-446 25.653644777704 125000 -20436.2698932838 0 0 138 (C1) n - 1
REM
REM in /home/nfs/bkarasulu/CARBON/AIRSS/Generating-Clusters/ReaxFF-fromJPCA2015/Units_Real/with-SteepDescent/Only-C1/SD-CG/Try1-3A/FIRE-CG
REM
REM
REM
REM
REM
REM ./C.cell (11c1c37f851c82e70ff6c80c92926a4b)
REM
REM compiler GCC version 9.2.1 20190827 (Red Hat 9.2.1-1)
REM options -cpp -mtune=generic -march=x86-64 -g -O0 -fpre-include=/usr/include/finclude/math-vector-fortran.h
REM seed 1329318921 2122382307 -1234317309 1584473908 -831869420 -1497927085 273493273 -859119542 495730468 -1627402094 52714679 -1143045578 -922828551 -1488811823 859053888 -557535693 1039411713 2128695434 610052850 530410917 -1243100591 1573880221 1273592901 -1731181928 -904479252 592438612 -1719375493 -1218209163 2066356220 1947719229 1690340247 -1920180836 1104643331
REM
CELL 1.54180   50.00000   50.00000   50.00000   90.00000   90.00000   90.00000
LATT -1
SFAC C  
C      1  0.5263780000000  0.5862640000000  0.5382560000000 1.0
C      1  0.5377860000000  0.4131500000000  0.4929210000000 1.0
C      1  0.5423650000000  0.5302520000000  0.5086050000000 1.0
C      1  0.5737540000000  0.4950890000000  0.4442900000000 1.0
C      1  0.4754520000000  0.5103440000000  0.5485200000000 1.0
C      1  0.4631100000000  0.5547450000000  0.4940490000000 1.0
C      1  0.4882890000000  0.5246260000000  0.4449720000000 1.0
C      1  0.5069120000000  0.5441580000000  0.3895920000000 1.0
C      1  0.4717150000000  0.4735880000000  0.5751040000000 1.0
C      1  0.5955020000000  0.4627060000000  0.4813700000000 1.0
C      1  0.4749290000000  0.4056130000000  0.5013230000000 1.0
C      1  0.4388060000000  0.5230400000000  0.5385180000000 1.0
C      1  0.5734400000000  0.5022000000000  0.5826400000000 1.0
C      1  0.5079840000000  0.4642520000000  0.6009410000000 1.0
C      1  0.4248090000000  0.5690380000000  0.5293110000000 1.0
C      1  0.5682710000000  0.5271160000000  0.4741690000000 1.0
C      1  0.5450190000000  0.4869450000000  0.4885150000000 1.0
C      1  0.5027270000000  0.4963470000000  0.3944030000000 1.0
C      1  0.4809700000000  0.4859940000000  0.4105420000000 1.0
C      1  0.4170390000000  0.4093080000000  0.5019900000000 1.0
C      1  0.4237910000000  0.5688140000000  0.5021290000000 1.0
C      1  0.4359700000000  0.4424880000000  0.5399200000000 1.0
C      1  0.4701940000000  0.5773750000000  0.5112620000000 1.0
C      1  0.5278480000000  0.4135450000000  0.4650650000000 1.0
C      1  0.4427060000000  0.5104570000000  0.4264240000000 1.0
C      1  0.5168110000000  0.5566770000000  0.4388100000000 1.0
C      1  0.4902570000000  0.4407740000000  0.5948990000000 1.0
C      1  0.4992660000000  0.5393230000000  0.5353280000000 1.0
C      1  0.4858950000000  0.5985760000000  0.4942250000000 1.0
C      1  0.5613920000000  0.4394100000000  0.5290550000000 1.0
C      1  0.5987740000000  0.4873940000000  0.4964820000000 1.0
C      1  0.6056170000000  0.5161640000000  0.5023200000000 1.0
C      1  0.4166780000000  0.4353440000000  0.5171190000000 1.0
C      1  0.5424740000000  0.5166820000000  0.4829290000000 1.0
C      1  0.4971220000000  0.4846100000000  0.5064090000000 1.0
C      1  0.4644030000000  0.5272660000000  0.5926240000000 1.0
C      1  0.4551780000000  0.4305200000000  0.5590110000000 1.0
C      1  0.5614410000000  0.4290000000000  0.5008880000000 1.0
C      1  0.4316690000000  0.4185530000000  0.4773190000000 1.0
C      1  0.4246190000000  0.4462830000000  0.4705470000000 1.0
C      1  0.4785450000000  0.4707150000000  0.5470620000000 1.0
C      1  0.5250690000000  0.6040330000000  0.4630270000000 1.0
C      1  0.5328440000000  0.5650940000000  0.5591340000000 1.0
C      1  0.5399240000000  0.4267580000000  0.4417520000000 1.0
C      1  0.5546700000000  0.5471410000000  0.5538310000000 1.0
C      1  0.5350220000000  0.4638870000000  0.5914550000000 1.0
C      1  0.5371800000000  0.4346930000000  0.5443500000000 1.0
C      1  0.5551150000000  0.5681250000000  0.4988770000000 1.0
C      1  0.5370830000000  0.4824340000000  0.5394040000000 1.0
C      1  0.5374060000000  0.5193520000000  0.5938200000000 1.0
C      1  0.5032530000000  0.4268070000000  0.5733790000000 1.0
C      1  0.4717910000000  0.5115370000000  0.4168680000000 1.0
C      1  0.4842700000000  0.5707370000000  0.5756680000000 1.0
C      1  0.5103730000000  0.4609160000000  0.4609520000000 1.0
C      1  0.4203060000000  0.5400420000000  0.4618750000000 1.0
C      1  0.5185960000000  0.4753460000000  0.4372840000000 1.0
C      1  0.5034160000000  0.5165020000000  0.5521110000000 1.0
C      1  0.5893570000000  0.5279170000000  0.5239690000000 1.0
C      1  0.5597340000000  0.4482450000000  0.4543540000000 1.0
C      1  0.4738690000000  0.5889950000000  0.5528190000000 1.0
C      1  0.4254350000000  0.5659740000000  0.4747910000000 1.0
C      1  0.4105500000000  0.5177120000000  0.4782370000000 1.0
C      1  0.4791670000000  0.4911390000000  0.5285740000000 1.0
C      1  0.5304780000000  0.4960070000000  0.4033640000000 1.0
C      1  0.5588710000000  0.5284390000000  0.5758830000000 1.0
C      1  0.5164300000000  0.6002050000000  0.4915420000000 1.0
C      1  0.4637360000000  0.4465260000000  0.5820970000000 1.0
C      1  0.5000920000000  0.5914490000000  0.5435000000000 1.0
C      1  0.5559730000000  0.5662070000000  0.4695390000000 1.0
C      1  0.5643240000000  0.5447130000000  0.5235110000000 1.0
C      1  0.5122000000000  0.5339780000000  0.5941110000000 1.0
C      1  0.4698930000000  0.5386400000000  0.5435430000000 1.0
C      1  0.5290390000000  0.4400340000000  0.5721660000000 1.0
C      1  0.4600950000000  0.5158530000000  0.4803670000000 1.0
C      1  0.5639600000000  0.5208340000000  0.4338450000000 1.0
C      1  0.4365520000000  0.5113540000000  0.5934560000000 1.0
C      1  0.4810670000000  0.4659640000000  0.4899170000000 1.0
C      1  0.5777340000000  0.4867810000000  0.4756920000000 1.0
C      1  0.5962230000000  0.5053160000000  0.5406560000000 1.0
C      1  0.4602680000000  0.4074740000000  0.4779050000000 1.0
C      1  0.5148150000000  0.4164910000000  0.5108560000000 1.0
C      1  0.5884680000000  0.4782290000000  0.5426280000000 1.0
C      1  0.4901760000000  0.5152320000000  0.5971470000000 1.0
C      1  0.4272240000000  0.4876190000000  0.4369920000000 1.0
C      1  0.4325180000000  0.5170450000000  0.5657270000000 1.0
C      1  0.5393540000000  0.4694420000000  0.4169080000000 1.0
C      1  0.4534860000000  0.4477720000000  0.4278850000000 1.0
C      1  0.5426310000000  0.5210120000000  0.4134550000000 1.0
C      1  0.5354200000000  0.5779600000000  0.4527000000000 1.0
C      1  0.5632710000000  0.4669590000000  0.5385370000000 1.0
C      1  0.4661060000000  0.5484370000000  0.5725760000000 1.0
C      1  0.5151830000000  0.5399070000000  0.5112340000000 1.0
C      1  0.5485360000000  0.4904340000000  0.5929830000000 1.0
C      1  0.5233670000000  0.4380430000000  0.4208470000000 1.0
C      1  0.4904030000000  0.4047000000000  0.5231190000000 1.0
C      1  0.5036570000000  0.4297980000000  0.4640270000000 1.0
C      1  0.5684060000000  0.5448120000000  0.4513690000000 1.0
C      1  0.4560910000000  0.5695640000000  0.4686460000000 1.0
C      1  0.4315210000000  0.4587100000000  0.4438240000000 1.0
C      1  0.4424180000000  0.4672860000000  0.5251810000000 1.0
C      1  0.4044670000000  0.5204730000000  0.5180630000000 1.0
C      1  0.4702080000000  0.4775030000000  0.4632550000000 1.0
C      1  0.4714490000000  0.4244330000000  0.4291220000000 1.0
C      1  0.5162670000000  0.4435260000000  0.5236750000000 1.0
C      1  0.4854220000000  0.4458260000000  0.5325300000000 1.0
C      1  0.5375800000000  0.4644050000000  0.4717910000000 1.0
C      1  0.5051800000000  0.5335960000000  0.4857240000000 1.0
C      1  0.4650180000000  0.5511510000000  0.4446330000000 1.0
C      1  0.5112990000000  0.5592990000000  0.5787130000000 1.0
C      1  0.5243590000000  0.4754800000000  0.5131740000000 1.0
C      1  0.4190880000000  0.4932200000000  0.4644530000000 1.0
C      1  0.4194610000000  0.4817630000000  0.5118740000000 1.0
C      1  0.4463120000000  0.4902360000000  0.4760990000000 1.0
C      1  0.4945210000000  0.4398320000000  0.4188800000000 1.0
C      1  0.5197970000000  0.4941280000000  0.5588970000000 1.0
C      1  0.4871530000000  0.5653960000000  0.4303840000000 1.0
C      1  0.4697640000000  0.5991020000000  0.4710500000000 1.0
C      1  0.4647700000000  0.4537400000000  0.5108440000000 1.0
C      1  0.5653130000000  0.4705360000000  0.4341280000000 1.0
C      1  0.4787710000000  0.5308750000000  0.4959730000000 1.0
C      1  0.4825830000000  0.5045860000000  0.4650770000000 1.0
C      1  0.5984900000000  0.5320850000000  0.4778280000000 1.0
C      1  0.5138430000000  0.5319610000000  0.4581140000000 1.0
C      1  0.4141350000000  0.4568960000000  0.4963310000000 1.0
C      1  0.5356630000000  0.5863970000000  0.5092120000000 1.0
C      1  0.4518540000000  0.5821660000000  0.5329210000000 1.0
C      1  0.5941920000000  0.4921070000000  0.5653640000000 1.0
C      1  0.5769060000000  0.4406450000000  0.4793100000000 1.0
C      1  0.4821940000000  0.4194920000000  0.5509620000000 1.0
C      1  0.4390990000000  0.5354710000000  0.4398070000000 1.0
C      1  0.4891600000000  0.5609490000000  0.4030880000000 1.0
C      1  0.4152300000000  0.5403390000000  0.5361380000000 1.0
C      1  0.5267310000000  0.5451810000000  0.4115530000000 1.0
C      1  0.4788550000000  0.4163720000000  0.4566030000000 1.0
C      1  0.4877740000000  0.5214320000000  0.3917400000000 1.0
C      1  0.4782760000000  0.4646090000000  0.4282620000000 1.0
C      1  0.4972990000000  0.4878090000000  0.5847160000000 1.0
C      1  0.4211960000000  0.5096300000000  0.5055870000000 1.0
END
