TITL C-883735-9890-276 -7.16300564198457 125000 -7761.18211909114 0 0 53 (C1) n - 1
REM
REM in /home/nfs/bkarasulu/CARBON/AIRSS/Generating-Clusters/ReaxFF-fromJPCA2015/Units_Real/with-SteepDescent/Only-C1/SD-CG/Try1-3A/FIRE-CG
REM
REM
REM
REM
REM
REM ./C.cell (11c1c37f851c82e70ff6c80c92926a4b)
REM
REM compiler GCC version 9.2.1 20190827 (Red Hat 9.2.1-1)
REM options -cpp -mtune=generic -march=x86-64 -g -O0 -fpre-include=/usr/include/finclude/math-vector-fortran.h
REM seed -1738002301 1859241311 1631540936 1779979874 -1341268712 865075117 -1888158419 -1235106589 1545305270 421159224 -1692893380 1487177081 221644325 -1400990079 -1165322627 -1439502183 -298477014 -237633122 1148663763 -281533911 1013481976 243736675 -1818129880 -257859268 -1922120669 1858610075 1142990323 2066143655 1039890883 -861709379 1464060585 96589066 -2042698806
REM
CELL 1.54180   50.00000   50.00000   50.00000   90.00000   90.00000   90.00000
LATT -1
SFAC C  
C      1  0.5628390000000  0.4726730000000  0.4917880000000 1.0
C      1  0.4971160000000  0.4429060000000  0.5041820000000 1.0
C      1  0.4676350000000  0.4397520000000  0.5053890000000 1.0
C      1  0.5059450000000  0.4910880000000  0.4753470000000 1.0
C      1  0.4727730000000  0.4902300000000  0.5542320000000 1.0
C      1  0.5356090000000  0.4742570000000  0.5326400000000 1.0
C      1  0.4555190000000  0.4694920000000  0.5420740000000 1.0
C      1  0.4634040000000  0.5196260000000  0.5478990000000 1.0
C      1  0.5284600000000  0.5056360000000  0.4615530000000 1.0
C      1  0.5052700000000  0.5061420000000  0.4204290000000 1.0
C      1  0.5150690000000  0.5529240000000  0.4500110000000 1.0
C      1  0.4796980000000  0.5055810000000  0.4792110000000 1.0
C      1  0.5076450000000  0.5461090000000  0.5578970000000 1.0
C      1  0.5107700000000  0.5183030000000  0.5635870000000 1.0
C      1  0.4414680000000  0.5246510000000  0.5016730000000 1.0
C      1  0.5312560000000  0.4982100000000  0.4331660000000 1.0
C      1  0.5363870000000  0.5334910000000  0.4559000000000 1.0
C      1  0.4830640000000  0.5207050000000  0.4336220000000 1.0
C      1  0.5292650000000  0.5317940000000  0.5173300000000 1.0
C      1  0.4748370000000  0.5577980000000  0.5197000000000 1.0
C      1  0.4764030000000  0.5549210000000  0.4773920000000 1.0
C      1  0.4873980000000  0.5437140000000  0.4523410000000 1.0
C      1  0.4808290000000  0.5428480000000  0.5446800000000 1.0
C      1  0.5222500000000  0.5562030000000  0.4992950000000 1.0
C      1  0.4947760000000  0.5653290000000  0.4990280000000 1.0
C      1  0.4556870000000  0.5499370000000  0.4981170000000 1.0
C      1  0.5160570000000  0.4541740000000  0.4455340000000 1.0
C      1  0.5561370000000  0.5178540000000  0.5233240000000 1.0
C      1  0.5110110000000  0.4976150000000  0.5873250000000 1.0
C      1  0.5158080000000  0.4623810000000  0.5485480000000 1.0
C      1  0.4401710000000  0.4788170000000  0.4952870000000 1.0
C      1  0.5234380000000  0.4434490000000  0.4718350000000 1.0
C      1  0.5523470000000  0.4484100000000  0.4795140000000 1.0
C      1  0.4693310000000  0.4587090000000  0.4615600000000 1.0
C      1  0.5543660000000  0.4867800000000  0.5172300000000 1.0
C      1  0.4528820000000  0.4541850000000  0.4839670000000 1.0
C      1  0.5600160000000  0.4699570000000  0.4622590000000 1.0
C      1  0.5345010000000  0.5476610000000  0.5441310000000 1.0
C      1  0.4992720000000  0.4784650000000  0.5688960000000 1.0
C      1  0.4424220000000  0.5133200000000  0.5289880000000 1.0
C      1  0.4972100000000  0.4449750000000  0.5339240000000 1.0
C      1  0.5123320000000  0.5117840000000  0.5353680000000 1.0
C      1  0.4915650000000  0.4949860000000  0.5299940000000 1.0
C      1  0.4683710000000  0.4462240000000  0.5332190000000 1.0
C      1  0.4389320000000  0.4842420000000  0.5239150000000 1.0
C      1  0.5577400000000  0.5316880000000  0.5473290000000 1.0
C      1  0.4840190000000  0.5080940000000  0.5063340000000 1.0
C      1  0.5092550000000  0.4641110000000  0.4871390000000 1.0
C      1  0.4491970000000  0.5035120000000  0.4828490000000 1.0
C      1  0.4873190000000  0.4641970000000  0.4415450000000 1.0
C      1  0.5332400000000  0.5577650000000  0.4729090000000 1.0
C      1  0.4820980000000  0.4916100000000  0.4286230000000 1.0
C      1  0.5395930000000  0.4707140000000  0.4399680000000 1.0
END
