TITL C-884142-5251-223 -0.739667381146615 125000 -21723.9633201509 0 0 144 (C1) n - 1
REM
REM in /home/nfs/bkarasulu/CARBON/AIRSS/Generating-Clusters/ReaxFF-fromJPCA2015/Units_Real/with-SteepDescent/Only-C1/SD-CG/Try1-3A/FIRE-CG
REM
REM
REM
REM
REM
REM ./C.cell (11c1c37f851c82e70ff6c80c92926a4b)
REM
REM compiler GCC version 9.2.1 20190827 (Red Hat 9.2.1-1)
REM options -cpp -mtune=generic -march=x86-64 -g -O0 -fpre-include=/usr/include/finclude/math-vector-fortran.h
REM seed -96543071 1824083164 2126370519 41837312 1603123373 737572049 -190552134 1716698014 951501292 1741559117 -2034383775 -1024521067 892791191 1772214836 983496162 1054538022 458247393 -977341223 -1763308611 -1131269184 910635980 469784076 307895272 -566668879 99314095 -36366950 840371481 -1036095058 -1956522741 278024422 2098684883 -2139619715 -1493352792
REM
CELL 1.54180   50.00000   50.00000   50.00000   90.00000   90.00000   90.00000
LATT -1
SFAC C  
C      1  0.5462760000000  0.5203060000000  0.5025490000000 1.0
C      1  0.4442530000000  0.4064980000000  0.5103200000000 1.0
C      1  0.5070960000000  0.4975110000000  0.3883350000000 1.0
C      1  0.5191720000000  0.4596380000000  0.4040450000000 1.0
C      1  0.5133110000000  0.4477650000000  0.4518710000000 1.0
C      1  0.5786080000000  0.4898220000000  0.5405230000000 1.0
C      1  0.5628310000000  0.5734700000000  0.5272420000000 1.0
C      1  0.5508300000000  0.4073460000000  0.4866450000000 1.0
C      1  0.5801690000000  0.5716130000000  0.5038910000000 1.0
C      1  0.5410120000000  0.5332710000000  0.3956770000000 1.0
C      1  0.4334360000000  0.4925760000000  0.4265860000000 1.0
C      1  0.5285390000000  0.4657830000000  0.4908720000000 1.0
C      1  0.4296580000000  0.5558000000000  0.4679200000000 1.0
C      1  0.5374070000000  0.4551510000000  0.4652020000000 1.0
C      1  0.4557550000000  0.5612660000000  0.5749270000000 1.0
C      1  0.5025820000000  0.5793000000000  0.4340250000000 1.0
C      1  0.4475020000000  0.4099880000000  0.5384280000000 1.0
C      1  0.5663380000000  0.4266760000000  0.4728410000000 1.0
C      1  0.4629060000000  0.5712060000000  0.5493410000000 1.0
C      1  0.4590150000000  0.4924730000000  0.5207420000000 1.0
C      1  0.5020300000000  0.4745180000000  0.4495340000000 1.0
C      1  0.5167510000000  0.4573520000000  0.5830080000000 1.0
C      1  0.4883860000000  0.4857140000000  0.4712200000000 1.0
C      1  0.4746110000000  0.5750910000000  0.4263380000000 1.0
C      1  0.5197040000000  0.5358890000000  0.4730430000000 1.0
C      1  0.5134090000000  0.5229120000000  0.6039150000000 1.0
C      1  0.5154320000000  0.5723150000000  0.5767660000000 1.0
C      1  0.4679290000000  0.4719490000000  0.4124250000000 1.0
C      1  0.5623120000000  0.4619650000000  0.4503800000000 1.0
C      1  0.5415770000000  0.5149660000000  0.5942330000000 1.0
C      1  0.5557290000000  0.4908990000000  0.5962410000000 1.0
C      1  0.3906230000000  0.5388320000000  0.4934140000000 1.0
C      1  0.5371880000000  0.5857490000000  0.4812390000000 1.0
C      1  0.4745710000000  0.5587600000000  0.5214740000000 1.0
C      1  0.4698230000000  0.3912820000000  0.5398470000000 1.0
C      1  0.5730180000000  0.5098450000000  0.4414170000000 1.0
C      1  0.5931590000000  0.4675050000000  0.4921990000000 1.0
C      1  0.4931320000000  0.4191290000000  0.4174670000000 1.0
C      1  0.5883940000000  0.5162520000000  0.5331760000000 1.0
C      1  0.5928720000000  0.4538370000000  0.5179150000000 1.0
C      1  0.5388860000000  0.4830930000000  0.4127420000000 1.0
C      1  0.4028830000000  0.4771480000000  0.5106360000000 1.0
C      1  0.5664490000000  0.4709010000000  0.5847810000000 1.0
C      1  0.4502670000000  0.4937350000000  0.5958920000000 1.0
C      1  0.5229930000000  0.5642840000000  0.4186450000000 1.0
C      1  0.4370560000000  0.4491800000000  0.4810580000000 1.0
C      1  0.5642360000000  0.4840010000000  0.4310340000000 1.0
C      1  0.4426240000000  0.5703760000000  0.4877540000000 1.0
C      1  0.5210170000000  0.4049690000000  0.4888320000000 1.0
C      1  0.4805020000000  0.5802830000000  0.4545380000000 1.0
C      1  0.4962960000000  0.5024750000000  0.6039510000000 1.0
C      1  0.5149230000000  0.3965980000000  0.5148350000000 1.0
C      1  0.5571940000000  0.4154300000000  0.5397430000000 1.0
C      1  0.4557220000000  0.4250860000000  0.4865110000000 1.0
C      1  0.4690040000000  0.5250410000000  0.4151050000000 1.0
C      1  0.5888880000000  0.4958660000000  0.4880020000000 1.0
C      1  0.4440590000000  0.5428710000000  0.4488140000000 1.0
C      1  0.5761680000000  0.4516060000000  0.5674370000000 1.0
C      1  0.5506770000000  0.4839820000000  0.5318720000000 1.0
C      1  0.5173850000000  0.4924530000000  0.4347580000000 1.0
C      1  0.5025230000000  0.4205990000000  0.5666230000000 1.0
C      1  0.4545550000000  0.4980850000000  0.4098180000000 1.0
C      1  0.4841850000000  0.4364060000000  0.4972230000000 1.0
C      1  0.5093310000000  0.5195020000000  0.4313660000000 1.0
C      1  0.5492590000000  0.5488700000000  0.4202930000000 1.0
C      1  0.5671540000000  0.5390790000000  0.4409900000000 1.0
C      1  0.5046430000000  0.5979060000000  0.5238280000000 1.0
C      1  0.4268830000000  0.4590950000000  0.5063280000000 1.0
C      1  0.5891040000000  0.5458980000000  0.4911660000000 1.0
C      1  0.5032820000000  0.4788460000000  0.4934320000000 1.0
C      1  0.4381100000000  0.5688460000000  0.5392830000000 1.0
C      1  0.5491070000000  0.5325330000000  0.5241220000000 1.0
C      1  0.4685480000000  0.5058780000000  0.4714560000000 1.0
C      1  0.5156510000000  0.4373200000000  0.4223820000000 1.0
C      1  0.4688590000000  0.5810500000000  0.4817710000000 1.0
C      1  0.4981910000000  0.5464240000000  0.5900680000000 1.0
C      1  0.4321240000000  0.4757890000000  0.5808890000000 1.0
C      1  0.5402870000000  0.5124230000000  0.4786710000000 1.0
C      1  0.4770060000000  0.4825600000000  0.6026100000000 1.0
C      1  0.5139650000000  0.4738110000000  0.5582260000000 1.0
C      1  0.4791380000000  0.4360870000000  0.5740850000000 1.0
C      1  0.4277200000000  0.5650580000000  0.5133760000000 1.0
C      1  0.5277780000000  0.4311200000000  0.5757550000000 1.0
C      1  0.4014950000000  0.5500340000000  0.4691500000000 1.0
C      1  0.4796500000000  0.5314300000000  0.5120130000000 1.0
C      1  0.4183430000000  0.5195540000000  0.5334390000000 1.0
C      1  0.5154250000000  0.5571060000000  0.5394660000000 1.0
C      1  0.5348700000000  0.5046420000000  0.3915560000000 1.0
C      1  0.5673080000000  0.5315380000000  0.5492360000000 1.0
C      1  0.5245590000000  0.5601770000000  0.4879670000000 1.0
C      1  0.5465460000000  0.4623210000000  0.5132890000000 1.0
C      1  0.5016550000000  0.5156340000000  0.5239390000000 1.0
C      1  0.4892700000000  0.5307980000000  0.5658070000000 1.0
C      1  0.4216400000000  0.5393330000000  0.4000720000000 1.0
C      1  0.4577340000000  0.4531380000000  0.4327060000000 1.0
C      1  0.5061530000000  0.5321440000000  0.5453460000000 1.0
C      1  0.4886850000000  0.4564480000000  0.5920480000000 1.0
C      1  0.5297230000000  0.4971070000000  0.5478720000000 1.0
C      1  0.4923560000000  0.4377420000000  0.5246560000000 1.0
C      1  0.4847590000000  0.5822180000000  0.5068960000000 1.0
C      1  0.4504040000000  0.5224900000000  0.5898060000000 1.0
C      1  0.4421470000000  0.4642830000000  0.5313350000000 1.0
C      1  0.5758140000000  0.5539580000000  0.4655060000000 1.0
C      1  0.4606420000000  0.5125410000000  0.4985000000000 1.0
C      1  0.4969850000000  0.5240440000000  0.4018220000000 1.0
C      1  0.5677500000000  0.4432200000000  0.5128550000000 1.0
C      1  0.3971150000000  0.4894810000000  0.4872940000000 1.0
C      1  0.4683210000000  0.5270580000000  0.4510770000000 1.0
C      1  0.4986040000000  0.5350010000000  0.4527660000000 1.0
C      1  0.4672030000000  0.5470660000000  0.5962890000000 1.0
C      1  0.4969670000000  0.4088680000000  0.5376810000000 1.0
C      1  0.5645730000000  0.4135770000000  0.5131450000000 1.0
C      1  0.5913830000000  0.4638260000000  0.5452300000000 1.0
C      1  0.4996770000000  0.4248970000000  0.4741930000000 1.0
C      1  0.5937450000000  0.5199360000000  0.5048630000000 1.0
C      1  0.5668890000000  0.5017130000000  0.4688190000000 1.0
C      1  0.5820140000000  0.4506310000000  0.4698170000000 1.0
C      1  0.4475080000000  0.5135790000000  0.5386640000000 1.0
C      1  0.4230440000000  0.4761720000000  0.5512360000000 1.0
C      1  0.4732490000000  0.4158000000000  0.4629330000000 1.0
C      1  0.4986820000000  0.4632710000000  0.5365860000000 1.0
C      1  0.4532250000000  0.4392300000000  0.5530720000000 1.0
C      1  0.4188940000000  0.4816840000000  0.4454220000000 1.0
C      1  0.5364820000000  0.5593500000000  0.5182940000000 1.0
C      1  0.4056360000000  0.4936070000000  0.5360360000000 1.0
C      1  0.4097690000000  0.5409700000000  0.5153540000000 1.0
C      1  0.5416470000000  0.5690000000000  0.5684520000000 1.0
C      1  0.5066450000000  0.5826060000000  0.5503850000000 1.0
C      1  0.5157060000000  0.5478970000000  0.3955660000000 1.0
C      1  0.4311880000000  0.5521690000000  0.4216110000000 1.0
C      1  0.4375000000000  0.4598960000000  0.4538490000000 1.0
C      1  0.4696820000000  0.4263190000000  0.4359300000000 1.0
C      1  0.4944200000000  0.4726330000000  0.3975240000000 1.0
C      1  0.5455800000000  0.5151040000000  0.5653370000000 1.0
C      1  0.5666780000000  0.5788080000000  0.4783850000000 1.0
C      1  0.3870420000000  0.5246750000000  0.4673820000000 1.0
C      1  0.4410580000000  0.4492840000000  0.5766100000000 1.0
C      1  0.5650710000000  0.5631840000000  0.5540750000000 1.0
C      1  0.4598700000000  0.5532860000000  0.4117680000000 1.0
C      1  0.3962600000000  0.4967420000000  0.4624930000000 1.0
C      1  0.5554630000000  0.4286830000000  0.5640470000000 1.0
C      1  0.4922620000000  0.4874750000000  0.5193300000000 1.0
C      1  0.5230560000000  0.5988020000000  0.5025190000000 1.0
C      1  0.4619990000000  0.5210360000000  0.5627490000000 1.0
END
