TITL C-884131-4643-383 135.736205287637 125000 -20933.0387788389 0 0 143 (C1) n - 1
REM
REM in /home/nfs/bkarasulu/CARBON/AIRSS/Generating-Clusters/ReaxFF-fromJPCA2015/Units_Real/with-SteepDescent/Only-C1/SD-CG/Try1-3A/FIRE-CG
REM
REM
REM
REM
REM
REM ./C.cell (11c1c37f851c82e70ff6c80c92926a4b)
REM
REM compiler GCC version 9.2.1 20190827 (Red Hat 9.2.1-1)
REM options -cpp -mtune=generic -march=x86-64 -g -O0 -fpre-include=/usr/include/finclude/math-vector-fortran.h
REM seed 23253044 -709416842 -231253367 1789552022 938942238 -324005881 -1127671501 -803411835 92416237 2065260185 483257081 494400033 1465836999 1071996277 -878066092 514366988 1152681660 1714056358 -1111774780 218219858 1191669069 1214586008 2037309670 892104204 -385101898 740568308 508615452 -665728254 767966510 1213013515 93450752 -2073792996 1942333492
REM
CELL 1.54180   50.00000   50.00000   50.00000   90.00000   90.00000   90.00000
LATT -1
SFAC C  
C      1  0.4259330000000  0.4597970000000  0.5307960000000 1.0
C      1  0.5153240000000  0.5185030000000  0.6097640000000 1.0
C      1  0.5652350000000  0.5104930000000  0.4278820000000 1.0
C      1  0.5162650000000  0.5920890000000  0.5076380000000 1.0
C      1  0.3984470000000  0.5217190000000  0.4904880000000 1.0
C      1  0.5759480000000  0.4604980000000  0.5478270000000 1.0
C      1  0.5790000000000  0.4899560000000  0.4609470000000 1.0
C      1  0.4243750000000  0.5544270000000  0.4817070000000 1.0
C      1  0.4379580000000  0.5560270000000  0.4424350000000 1.0
C      1  0.5419470000000  0.4528420000000  0.5852440000000 1.0
C      1  0.4575940000000  0.5509160000000  0.5138110000000 1.0
C      1  0.4958620000000  0.5550500000000  0.6025950000000 1.0
C      1  0.5726890000000  0.4610430000000  0.4460050000000 1.0
C      1  0.4814870000000  0.4099880000000  0.5230730000000 1.0
C      1  0.5326050000000  0.4368790000000  0.4897630000000 1.0
C      1  0.5175130000000  0.4354460000000  0.5848170000000 1.0
C      1  0.5699710000000  0.4344950000000  0.5356870000000 1.0
C      1  0.5102410000000  0.4642030000000  0.4537260000000 1.0
C      1  0.5368760000000  0.5498230000000  0.4118250000000 1.0
C      1  0.5609290000000  0.5841270000000  0.5152280000000 1.0
C      1  0.5538540000000  0.5355660000000  0.4375610000000 1.0
C      1  0.4619550000000  0.5778370000000  0.5040550000000 1.0
C      1  0.4380960000000  0.4286290000000  0.4840150000000 1.0
C      1  0.4438010000000  0.5711240000000  0.4676710000000 1.0
C      1  0.4546270000000  0.5132620000000  0.5022430000000 1.0
C      1  0.4508040000000  0.5700730000000  0.5480750000000 1.0
C      1  0.5786550000000  0.5536720000000  0.5411190000000 1.0
C      1  0.5237240000000  0.4863810000000  0.5379200000000 1.0
C      1  0.4401680000000  0.4494340000000  0.5757700000000 1.0
C      1  0.5399990000000  0.4302190000000  0.5414020000000 1.0
C      1  0.4006100000000  0.5540100000000  0.5271520000000 1.0
C      1  0.5006220000000  0.5961240000000  0.4839400000000 1.0
C      1  0.4586250000000  0.4079770000000  0.4755450000000 1.0
C      1  0.4679480000000  0.5146430000000  0.5963980000000 1.0
C      1  0.4824410000000  0.4481470000000  0.4507260000000 1.0
C      1  0.5575460000000  0.4713920000000  0.5694580000000 1.0
C      1  0.5176360000000  0.5014510000000  0.4153720000000 1.0
C      1  0.4466780000000  0.5251000000000  0.5804120000000 1.0
C      1  0.4652760000000  0.5108270000000  0.5442400000000 1.0
C      1  0.4814120000000  0.4417220000000  0.4808480000000 1.0
C      1  0.4240640000000  0.5704240000000  0.5342750000000 1.0
C      1  0.5475560000000  0.5226010000000  0.4888550000000 1.0
C      1  0.5382150000000  0.4970960000000  0.5657170000000 1.0
C      1  0.4860500000000  0.4720260000000  0.5867200000000 1.0
C      1  0.4712230000000  0.5662330000000  0.4623880000000 1.0
C      1  0.4745980000000  0.5319850000000  0.4624150000000 1.0
C      1  0.4972170000000  0.4756960000000  0.5390170000000 1.0
C      1  0.5081000000000  0.5959910000000  0.4555340000000 1.0
C      1  0.4765910000000  0.4613020000000  0.5232980000000 1.0
C      1  0.5450080000000  0.4908560000000  0.4216570000000 1.0
C      1  0.4527860000000  0.4973900000000  0.4163040000000 1.0
C      1  0.3950220000000  0.5258220000000  0.5180620000000 1.0
C      1  0.4105000000000  0.5079510000000  0.4398550000000 1.0
C      1  0.5311130000000  0.5803060000000  0.4487050000000 1.0
C      1  0.5377530000000  0.4351870000000  0.4284600000000 1.0
C      1  0.4218130000000  0.5338070000000  0.4459930000000 1.0
C      1  0.4639180000000  0.4704920000000  0.4460740000000 1.0
C      1  0.4801590000000  0.4150240000000  0.4937500000000 1.0
C      1  0.5796120000000  0.5623480000000  0.5132960000000 1.0
C      1  0.5435970000000  0.4107510000000  0.4980490000000 1.0
C      1  0.5341950000000  0.4601930000000  0.5322300000000 1.0
C      1  0.4566530000000  0.4280790000000  0.5622900000000 1.0
C      1  0.4361700000000  0.4634980000000  0.4436450000000 1.0
C      1  0.5385680000000  0.5298450000000  0.4621110000000 1.0
C      1  0.5042650000000  0.4518470000000  0.4077990000000 1.0
C      1  0.4729540000000  0.4320330000000  0.5387700000000 1.0
C      1  0.4722730000000  0.5830590000000  0.5314830000000 1.0
C      1  0.4139180000000  0.5688540000000  0.5065770000000 1.0
C      1  0.4974640000000  0.5378610000000  0.4802310000000 1.0
C      1  0.4246710000000  0.4501610000000  0.4678200000000 1.0
C      1  0.5747950000000  0.5586680000000  0.4718780000000 1.0
C      1  0.4740160000000  0.4643280000000  0.4942040000000 1.0
C      1  0.5498640000000  0.5238550000000  0.5583110000000 1.0
C      1  0.5359560000000  0.5499180000000  0.5589440000000 1.0
C      1  0.5195880000000  0.4864530000000  0.4962870000000 1.0
C      1  0.4012790000000  0.4922490000000  0.4655090000000 1.0
C      1  0.4211760000000  0.5088730000000  0.4795900000000 1.0
C      1  0.5246500000000  0.5479200000000  0.6097340000000 1.0
C      1  0.5435170000000  0.5833540000000  0.5358320000000 1.0
C      1  0.5807530000000  0.5421940000000  0.4488740000000 1.0
C      1  0.5833140000000  0.4404070000000  0.4883010000000 1.0
C      1  0.4906250000000  0.4465590000000  0.5949640000000 1.0
C      1  0.4629490000000  0.4362920000000  0.5896120000000 1.0
C      1  0.5950950000000  0.5150460000000  0.5008810000000 1.0
C      1  0.5056690000000  0.4887510000000  0.4706050000000 1.0
C      1  0.4759630000000  0.5281910000000  0.5222160000000 1.0
C      1  0.5898540000000  0.4774860000000  0.5292340000000 1.0
C      1  0.5355860000000  0.4638320000000  0.5053100000000 1.0
C      1  0.5882540000000  0.4700180000000  0.4989010000000 1.0
C      1  0.5021940000000  0.5809010000000  0.5331010000000 1.0
C      1  0.5710070000000  0.4252890000000  0.5084080000000 1.0
C      1  0.4336680000000  0.4389270000000  0.5116820000000 1.0
C      1  0.5509520000000  0.5758640000000  0.4693530000000 1.0
C      1  0.5757580000000  0.5254100000000  0.5464440000000 1.0
C      1  0.4319110000000  0.5002900000000  0.5684630000000 1.0
C      1  0.5079680000000  0.4769870000000  0.4078150000000 1.0
C      1  0.4870830000000  0.5287290000000  0.6131630000000 1.0
C      1  0.4871410000000  0.5570560000000  0.5739420000000 1.0
C      1  0.4852240000000  0.5671800000000  0.4196480000000 1.0
C      1  0.5553570000000  0.4967580000000  0.4780970000000 1.0
C      1  0.5563870000000  0.5674570000000  0.5527680000000 1.0
C      1  0.5150960000000  0.5024280000000  0.5852380000000 1.0
C      1  0.5109220000000  0.4269790000000  0.4176890000000 1.0
C      1  0.5008090000000  0.5185250000000  0.4329920000000 1.0
C      1  0.5505140000000  0.4203990000000  0.4498580000000 1.0
C      1  0.4846130000000  0.5854200000000  0.4411340000000 1.0
C      1  0.4348130000000  0.5124890000000  0.5426410000000 1.0
C      1  0.5057910000000  0.4081930000000  0.5379920000000 1.0
C      1  0.4588480000000  0.5506680000000  0.5681390000000 1.0
C      1  0.5736210000000  0.4368400000000  0.4606990000000 1.0
C      1  0.5185860000000  0.4210490000000  0.5607280000000 1.0
C      1  0.4326980000000  0.4719440000000  0.5595880000000 1.0
C      1  0.5349860000000  0.4023910000000  0.4675220000000 1.0
C      1  0.5083430000000  0.5619250000000  0.5543010000000 1.0
C      1  0.5304730000000  0.4074360000000  0.5234360000000 1.0
C      1  0.4402900000000  0.5371620000000  0.5002210000000 1.0
C      1  0.4283020000000  0.4872330000000  0.4284200000000 1.0
C      1  0.5517940000000  0.4620970000000  0.4274300000000 1.0
C      1  0.5179570000000  0.5653380000000  0.4246470000000 1.0
C      1  0.4723330000000  0.4841540000000  0.5414300000000 1.0
C      1  0.4801770000000  0.4030200000000  0.4532000000000 1.0
C      1  0.4571150000000  0.5093180000000  0.4743100000000 1.0
C      1  0.4124050000000  0.4760740000000  0.5116380000000 1.0
C      1  0.5216640000000  0.4478020000000  0.4701330000000 1.0
C      1  0.5590960000000  0.4774460000000  0.4970790000000 1.0
C      1  0.4857830000000  0.4236170000000  0.4328970000000 1.0
C      1  0.4087370000000  0.4690330000000  0.4823300000000 1.0
C      1  0.4722900000000  0.4835340000000  0.4722850000000 1.0
C      1  0.5979270000000  0.4942490000000  0.4815480000000 1.0
C      1  0.4731810000000  0.5127450000000  0.4323310000000 1.0
C      1  0.5876220000000  0.5133460000000  0.4466710000000 1.0
C      1  0.5766600000000  0.5389460000000  0.4950530000000 1.0
C      1  0.4581750000000  0.5252870000000  0.4088240000000 1.0
C      1  0.5130480000000  0.5197810000000  0.4591680000000 1.0
C      1  0.4604010000000  0.5519480000000  0.4194780000000 1.0
C      1  0.4862510000000  0.4987450000000  0.5770270000000 1.0
C      1  0.4832950000000  0.5743420000000  0.4854920000000 1.0
C      1  0.5024390000000  0.5287660000000  0.5073470000000 1.0
C      1  0.5904080000000  0.5061750000000  0.5281450000000 1.0
C      1  0.5077750000000  0.4009250000000  0.4606710000000 1.0
C      1  0.5248040000000  0.5108000000000  0.5117680000000 1.0
C      1  0.4126040000000  0.5030150000000  0.5247180000000 1.0
C      1  0.5430970000000  0.5885450000000  0.4951470000000 1.0
END
