TITL C-884132-5695-322 -1.79484965383348 125000 -14425.0774747875 0 0 97 (C1) n - 1
REM
REM in /home/nfs/bkarasulu/CARBON/AIRSS/Generating-Clusters/ReaxFF-fromJPCA2015/Units_Real/with-SteepDescent/Only-C1/SD-CG/Try1-3A/FIRE-CG
REM
REM
REM
REM
REM
REM ./C.cell (11c1c37f851c82e70ff6c80c92926a4b)
REM
REM compiler GCC version 9.2.1 20190827 (Red Hat 9.2.1-1)
REM options -cpp -mtune=generic -march=x86-64 -g -O0 -fpre-include=/usr/include/finclude/math-vector-fortran.h
REM seed 1370064760 -1978974433 1526240902 -207218675 1928331922 -1195694162 -1798719274 614595685 123970115 -1347206146 62255731 1007058713 333419883 1446441249 -933249753 1445018967 -1440706794 -1900438555 -618655987 -338370188 2084128217 -420564730 -1711784947 -324833591 1290475358 1868411926 -707138941 1457866081 -815452630 -405590073 391671140 1696839749 531163509
REM
CELL 1.54180   50.00000   50.00000   50.00000   90.00000   90.00000   90.00000
LATT -1
SFAC C  
C      1  0.4989560000000  0.5119190000000  0.5287400000000 1.0
C      1  0.4282630000000  0.4616120000000  0.4870290000000 1.0
C      1  0.5664390000000  0.4708180000000  0.4773890000000 1.0
C      1  0.5854930000000  0.5249700000000  0.5284610000000 1.0
C      1  0.4098540000000  0.5367250000000  0.4972660000000 1.0
C      1  0.5122260000000  0.4143910000000  0.5038460000000 1.0
C      1  0.5110790000000  0.4220020000000  0.4777120000000 1.0
C      1  0.4999670000000  0.5516680000000  0.4225150000000 1.0
C      1  0.5039470000000  0.5607550000000  0.5356900000000 1.0
C      1  0.4603380000000  0.4246420000000  0.4764570000000 1.0
C      1  0.4795910000000  0.5736880000000  0.5230170000000 1.0
C      1  0.4746010000000  0.4286580000000  0.4507250000000 1.0
C      1  0.4787000000000  0.5594960000000  0.4431440000000 1.0
C      1  0.5196010000000  0.5670470000000  0.5824560000000 1.0
C      1  0.4873180000000  0.5750120000000  0.4681680000000 1.0
C      1  0.4627690000000  0.5596080000000  0.5395220000000 1.0
C      1  0.4235100000000  0.4745700000000  0.4604550000000 1.0
C      1  0.5094590000000  0.5628180000000  0.4823020000000 1.0
C      1  0.4377870000000  0.5203860000000  0.5638470000000 1.0
C      1  0.4554360000000  0.4969820000000  0.5175220000000 1.0
C      1  0.5431150000000  0.4627610000000  0.5706180000000 1.0
C      1  0.5490940000000  0.4482280000000  0.4400440000000 1.0
C      1  0.4927910000000  0.5361430000000  0.4835180000000 1.0
C      1  0.5203960000000  0.4492290000000  0.4349280000000 1.0
C      1  0.4960680000000  0.4827910000000  0.5880020000000 1.0
C      1  0.4249340000000  0.4668560000000  0.5411510000000 1.0
C      1  0.4451530000000  0.5132340000000  0.4387540000000 1.0
C      1  0.4632930000000  0.5423660000000  0.4766790000000 1.0
C      1  0.4534580000000  0.4887390000000  0.4250730000000 1.0
C      1  0.4583260000000  0.5389660000000  0.4479860000000 1.0
C      1  0.5268180000000  0.5534620000000  0.4312550000000 1.0
C      1  0.4468850000000  0.4690340000000  0.5602310000000 1.0
C      1  0.4767420000000  0.5032660000000  0.5821600000000 1.0
C      1  0.5706480000000  0.4659480000000  0.4358420000000 1.0
C      1  0.5356240000000  0.5116010000000  0.4958370000000 1.0
C      1  0.5580390000000  0.5120260000000  0.5648990000000 1.0
C      1  0.4221050000000  0.5227860000000  0.5421300000000 1.0
C      1  0.4381590000000  0.4660650000000  0.4365750000000 1.0
C      1  0.4510530000000  0.5056010000000  0.4909350000000 1.0
C      1  0.6053630000000  0.4829380000000  0.4700580000000 1.0
C      1  0.4724160000000  0.5800780000000  0.4932300000000 1.0
C      1  0.5061510000000  0.4707760000000  0.4216820000000 1.0
C      1  0.5498600000000  0.4271790000000  0.4917290000000 1.0
C      1  0.5594680000000  0.4436900000000  0.4705380000000 1.0
C      1  0.5478990000000  0.4384110000000  0.5379370000000 1.0
C      1  0.4168210000000  0.4679770000000  0.5133530000000 1.0
C      1  0.5554430000000  0.5639220000000  0.5142880000000 1.0
C      1  0.4907000000000  0.4563290000000  0.5793200000000 1.0
C      1  0.5750090000000  0.5441750000000  0.5122540000000 1.0
C      1  0.4811080000000  0.4394000000000  0.5356010000000 1.0
C      1  0.5410370000000  0.4203360000000  0.5178530000000 1.0
C      1  0.4705410000000  0.4975570000000  0.4698300000000 1.0
C      1  0.4134520000000  0.5431410000000  0.5243250000000 1.0
C      1  0.5146920000000  0.4689060000000  0.5713800000000 1.0
C      1  0.5043130000000  0.4297180000000  0.4518650000000 1.0
C      1  0.4993050000000  0.5336940000000  0.5464830000000 1.0
C      1  0.4561140000000  0.4519350000000  0.4866320000000 1.0
C      1  0.5677710000000  0.5345190000000  0.5518290000000 1.0
C      1  0.5600020000000  0.5676240000000  0.4491100000000 1.0
C      1  0.4244370000000  0.5157770000000  0.4832350000000 1.0
C      1  0.4663120000000  0.4060010000000  0.4996020000000 1.0
C      1  0.4515420000000  0.4959210000000  0.5715390000000 1.0
C      1  0.4484400000000  0.5642200000000  0.4896610000000 1.0
C      1  0.5179860000000  0.5055750000000  0.4520600000000 1.0
C      1  0.5351980000000  0.5730580000000  0.4925620000000 1.0
C      1  0.5412980000000  0.4878170000000  0.5115610000000 1.0
C      1  0.4930950000000  0.5146850000000  0.4627480000000 1.0
C      1  0.4950690000000  0.4642360000000  0.5302680000000 1.0
C      1  0.5886860000000  0.4860200000000  0.4459110000000 1.0
C      1  0.5159110000000  0.4992500000000  0.4232700000000 1.0
C      1  0.5496260000000  0.4899640000000  0.5743100000000 1.0
C      1  0.4691370000000  0.4492790000000  0.5607580000000 1.0
C      1  0.6026820000000  0.4891710000000  0.4954410000000 1.0
C      1  0.5471480000000  0.5431190000000  0.4463540000000 1.0
C      1  0.5037890000000  0.5237450000000  0.4114840000000 1.0
C      1  0.4259920000000  0.4945500000000  0.5268490000000 1.0
C      1  0.4235480000000  0.5605720000000  0.5047830000000 1.0
C      1  0.4618720000000  0.4478690000000  0.4326380000000 1.0
C      1  0.5617130000000  0.4600280000000  0.5468680000000 1.0
C      1  0.5081830000000  0.5118230000000  0.5003970000000 1.0
C      1  0.5027800000000  0.5516890000000  0.5843130000000 1.0
C      1  0.5026190000000  0.4810010000000  0.4907050000000 1.0
C      1  0.4823570000000  0.5319660000000  0.5731760000000 1.0
C      1  0.5511490000000  0.5581500000000  0.5431430000000 1.0
C      1  0.5178910000000  0.4686260000000  0.5111090000000 1.0
C      1  0.5425190000000  0.5156600000000  0.4671560000000 1.0
C      1  0.5262820000000  0.5696090000000  0.5541080000000 1.0
C      1  0.5547270000000  0.5746170000000  0.4732070000000 1.0
C      1  0.5658440000000  0.4811930000000  0.5245760000000 1.0
C      1  0.4778620000000  0.4711850000000  0.4795840000000 1.0
C      1  0.4861710000000  0.4145740000000  0.5196450000000 1.0
C      1  0.4235110000000  0.5037930000000  0.4565490000000 1.0
C      1  0.5907960000000  0.4960200000000  0.5202160000000 1.0
C      1  0.4770620000000  0.4699750000000  0.4207380000000 1.0
C      1  0.5672830000000  0.4972030000000  0.4655930000000 1.0
C      1  0.4798520000000  0.4899420000000  0.5318770000000 1.0
C      1  0.4541260000000  0.5429450000000  0.5598290000000 1.0
END
