TITL C-884135-4325-93 29.5269657144821 125000 -13788.9485210294 0 0 95 (C1) n - 1
REM
REM in /home/nfs/bkarasulu/CARBON/AIRSS/Generating-Clusters/ReaxFF-fromJPCA2015/Units_Real/with-SteepDescent/Only-C1/SD-CG/Try1-3A/FIRE-CG
REM
REM
REM
REM
REM
REM ./C.cell (11c1c37f851c82e70ff6c80c92926a4b)
REM
REM compiler GCC version 9.2.1 20190827 (Red Hat 9.2.1-1)
REM options -cpp -mtune=generic -march=x86-64 -g -O0 -fpre-include=/usr/include/finclude/math-vector-fortran.h
REM seed 683157492 -464169110 -1043432464 -1386944163 1184935056 288146522 1880341622 1159779538 -1466725004 1726054955 1025972540 -731555832 -2034868811 903241381 -912822880 -118581193 1313192500 1288275605 1867503849 1485753742 98383269 -1201296901 201898131 -1164917519 -1619322502 1274702178 240589703 238912110 -187518120 -1337831427 45711948 -1152423389 -339439528
REM
CELL 1.54180   50.00000   50.00000   50.00000   90.00000   90.00000   90.00000
LATT -1
SFAC C  
C      1  0.5221800000000  0.5708070000000  0.5108560000000 1.0
C      1  0.4893000000000  0.4678680000000  0.5053870000000 1.0
C      1  0.5089050000000  0.5604330000000  0.5784640000000 1.0
C      1  0.4995800000000  0.4462610000000  0.5506470000000 1.0
C      1  0.5486040000000  0.4884200000000  0.4380970000000 1.0
C      1  0.5729980000000  0.5660150000000  0.5250800000000 1.0
C      1  0.4313530000000  0.4597300000000  0.4728740000000 1.0
C      1  0.4742870000000  0.4513590000000  0.5648250000000 1.0
C      1  0.5212140000000  0.5141740000000  0.4115080000000 1.0
C      1  0.5252740000000  0.5044140000000  0.4825760000000 1.0
C      1  0.4824540000000  0.4968450000000  0.5115760000000 1.0
C      1  0.4697150000000  0.4944460000000  0.5741860000000 1.0
C      1  0.4253420000000  0.4976630000000  0.5030710000000 1.0
C      1  0.5446290000000  0.5073030000000  0.5414710000000 1.0
C      1  0.5809160000000  0.5464560000000  0.5121940000000 1.0
C      1  0.4301630000000  0.5181390000000  0.4800810000000 1.0
C      1  0.5223940000000  0.4741410000000  0.4276420000000 1.0
C      1  0.4316600000000  0.5017490000000  0.4356570000000 1.0
C      1  0.5435660000000  0.4324410000000  0.5307680000000 1.0
C      1  0.4741470000000  0.5275760000000  0.4604140000000 1.0
C      1  0.4392840000000  0.4527020000000  0.5249520000000 1.0
C      1  0.4223090000000  0.5158840000000  0.5256950000000 1.0
C      1  0.5691680000000  0.4468190000000  0.4900160000000 1.0
C      1  0.4425410000000  0.4840910000000  0.4679950000000 1.0
C      1  0.4927510000000  0.4804040000000  0.4600590000000 1.0
C      1  0.4501260000000  0.4611500000000  0.5506550000000 1.0
C      1  0.4391730000000  0.5384180000000  0.5632420000000 1.0
C      1  0.5704460000000  0.4461130000000  0.4602740000000 1.0
C      1  0.5623650000000  0.4734100000000  0.5031740000000 1.0
C      1  0.5713950000000  0.4729230000000  0.5564020000000 1.0
C      1  0.4289970000000  0.5468400000000  0.4892590000000 1.0
C      1  0.5150680000000  0.5785060000000  0.4640760000000 1.0
C      1  0.5520020000000  0.5417060000000  0.4483430000000 1.0
C      1  0.5531030000000  0.4609190000000  0.5347140000000 1.0
C      1  0.5728680000000  0.4980850000000  0.5406870000000 1.0
C      1  0.4459630000000  0.4878920000000  0.5609080000000 1.0
C      1  0.5056010000000  0.5270790000000  0.4330180000000 1.0
C      1  0.4773200000000  0.5670410000000  0.5370830000000 1.0
C      1  0.4815580000000  0.5411140000000  0.4307290000000 1.0
C      1  0.4933340000000  0.5453260000000  0.5242660000000 1.0
C      1  0.5308510000000  0.5284190000000  0.4976780000000 1.0
C      1  0.4859760000000  0.5181610000000  0.5316930000000 1.0
C      1  0.5149280000000  0.4585340000000  0.4923920000000 1.0
C      1  0.5232070000000  0.4321200000000  0.4599080000000 1.0
C      1  0.4654140000000  0.4793690000000  0.4527740000000 1.0
C      1  0.4769340000000  0.4425690000000  0.4427650000000 1.0
C      1  0.5342470000000  0.4724320000000  0.5934980000000 1.0
C      1  0.5129190000000  0.5065140000000  0.5932790000000 1.0
C      1  0.5728290000000  0.4695700000000  0.4439830000000 1.0
C      1  0.4549740000000  0.5024520000000  0.4190530000000 1.0
C      1  0.5487120000000  0.4260990000000  0.4484940000000 1.0
C      1  0.4726940000000  0.5839180000000  0.5127030000000 1.0
C      1  0.4988320000000  0.5085320000000  0.4607800000000 1.0
C      1  0.5390170000000  0.5308570000000  0.5255380000000 1.0
C      1  0.5154860000000  0.5902580000000  0.4899510000000 1.0
C      1  0.4446890000000  0.5200850000000  0.4545950000000 1.0
C      1  0.4300740000000  0.5109010000000  0.5531030000000 1.0
C      1  0.5053450000000  0.4129170000000  0.5141390000000 1.0
C      1  0.4468220000000  0.5545020000000  0.5400040000000 1.0
C      1  0.5224210000000  0.4286680000000  0.4910360000000 1.0
C      1  0.4946980000000  0.5779140000000  0.5627640000000 1.0
C      1  0.5344360000000  0.4787180000000  0.4934590000000 1.0
C      1  0.5039090000000  0.4706990000000  0.5355250000000 1.0
C      1  0.5068490000000  0.4791790000000  0.5984540000000 1.0
C      1  0.5494960000000  0.5198760000000  0.4242490000000 1.0
C      1  0.4470160000000  0.5684740000000  0.4793590000000 1.0
C      1  0.4301420000000  0.5433030000000  0.5186350000000 1.0
C      1  0.5087910000000  0.5479970000000  0.4997990000000 1.0
C      1  0.4738990000000  0.5766200000000  0.4672660000000 1.0
C      1  0.5056540000000  0.5281660000000  0.5782050000000 1.0
C      1  0.5067770000000  0.4888990000000  0.4098810000000 1.0
C      1  0.4788180000000  0.4159280000000  0.5212200000000 1.0
C      1  0.4815170000000  0.4714700000000  0.5842300000000 1.0
C      1  0.4690540000000  0.4430610000000  0.4924320000000 1.0
C      1  0.5545090000000  0.4709780000000  0.5783740000000 1.0
C      1  0.5467320000000  0.5044740000000  0.4638000000000 1.0
C      1  0.4215000000000  0.4793310000000  0.4517680000000 1.0
C      1  0.4759060000000  0.4855860000000  0.4101000000000 1.0
C      1  0.5065520000000  0.4557800000000  0.4460240000000 1.0
C      1  0.5605960000000  0.5275810000000  0.4734230000000 1.0
C      1  0.5448700000000  0.5603290000000  0.5272920000000 1.0
C      1  0.4644870000000  0.4633270000000  0.4267980000000 1.0
C      1  0.4645160000000  0.5586350000000  0.5007900000000 1.0
C      1  0.5803970000000  0.5226350000000  0.4968230000000 1.0
C      1  0.4290380000000  0.4693720000000  0.5036220000000 1.0
C      1  0.5326620000000  0.5611170000000  0.4541030000000 1.0
C      1  0.5509980000000  0.4286910000000  0.5032230000000 1.0
C      1  0.4861130000000  0.5939890000000  0.4883640000000 1.0
C      1  0.4547480000000  0.4289560000000  0.5139280000000 1.0
C      1  0.4864390000000  0.5136530000000  0.5617830000000 1.0
C      1  0.5163020000000  0.4239260000000  0.5386340000000 1.0
C      1  0.4835870000000  0.5504010000000  0.4788570000000 1.0
C      1  0.5789620000000  0.4981830000000  0.5122740000000 1.0
C      1  0.5305300000000  0.4814520000000  0.5385660000000 1.0
C      1  0.4590750000000  0.4417640000000  0.4656870000000 1.0
END
