TITL C-883740-3686-21 998506.094594277 125000 -9385.04714789962 0 0 64 (C1) n - 1
REM
REM in /home/nfs/bkarasulu/CARBON/AIRSS/Generating-Clusters/ReaxFF-fromJPCA2015/Units_Real/with-SteepDescent/Only-C1/SD-CG/Try1-3A/FIRE-CG
REM
REM
REM
REM
REM
REM ./C.cell (11c1c37f851c82e70ff6c80c92926a4b)
REM
REM compiler GCC version 9.2.1 20190827 (Red Hat 9.2.1-1)
REM options -cpp -mtune=generic -march=x86-64 -g -O0 -fpre-include=/usr/include/finclude/math-vector-fortran.h
REM seed -2131781291 1406038682 -474185204 1494823593 1020720551 -283856564 1630269835 -1448171312 780743450 313721108 650654003 -475661322 -1883617410 -879035742 754891639 -276302474 1489584315 372348158 1549446203 -1091652308 -1836746428 -1914055374 1039426585 -748589292 -787946652 1533679979 -1498826845 -1173555505 1167599773 375577806 1095030585 -1452738546 790604026
REM
CELL 1.54180   50.00000   50.00000   50.00000   90.00000   90.00000   90.00000
LATT -1
SFAC C  
C      1  0.4440690000000  0.5089970000000  0.4735380000000 1.0
C      1  0.5543160000000  0.5616740000000  0.4971110000000 1.0
C      1  0.4931640000000  0.5611100000000  0.5441210000000 1.0
C      1  0.4641280000000  0.4532620000000  0.5625890000000 1.0
C      1  0.5161880000000  0.5577430000000  0.4506660000000 1.0
C      1  0.5486060000000  0.5026290000000  0.4807130000000 1.0
C      1  0.4824430000000  0.5733130000000  0.4786360000000 1.0
C      1  0.5307680000000  0.5244320000000  0.5736140000000 1.0
C      1  0.4878360000000  0.4700140000000  0.5664330000000 1.0
C      1  0.4928210000000  0.4428450000000  0.4442830000000 1.0
C      1  0.5293700000000  0.4468850000000  0.5501130000000 1.0
C      1  0.5288100000000  0.5407000000000  0.4711320000000 1.0
C      1  0.4567140000000  0.5398900000000  0.5157120000000 1.0
C      1  0.5253980000000  0.5225810000000  0.4310660000000 1.0
C      1  0.4672660000000  0.5044620000000  0.4534950000000 1.0
C      1  0.4948680000000  0.5122570000000  0.5173730000000 1.0
C      1  0.5342960000000  0.4579910000000  0.5050740000000 1.0
C      1  0.5019900000000  0.5384390000000  0.4330490000000 1.0
C      1  0.4767900000000  0.5325060000000  0.4475490000000 1.0
C      1  0.5453960000000  0.5162090000000  0.5338150000000 1.0
C      1  0.5517770000000  0.4690650000000  0.4549410000000 1.0
C      1  0.4199140000000  0.5037670000000  0.5324440000000 1.0
C      1  0.5627230000000  0.5192770000000  0.4609700000000 1.0
C      1  0.4329620000000  0.4838720000000  0.4832350000000 1.0
C      1  0.5146190000000  0.4349890000000  0.4948730000000 1.0
C      1  0.5213110000000  0.5602020000000  0.5363480000000 1.0
C      1  0.5516300000000  0.4886770000000  0.5450700000000 1.0
C      1  0.4939420000000  0.4888270000000  0.4997260000000 1.0
C      1  0.4615050000000  0.4817450000000  0.5669620000000 1.0
C      1  0.5578390000000  0.5469000000000  0.4715610000000 1.0
C      1  0.4832740000000  0.5373540000000  0.5582370000000 1.0
C      1  0.4511570000000  0.4967390000000  0.5444910000000 1.0
C      1  0.5048660000000  0.5798940000000  0.4638640000000 1.0
C      1  0.4936310000000  0.4378760000000  0.4755390000000 1.0
C      1  0.5118850000000  0.4736970000000  0.5175080000000 1.0
C      1  0.5533480000000  0.4803920000000  0.4293240000000 1.0
C      1  0.4237510000000  0.4831910000000  0.5126520000000 1.0
C      1  0.4504760000000  0.5341700000000  0.4872420000000 1.0
C      1  0.4714240000000  0.5198200000000  0.5348590000000 1.0
C      1  0.5002020000000  0.4231590000000  0.5170300000000 1.0
C      1  0.5378850000000  0.5397110000000  0.5494540000000 1.0
C      1  0.4711540000000  0.4324670000000  0.5149760000000 1.0
C      1  0.5008550000000  0.5263420000000  0.5789350000000 1.0
C      1  0.5499600000000  0.5111300000000  0.4347850000000 1.0
C      1  0.5454500000000  0.4974460000000  0.5727470000000 1.0
C      1  0.4722260000000  0.4583270000000  0.4361360000000 1.0
C      1  0.5324680000000  0.4641080000000  0.4199480000000 1.0
C      1  0.5281940000000  0.5697620000000  0.5091730000000 1.0
C      1  0.5505050000000  0.4731180000000  0.4819770000000 1.0
C      1  0.4675290000000  0.4409090000000  0.4878470000000 1.0
C      1  0.4834080000000  0.4929260000000  0.4741110000000 1.0
C      1  0.5093470000000  0.4529390000000  0.4242910000000 1.0
C      1  0.4454090000000  0.4583510000000  0.4755550000000 1.0
C      1  0.5483810000000  0.4612290000000  0.5330370000000 1.0
C      1  0.4684590000000  0.5490140000000  0.4694730000000 1.0
C      1  0.5070410000000  0.5811550000000  0.4917560000000 1.0
C      1  0.4695650000000  0.5646420000000  0.5250530000000 1.0
C      1  0.4476010000000  0.4737240000000  0.5274950000000 1.0
C      1  0.5219670000000  0.5200620000000  0.5157600000000 1.0
C      1  0.5090170000000  0.4689870000000  0.5458700000000 1.0
C      1  0.5164120000000  0.4211820000000  0.5424300000000 1.0
C      1  0.4557970000000  0.4468780000000  0.5352370000000 1.0
C      1  0.4508660000000  0.4672900000000  0.4496910000000 1.0
C      1  0.5230300000000  0.5167470000000  0.4873080000000 1.0
END
