TITL C-883740-3686-94 17.2181406019712 125000 -22172.1657566255 0 0 150 (C1) n - 1
REM
REM in /home/nfs/bkarasulu/CARBON/AIRSS/Generating-Clusters/ReaxFF-fromJPCA2015/Units_Real/with-SteepDescent/Only-C1/SD-CG/Try1-3A/FIRE-CG
REM
REM
REM
REM
REM
REM ./C.cell (11c1c37f851c82e70ff6c80c92926a4b)
REM
REM compiler GCC version 9.2.1 20190827 (Red Hat 9.2.1-1)
REM options -cpp -mtune=generic -march=x86-64 -g -O0 -fpre-include=/usr/include/finclude/math-vector-fortran.h
REM seed -682074216 -1098069938 -1457216778 990616035 1962294600 432292207 315116032 1719067158 -1605658727 1278782760 -1497909714 1285703031 -24715257 -1618248195 496544642 501118428 -1638452437 651614100 -723596577 187812614 -1965212318 783518749 -530862759 -1865061144 -1974449544 -1864761815 -1219304141 -882381651 1879849126 1538331121 -1546316042 450050119 -22623319
REM
CELL 1.54180   50.00000   50.00000   50.00000   90.00000   90.00000   90.00000
LATT -1
SFAC C  
C      1  0.4936470000000  0.6034390000000  0.4897750000000 1.0
C      1  0.4835980000000  0.5808940000000  0.5299760000000 1.0
C      1  0.4546790000000  0.4065230000000  0.4854760000000 1.0
C      1  0.5024850000000  0.5796710000000  0.4563710000000 1.0
C      1  0.5062300000000  0.6001200000000  0.5341370000000 1.0
C      1  0.4958630000000  0.5198010000000  0.3971100000000 1.0
C      1  0.4405570000000  0.4937820000000  0.5163180000000 1.0
C      1  0.5014660000000  0.3777970000000  0.5415150000000 1.0
C      1  0.5678260000000  0.4893190000000  0.4103520000000 1.0
C      1  0.5023940000000  0.5520520000000  0.5004160000000 1.0
C      1  0.4761870000000  0.4468490000000  0.5127590000000 1.0
C      1  0.4345900000000  0.5842390000000  0.4779660000000 1.0
C      1  0.5160120000000  0.4983310000000  0.5812750000000 1.0
C      1  0.6069470000000  0.4915240000000  0.4813370000000 1.0
C      1  0.5894020000000  0.4808840000000  0.5545710000000 1.0
C      1  0.4526150000000  0.4898980000000  0.4734030000000 1.0
C      1  0.4358270000000  0.5585510000000  0.5512650000000 1.0
C      1  0.4917530000000  0.4795010000000  0.4128360000000 1.0
C      1  0.5487950000000  0.4434310000000  0.4298670000000 1.0
C      1  0.5085340000000  0.5248710000000  0.5901570000000 1.0
C      1  0.5907700000000  0.4515030000000  0.5062900000000 1.0
C      1  0.5247410000000  0.4263260000000  0.4303900000000 1.0
C      1  0.5724670000000  0.5290530000000  0.5596320000000 1.0
C      1  0.5286110000000  0.4942010000000  0.5098350000000 1.0
C      1  0.5793540000000  0.4915630000000  0.4382540000000 1.0
C      1  0.5286320000000  0.4271320000000  0.4773450000000 1.0
C      1  0.4581070000000  0.5972240000000  0.5248130000000 1.0
C      1  0.6001860000000  0.4650000000000  0.4808420000000 1.0
C      1  0.4515710000000  0.5738450000000  0.5709820000000 1.0
C      1  0.4765130000000  0.5622720000000  0.5842120000000 1.0
C      1  0.5688480000000  0.5012800000000  0.5641640000000 1.0
C      1  0.4367880000000  0.5868260000000  0.5071210000000 1.0
C      1  0.4786700000000  0.5279440000000  0.5419090000000 1.0
C      1  0.4646170000000  0.4926790000000  0.4998730000000 1.0
C      1  0.4666310000000  0.4694710000000  0.4008520000000 1.0
C      1  0.4972670000000  0.5169100000000  0.4711790000000 1.0
C      1  0.5476610000000  0.5479300000000  0.5627530000000 1.0
C      1  0.4668330000000  0.4383210000000  0.5509190000000 1.0
C      1  0.5407520000000  0.5190070000000  0.4673350000000 1.0
C      1  0.4925600000000  0.4876800000000  0.4423540000000 1.0
C      1  0.5881730000000  0.4656160000000  0.4541090000000 1.0
C      1  0.4170590000000  0.5611040000000  0.4693770000000 1.0
C      1  0.6057670000000  0.5144200000000  0.4681360000000 1.0
C      1  0.4929000000000  0.4516380000000  0.5586080000000 1.0
C      1  0.5937170000000  0.4702680000000  0.5275170000000 1.0
C      1  0.4569680000000  0.5169330000000  0.5967700000000 1.0
C      1  0.4886990000000  0.5550930000000  0.5438580000000 1.0
C      1  0.4885720000000  0.4358770000000  0.5859030000000 1.0
C      1  0.4735650000000  0.3966830000000  0.4695160000000 1.0
C      1  0.4987520000000  0.4651820000000  0.4604080000000 1.0
C      1  0.4328860000000  0.4680650000000  0.5256160000000 1.0
C      1  0.5520900000000  0.5894680000000  0.4770150000000 1.0
C      1  0.5482050000000  0.4712120000000  0.4724370000000 1.0
C      1  0.4310080000000  0.5401640000000  0.4859470000000 1.0
C      1  0.5425190000000  0.4009630000000  0.5159580000000 1.0
C      1  0.4582250000000  0.4350540000000  0.5903850000000 1.0
C      1  0.4834550000000  0.5313420000000  0.4919330000000 1.0
C      1  0.4141730000000  0.4541290000000  0.5107730000000 1.0
C      1  0.4244590000000  0.5672020000000  0.5252790000000 1.0
C      1  0.5041930000000  0.5668740000000  0.5715210000000 1.0
C      1  0.4788740000000  0.5432620000000  0.4337460000000 1.0
C      1  0.4846750000000  0.4736590000000  0.6190140000000 1.0
C      1  0.5303140000000  0.4857170000000  0.4259670000000 1.0
C      1  0.3794200000000  0.5231870000000  0.5435090000000 1.0
C      1  0.5534680000000  0.5364740000000  0.4227410000000 1.0
C      1  0.5817860000000  0.4919370000000  0.5163670000000 1.0
C      1  0.3906870000000  0.5199660000000  0.4771610000000 1.0
C      1  0.5133130000000  0.4499730000000  0.5362200000000 1.0
C      1  0.5230070000000  0.5531320000000  0.5178140000000 1.0
C      1  0.4908750000000  0.5366720000000  0.3790580000000 1.0
C      1  0.4528120000000  0.5956310000000  0.5526460000000 1.0
C      1  0.5238220000000  0.5046360000000  0.4048920000000 1.0
C      1  0.5394150000000  0.4915780000000  0.5640800000000 1.0
C      1  0.5127990000000  0.4671400000000  0.5114920000000 1.0
C      1  0.5163210000000  0.3871700000000  0.5187520000000 1.0
C      1  0.5197650000000  0.4116300000000  0.4543640000000 1.0
C      1  0.4359640000000  0.4605680000000  0.4403760000000 1.0
C      1  0.5208310000000  0.5887940000000  0.5564670000000 1.0
C      1  0.4521190000000  0.5057060000000  0.4249580000000 1.0
C      1  0.4917330000000  0.3993030000000  0.4500400000000 1.0
C      1  0.4421400000000  0.4394740000000  0.5654280000000 1.0
C      1  0.5989810000000  0.5159440000000  0.5141580000000 1.0
C      1  0.5561850000000  0.4209650000000  0.5325230000000 1.0
C      1  0.5794070000000  0.5418610000000  0.4348930000000 1.0
C      1  0.5934820000000  0.5286670000000  0.4880900000000 1.0
C      1  0.4964830000000  0.4292890000000  0.4195460000000 1.0
C      1  0.5376750000000  0.4393330000000  0.5478090000000 1.0
C      1  0.5346440000000  0.5329210000000  0.5334960000000 1.0
C      1  0.4634920000000  0.4938220000000  0.6128330000000 1.0
C      1  0.5295470000000  0.5703010000000  0.4482380000000 1.0
C      1  0.5462530000000  0.4607400000000  0.5665810000000 1.0
C      1  0.5424640000000  0.5974340000000  0.5023150000000 1.0
C      1  0.5515350000000  0.4157560000000  0.4917460000000 1.0
C      1  0.4902980000000  0.4521120000000  0.4021710000000 1.0
C      1  0.5160340000000  0.6092320000000  0.5079880000000 1.0
C      1  0.5487730000000  0.4670940000000  0.4123830000000 1.0
C      1  0.5466470000000  0.4930840000000  0.4511750000000 1.0
C      1  0.4742510000000  0.4797970000000  0.5921150000000 1.0
C      1  0.5935080000000  0.5172260000000  0.4435990000000 1.0
C      1  0.5631140000000  0.4515460000000  0.4544940000000 1.0
C      1  0.4442410000000  0.4121260000000  0.5118690000000 1.0
C      1  0.5200730000000  0.5125300000000  0.4867980000000 1.0
C      1  0.4320360000000  0.4852790000000  0.5622930000000 1.0
C      1  0.5839530000000  0.5334680000000  0.5330010000000 1.0
C      1  0.5704490000000  0.5635450000000  0.4508610000000 1.0
C      1  0.4750200000000  0.4502250000000  0.4647230000000 1.0
C      1  0.4125290000000  0.5465790000000  0.5087660000000 1.0
C      1  0.5300360000000  0.5397440000000  0.4424540000000 1.0
C      1  0.5227190000000  0.5057100000000  0.5369190000000 1.0
C      1  0.4253850000000  0.4294640000000  0.4989040000000 1.0
C      1  0.4513600000000  0.4362690000000  0.4491710000000 1.0
C      1  0.4444670000000  0.4776500000000  0.4183170000000 1.0
C      1  0.4594770000000  0.5430140000000  0.4797320000000 1.0
C      1  0.4278640000000  0.4752300000000  0.4648780000000 1.0
C      1  0.4403890000000  0.5092500000000  0.5732430000000 1.0
C      1  0.5018220000000  0.5275330000000  0.4437430000000 1.0
C      1  0.4831350000000  0.6016390000000  0.4617640000000 1.0
C      1  0.4736490000000  0.4356810000000  0.4888080000000 1.0
C      1  0.4577860000000  0.5862690000000  0.4599100000000 1.0
C      1  0.4288610000000  0.5145840000000  0.5314280000000 1.0
C      1  0.4688760000000  0.5260550000000  0.4119020000000 1.0
C      1  0.5515930000000  0.5137080000000  0.4044590000000 1.0
C      1  0.5210780000000  0.4567570000000  0.4796930000000 1.0
C      1  0.5730930000000  0.4587590000000  0.5601440000000 1.0
C      1  0.5597810000000  0.5357290000000  0.5171030000000 1.0
C      1  0.5442680000000  0.5734130000000  0.5204840000000 1.0
C      1  0.5244020000000  0.5466900000000  0.5813360000000 1.0
C      1  0.4751040000000  0.4175490000000  0.4346960000000 1.0
C      1  0.4796490000000  0.5354300000000  0.5935180000000 1.0
C      1  0.4234810000000  0.4607310000000  0.5510730000000 1.0
C      1  0.4916400000000  0.3985880000000  0.5304080000000 1.0
C      1  0.4351440000000  0.4223540000000  0.4725940000000 1.0
C      1  0.3952140000000  0.4945920000000  0.4818300000000 1.0
C      1  0.4841950000000  0.4772790000000  0.5162050000000 1.0
C      1  0.3999570000000  0.5225790000000  0.5270090000000 1.0
C      1  0.4927920000000  0.4844570000000  0.5693350000000 1.0
C      1  0.4622940000000  0.5575190000000  0.4540080000000 1.0
C      1  0.4069450000000  0.4697620000000  0.4855650000000 1.0
C      1  0.4671750000000  0.4226840000000  0.5284850000000 1.0
C      1  0.5711390000000  0.4312910000000  0.5089360000000 1.0
C      1  0.4467540000000  0.5297840000000  0.5488420000000 1.0
C      1  0.5628640000000  0.5220990000000  0.4906580000000 1.0
C      1  0.5452590000000  0.5757070000000  0.5498370000000 1.0
C      1  0.5049570000000  0.5762460000000  0.4853460000000 1.0
C      1  0.4925420000000  0.5019190000000  0.5412510000000 1.0
C      1  0.5581370000000  0.4918650000000  0.4988400000000 1.0
C      1  0.4665630000000  0.4994390000000  0.4496870000000 1.0
C      1  0.4921640000000  0.4485690000000  0.6105810000000 1.0
C      1  0.3926880000000  0.5460450000000  0.4734420000000 1.0
C      1  0.5517170000000  0.5689420000000  0.4649020000000 1.0
END
