TITL C-884142-5251-61 -5.56024484943251 125000 -9808.41520552221 0 0 66 (C1) n - 1
REM
REM in /home/nfs/bkarasulu/CARBON/AIRSS/Generating-Clusters/ReaxFF-fromJPCA2015/Units_Real/with-SteepDescent/Only-C1/SD-CG/Try1-3A/FIRE-CG
REM
REM
REM
REM
REM
REM ./C.cell (11c1c37f851c82e70ff6c80c92926a4b)
REM
REM compiler GCC version 9.2.1 20190827 (Red Hat 9.2.1-1)
REM options -cpp -mtune=generic -march=x86-64 -g -O0 -fpre-include=/usr/include/finclude/math-vector-fortran.h
REM seed -1145158970 -64289626 690382346 -826507898 -1082645266 495210152 277941098 -673674056 -1418387107 -1741286282 -1865181516 -1652999951 1513423434 -74372019 -1382529477 285422715 1336109825 -1469766173 1314131013 1885043665 811772743 965714557 1147653505 -2127467996 615512621 1543442400 971926541 615056322 -167582096 -1977434522 554210938 -65416726 26478379
REM
CELL 1.54180   50.00000   50.00000   50.00000   90.00000   90.00000   90.00000
LATT -1
SFAC C  
C      1  0.5085600000000  0.4537730000000  0.5124410000000 1.0
C      1  0.5538410000000  0.4610710000000  0.4587670000000 1.0
C      1  0.4848930000000  0.5182620000000  0.4138020000000 1.0
C      1  0.5482940000000  0.4651090000000  0.5452090000000 1.0
C      1  0.5042810000000  0.4682960000000  0.4567760000000 1.0
C      1  0.5280100000000  0.4498150000000  0.4590720000000 1.0
C      1  0.5409510000000  0.5210170000000  0.5037850000000 1.0
C      1  0.4382640000000  0.4596260000000  0.5471180000000 1.0
C      1  0.5393190000000  0.5630310000000  0.4764460000000 1.0
C      1  0.5727950000000  0.4862010000000  0.5069890000000 1.0
C      1  0.4813490000000  0.4623930000000  0.5781290000000 1.0
C      1  0.4842330000000  0.4332610000000  0.5395110000000 1.0
C      1  0.4740480000000  0.5066170000000  0.4804590000000 1.0
C      1  0.4636470000000  0.5195040000000  0.5115600000000 1.0
C      1  0.5110990000000  0.5667640000000  0.4693980000000 1.0
C      1  0.4786950000000  0.4355740000000  0.4854260000000 1.0
C      1  0.4620340000000  0.5685670000000  0.4843320000000 1.0
C      1  0.5454930000000  0.4502140000000  0.4823830000000 1.0
C      1  0.5273170000000  0.4562380000000  0.5639090000000 1.0
C      1  0.4602980000000  0.4812040000000  0.4689360000000 1.0
C      1  0.5454000000000  0.4741270000000  0.5003610000000 1.0
C      1  0.5352280000000  0.5408380000000  0.4370740000000 1.0
C      1  0.4318600000000  0.4851830000000  0.4634030000000 1.0
C      1  0.4111630000000  0.4873830000000  0.5070110000000 1.0
C      1  0.5422900000000  0.5502120000000  0.5023290000000 1.0
C      1  0.5410290000000  0.5390950000000  0.5465800000000 1.0
C      1  0.4845500000000  0.5366880000000  0.4375090000000 1.0
C      1  0.4962180000000  0.4863080000000  0.5855680000000 1.0
C      1  0.5640730000000  0.4887060000000  0.5344990000000 1.0
C      1  0.5746210000000  0.5277320000000  0.4707410000000 1.0
C      1  0.5093100000000  0.5517060000000  0.4445080000000 1.0
C      1  0.5233790000000  0.4836520000000  0.5733060000000 1.0
C      1  0.4994470000000  0.5150920000000  0.5472860000000 1.0
C      1  0.5180680000000  0.4937910000000  0.5467410000000 1.0
C      1  0.4993560000000  0.5557530000000  0.5166070000000 1.0
C      1  0.4439780000000  0.5644250000000  0.5054260000000 1.0
C      1  0.4388200000000  0.5376280000000  0.5121140000000 1.0
C      1  0.4577910000000  0.4985330000000  0.5624110000000 1.0
C      1  0.5548510000000  0.4892440000000  0.4618250000000 1.0
C      1  0.4172900000000  0.5039160000000  0.4827590000000 1.0
C      1  0.5100990000000  0.5020790000000  0.4134060000000 1.0
C      1  0.4989470000000  0.4459230000000  0.5613270000000 1.0
C      1  0.4871200000000  0.5315210000000  0.5254060000000 1.0
C      1  0.4931340000000  0.4292470000000  0.5114870000000 1.0
C      1  0.4470330000000  0.5462200000000  0.4692480000000 1.0
C      1  0.5287210000000  0.4701540000000  0.5246630000000 1.0
C      1  0.4768400000000  0.4559880000000  0.4653620000000 1.0
C      1  0.4662390000000  0.4725500000000  0.5178450000000 1.0
C      1  0.5552660000000  0.5469270000000  0.4579160000000 1.0
C      1  0.5769030000000  0.5007320000000  0.4807970000000 1.0
C      1  0.4257210000000  0.4821500000000  0.5318880000000 1.0
C      1  0.5355930000000  0.5162780000000  0.4210950000000 1.0
C      1  0.4831480000000  0.5084220000000  0.5716920000000 1.0
C      1  0.5533610000000  0.5162040000000  0.5303810000000 1.0
C      1  0.4527000000000  0.4974870000000  0.5318070000000 1.0
C      1  0.5437050000000  0.4920130000000  0.4349870000000 1.0
C      1  0.4594990000000  0.4470000000000  0.5306740000000 1.0
C      1  0.4677200000000  0.5278400000000  0.4603550000000 1.0
C      1  0.5316680000000  0.4996870000000  0.4854290000000 1.0
C      1  0.4911650000000  0.5673520000000  0.4907680000000 1.0
C      1  0.4264990000000  0.5322250000000  0.4858830000000 1.0
C      1  0.5018950000000  0.4920020000000  0.4816340000000 1.0
C      1  0.4539890000000  0.4709600000000  0.5696490000000 1.0
C      1  0.4917950000000  0.4755630000000  0.5048790000000 1.0
C      1  0.5277990000000  0.5572850000000  0.5273110000000 1.0
C      1  0.5172990000000  0.4796460000000  0.4316060000000 1.0
END
