TITL C-884132-5695-47 9006214.76883787 125000 -13195.5084294249 0 0 91 (C1) n - 1
REM
REM in /home/nfs/bkarasulu/CARBON/AIRSS/Generating-Clusters/ReaxFF-fromJPCA2015/Units_Real/with-SteepDescent/Only-C1/SD-CG/Try1-3A/FIRE-CG
REM
REM
REM
REM
REM
REM ./C.cell (11c1c37f851c82e70ff6c80c92926a4b)
REM
REM compiler GCC version 9.2.1 20190827 (Red Hat 9.2.1-1)
REM options -cpp -mtune=generic -march=x86-64 -g -O0 -fpre-include=/usr/include/finclude/math-vector-fortran.h
REM seed -221701819 2090930155 -142776044 62454027 -875601988 1526326884 -371565269 1819073351 1387945324 -70579268 262672438 -586362390 418621547 729996871 -91381467 1631279815 2039453271 -1368800049 -1693451568 1890283405 48070237 -33259573 -1495911596 -935684324 238222301 -14034347 2104375449 -1830842966 -2050258797 1819828338 -1273881417 1361853685 -1354043759
REM
CELL 1.54180   50.00000   50.00000   50.00000   90.00000   90.00000   90.00000
LATT -1
SFAC C  
C      1  0.5178800000000  0.5216560000000  0.5363090000000 1.0
C      1  0.4557330000000  0.5206650000000  0.4429730000000 1.0
C      1  0.4885870000000  0.5763570000000  0.5312230000000 1.0
C      1  0.4164120000000  0.4741830000000  0.4884000000000 1.0
C      1  0.4749050000000  0.4638230000000  0.5746900000000 1.0
C      1  0.4591420000000  0.5106810000000  0.4825610000000 1.0
C      1  0.5293300000000  0.5508400000000  0.5736690000000 1.0
C      1  0.5757340000000  0.4818620000000  0.5370780000000 1.0
C      1  0.5790710000000  0.5274790000000  0.5495900000000 1.0
C      1  0.4851410000000  0.4182380000000  0.5272480000000 1.0
C      1  0.5257630000000  0.5703880000000  0.5030040000000 1.0
C      1  0.5658200000000  0.5121070000000  0.4524340000000 1.0
C      1  0.4582680000000  0.4395560000000  0.4906010000000 1.0
C      1  0.4652420000000  0.5189050000000  0.5609200000000 1.0
C      1  0.5158520000000  0.4713710000000  0.4113500000000 1.0
C      1  0.5427560000000  0.5018920000000  0.5751440000000 1.0
C      1  0.5608420000000  0.4675950000000  0.4776530000000 1.0
C      1  0.5001690000000  0.4458470000000  0.5702710000000 1.0
C      1  0.4777300000000  0.5446020000000  0.5714300000000 1.0
C      1  0.4890310000000  0.5170930000000  0.4082780000000 1.0
C      1  0.4740130000000  0.5815160000000  0.4834620000000 1.0
C      1  0.5317090000000  0.5475070000000  0.5452700000000 1.0
C      1  0.5303540000000  0.4448330000000  0.5299920000000 1.0
C      1  0.5262570000000  0.4282380000000  0.4749080000000 1.0
C      1  0.4969660000000  0.5373170000000  0.4280540000000 1.0
C      1  0.4504140000000  0.5472470000000  0.4505840000000 1.0
C      1  0.5414680000000  0.5683580000000  0.5273660000000 1.0
C      1  0.5327740000000  0.4557520000000  0.4301460000000 1.0
C      1  0.4795620000000  0.5432200000000  0.4953410000000 1.0
C      1  0.5347820000000  0.4775370000000  0.5682480000000 1.0
C      1  0.4440090000000  0.4517000000000  0.4539910000000 1.0
C      1  0.4818150000000  0.5254520000000  0.4734280000000 1.0
C      1  0.4984390000000  0.5086330000000  0.4898960000000 1.0
C      1  0.4159760000000  0.4956720000000  0.4689180000000 1.0
C      1  0.4632570000000  0.4543940000000  0.4335030000000 1.0
C      1  0.5219300000000  0.5341690000000  0.4408880000000 1.0
C      1  0.4390310000000  0.4983570000000  0.4467110000000 1.0
C      1  0.4557590000000  0.4909460000000  0.5170620000000 1.0
C      1  0.5627320000000  0.5443490000000  0.4890120000000 1.0
C      1  0.5269470000000  0.4526590000000  0.5608030000000 1.0
C      1  0.5561340000000  0.4396720000000  0.5150000000000 1.0
C      1  0.5511380000000  0.4408850000000  0.4864910000000 1.0
C      1  0.4693120000000  0.4913760000000  0.5733050000000 1.0
C      1  0.5152920000000  0.4389760000000  0.4465940000000 1.0
C      1  0.5226850000000  0.4970140000000  0.5232730000000 1.0
C      1  0.5452730000000  0.4917310000000  0.4834200000000 1.0
C      1  0.4837440000000  0.4262340000000  0.5564930000000 1.0
C      1  0.5855020000000  0.4812710000000  0.4847970000000 1.0
C      1  0.4919180000000  0.5706090000000  0.4629200000000 1.0
C      1  0.4613400000000  0.4288650000000  0.5163290000000 1.0
C      1  0.5428550000000  0.5113340000000  0.4361850000000 1.0
C      1  0.5401330000000  0.5607850000000  0.4790720000000 1.0
C      1  0.5854760000000  0.5522490000000  0.5351240000000 1.0
C      1  0.5001800000000  0.5570470000000  0.5112120000000 1.0
C      1  0.5835200000000  0.5102250000000  0.4747690000000 1.0
C      1  0.4918030000000  0.4486150000000  0.4366990000000 1.0
C      1  0.4324710000000  0.4499910000000  0.4794700000000 1.0
C      1  0.4453340000000  0.4425050000000  0.5363620000000 1.0
C      1  0.4837120000000  0.5022320000000  0.5139990000000 1.0
C      1  0.4696350000000  0.5625670000000  0.5496220000000 1.0
C      1  0.5782500000000  0.4543570000000  0.5268810000000 1.0
C      1  0.5030600000000  0.5422910000000  0.5855680000000 1.0
C      1  0.4749940000000  0.4622400000000  0.4849320000000 1.0
C      1  0.4543090000000  0.5585060000000  0.4989030000000 1.0
C      1  0.5173560000000  0.4701280000000  0.5154450000000 1.0
C      1  0.5271460000000  0.5252810000000  0.5871190000000 1.0
C      1  0.4695800000000  0.4961530000000  0.4069930000000 1.0
C      1  0.5608380000000  0.5154480000000  0.4933220000000 1.0
C      1  0.4369030000000  0.4697960000000  0.5321210000000 1.0
C      1  0.4412250000000  0.5276400000000  0.5397400000000 1.0
C      1  0.4779220000000  0.5910780000000  0.5093820000000 1.0
C      1  0.4500190000000  0.5527570000000  0.5305390000000 1.0
C      1  0.4560390000000  0.4834110000000  0.4892650000000 1.0
C      1  0.4365970000000  0.5446890000000  0.4774020000000 1.0
C      1  0.5122090000000  0.4209290000000  0.5212160000000 1.0
C      1  0.5166630000000  0.4903220000000  0.4792180000000 1.0
C      1  0.5384520000000  0.4842560000000  0.4242600000000 1.0
C      1  0.5028570000000  0.4675220000000  0.4900430000000 1.0
C      1  0.5679250000000  0.5019000000000  0.5571440000000 1.0
C      1  0.5185570000000  0.5555060000000  0.4599150000000 1.0
C      1  0.4778000000000  0.5558200000000  0.4427790000000 1.0
C      1  0.5105370000000  0.4201720000000  0.4952980000000 1.0
C      1  0.5663680000000  0.5614080000000  0.5132440000000 1.0
C      1  0.4204630000000  0.5220660000000  0.4757650000000 1.0
C      1  0.4518250000000  0.4821250000000  0.4255540000000 1.0
C      1  0.4307470000000  0.5094230000000  0.5203310000000 1.0
C      1  0.5918970000000  0.4765320000000  0.5128750000000 1.0
C      1  0.4166600000000  0.4832480000000  0.5163060000000 1.0
C      1  0.4890220000000  0.5160680000000  0.5379630000000 1.0
C      1  0.4592170000000  0.4405290000000  0.5621800000000 1.0
C      1  0.4955050000000  0.4912180000000  0.4147520000000 1.0
END
