TITL C-884135-4325-219 10.1483955017048 125000 -8256.95557944576 0 0 57 (C1) n - 1
REM
REM in /home/nfs/bkarasulu/CARBON/AIRSS/Generating-Clusters/ReaxFF-fromJPCA2015/Units_Real/with-SteepDescent/Only-C1/SD-CG/Try1-3A/FIRE-CG
REM
REM
REM
REM
REM
REM ./C.cell (11c1c37f851c82e70ff6c80c92926a4b)
REM
REM compiler GCC version 9.2.1 20190827 (Red Hat 9.2.1-1)
REM options -cpp -mtune=generic -march=x86-64 -g -O0 -fpre-include=/usr/include/finclude/math-vector-fortran.h
REM seed -1081639156 1411261425 318191061 -1778400050 591455138 -1057362199 1150275035 1413510964 -596792060 1827040892 -285364504 -669311323 -998102383 -1746237825 -81397668 -773051353 573285529 2090776327 -707650758 -1748786266 -1929818309 888973243 455260729 1874190888 -1826537139 -325724054 1015655696 -1328563156 1214294400 -2066980123 -1598826583 2053242608 685457795
REM
CELL 1.54180   50.00000   50.00000   50.00000   90.00000   90.00000   90.00000
LATT -1
SFAC C  
C      1  0.4561570000000  0.5209020000000  0.4603360000000 1.0
C      1  0.4644200000000  0.5452990000000  0.5037050000000 1.0
C      1  0.4390220000000  0.4899310000000  0.5465690000000 1.0
C      1  0.4654980000000  0.5141070000000  0.4321710000000 1.0
C      1  0.4967630000000  0.5320460000000  0.5580180000000 1.0
C      1  0.5441390000000  0.4530360000000  0.4934180000000 1.0
C      1  0.4453000000000  0.5008970000000  0.4781270000000 1.0
C      1  0.5430860000000  0.5189840000000  0.5571620000000 1.0
C      1  0.5355750000000  0.5177640000000  0.5069940000000 1.0
C      1  0.5485000000000  0.5447690000000  0.5451860000000 1.0
C      1  0.4571930000000  0.4672060000000  0.5537630000000 1.0
C      1  0.5013240000000  0.5446110000000  0.4677590000000 1.0
C      1  0.5029630000000  0.4912020000000  0.4880610000000 1.0
C      1  0.4592640000000  0.4516310000000  0.5248160000000 1.0
C      1  0.4960490000000  0.4198120000000  0.4939190000000 1.0
C      1  0.5371160000000  0.4646330000000  0.4448160000000 1.0
C      1  0.5282980000000  0.5677490000000  0.5046800000000 1.0
C      1  0.4721680000000  0.4560540000000  0.4732610000000 1.0
C      1  0.5115390000000  0.5214380000000  0.4465920000000 1.0
C      1  0.4691990000000  0.4821970000000  0.4866000000000 1.0
C      1  0.5078900000000  0.4711560000000  0.4444990000000 1.0
C      1  0.5008540000000  0.5551670000000  0.5394660000000 1.0
C      1  0.4925480000000  0.5188870000000  0.4221860000000 1.0
C      1  0.4776070000000  0.4286340000000  0.5144770000000 1.0
C      1  0.5284100000000  0.5625680000000  0.5333390000000 1.0
C      1  0.5069230000000  0.4955290000000  0.4601480000000 1.0
C      1  0.4710520000000  0.4775450000000  0.5161560000000 1.0
C      1  0.4473760000000  0.5178080000000  0.5440550000000 1.0
C      1  0.5095430000000  0.4296890000000  0.4693240000000 1.0
C      1  0.4246050000000  0.4837730000000  0.5209460000000 1.0
C      1  0.4727380000000  0.5382490000000  0.4768560000000 1.0
C      1  0.5417690000000  0.4443850000000  0.5299200000000 1.0
C      1  0.5176690000000  0.4655330000000  0.5029530000000 1.0
C      1  0.5455100000000  0.5212610000000  0.4434740000000 1.0
C      1  0.5497580000000  0.5403310000000  0.4654430000000 1.0
C      1  0.5349550000000  0.4431190000000  0.4672490000000 1.0
C      1  0.4826610000000  0.4697450000000  0.5676150000000 1.0
C      1  0.4989790000000  0.5750110000000  0.4682150000000 1.0
C      1  0.5658650000000  0.5196380000000  0.4660330000000 1.0
C      1  0.4310470000000  0.5075210000000  0.5019720000000 1.0
C      1  0.5662060000000  0.4754670000000  0.4919020000000 1.0
C      1  0.5512030000000  0.5218880000000  0.5307030000000 1.0
C      1  0.5082500000000  0.4816900000000  0.5562360000000 1.0
C      1  0.5160300000000  0.5104440000000  0.5633170000000 1.0
C      1  0.5078420000000  0.5081520000000  0.5090510000000 1.0
C      1  0.4901820000000  0.4958110000000  0.5296670000000 1.0
C      1  0.4843890000000  0.5626390000000  0.5167080000000 1.0
C      1  0.4883820000000  0.4468670000000  0.4969930000000 1.0
C      1  0.5507900000000  0.4896290000000  0.4430440000000 1.0
C      1  0.5583790000000  0.5025880000000  0.4890020000000 1.0
C      1  0.4921650000000  0.4485990000000  0.4543690000000 1.0
C      1  0.5238710000000  0.4641180000000  0.5324390000000 1.0
C      1  0.4291350000000  0.4565080000000  0.5135820000000 1.0
C      1  0.4752490000000  0.5142350000000  0.5512280000000 1.0
C      1  0.5312360000000  0.5441300000000  0.4867090000000 1.0
C      1  0.5017750000000  0.5784860000000  0.4979490000000 1.0
C      1  0.4435860000000  0.5289320000000  0.5168240000000 1.0
END
