TITL C-884130-5973-360 14.4936882153287 125000 -21741.2145768279 0 0 145 (C1) n - 1
REM
REM in /home/nfs/bkarasulu/CARBON/AIRSS/Generating-Clusters/ReaxFF-fromJPCA2015/Units_Real/with-SteepDescent/Only-C1/SD-CG/Try1-3A/FIRE-CG
REM
REM
REM
REM
REM
REM ./C.cell (11c1c37f851c82e70ff6c80c92926a4b)
REM
REM compiler GCC version 9.2.1 20190827 (Red Hat 9.2.1-1)
REM options -cpp -mtune=generic -march=x86-64 -g -O0 -fpre-include=/usr/include/finclude/math-vector-fortran.h
REM seed -1517585723 -137643899 1941898131 1147050105 1656174210 -14575360 -1624206705 -141389512 1707974965 1342908038 -1720657127 1169617271 -451817454 -1408417727 1767112357 1991059736 841773808 2065882582 -1213476961 -1915393705 -935041411 -1034461268 1917589316 275023690 -1552225604 1841918537 2076161238 -599081420 1126439572 -488652567 -1049847623 -1728839530 -1758383453
REM
CELL 1.54180   50.00000   50.00000   50.00000   90.00000   90.00000   90.00000
LATT -1
SFAC C  
C      1  0.4087300000000  0.4734890000000  0.5627180000000 1.0
C      1  0.4875840000000  0.5063760000000  0.3774070000000 1.0
C      1  0.4394020000000  0.5435570000000  0.5118740000000 1.0
C      1  0.4809840000000  0.5594060000000  0.4890200000000 1.0
C      1  0.5258350000000  0.4617730000000  0.4562630000000 1.0
C      1  0.5330310000000  0.4347150000000  0.4476750000000 1.0
C      1  0.5166440000000  0.4130350000000  0.4887620000000 1.0
C      1  0.4571990000000  0.4851160000000  0.4134400000000 1.0
C      1  0.5384770000000  0.5813470000000  0.5014320000000 1.0
C      1  0.5042510000000  0.4703720000000  0.4328130000000 1.0
C      1  0.4167260000000  0.5480470000000  0.4734390000000 1.0
C      1  0.4959480000000  0.4352500000000  0.5808880000000 1.0
C      1  0.4511100000000  0.4765230000000  0.4819310000000 1.0
C      1  0.4026270000000  0.5251570000000  0.4603490000000 1.0
C      1  0.5501620000000  0.4479180000000  0.5743460000000 1.0
C      1  0.5124250000000  0.4423090000000  0.4839410000000 1.0
C      1  0.5493730000000  0.4722450000000  0.4912980000000 1.0
C      1  0.5333510000000  0.5237600000000  0.4577480000000 1.0
C      1  0.5358640000000  0.5379970000000  0.5931750000000 1.0
C      1  0.4713270000000  0.4780460000000  0.5758170000000 1.0
C      1  0.4895230000000  0.5081210000000  0.6063530000000 1.0
C      1  0.4668230000000  0.5865420000000  0.5246090000000 1.0
C      1  0.5711560000000  0.4919400000000  0.5683860000000 1.0
C      1  0.5476100000000  0.5770010000000  0.4518120000000 1.0
C      1  0.5403780000000  0.5587990000000  0.5210090000000 1.0
C      1  0.4710360000000  0.4299660000000  0.5394470000000 1.0
C      1  0.5623120000000  0.5277090000000  0.5882740000000 1.0
C      1  0.5761510000000  0.5512370000000  0.4867650000000 1.0
C      1  0.5807360000000  0.4671330000000  0.4548050000000 1.0
C      1  0.5661190000000  0.4644540000000  0.5574750000000 1.0
C      1  0.4413390000000  0.5568010000000  0.4596370000000 1.0
C      1  0.4703920000000  0.5498360000000  0.4006430000000 1.0
C      1  0.4241700000000  0.4647860000000  0.4874660000000 1.0
C      1  0.4943720000000  0.5983540000000  0.5239990000000 1.0
C      1  0.5598160000000  0.4987300000000  0.5953300000000 1.0
C      1  0.5506910000000  0.5045960000000  0.5503850000000 1.0
C      1  0.5060540000000  0.5303500000000  0.5909000000000 1.0
C      1  0.4456680000000  0.5140600000000  0.5149970000000 1.0
C      1  0.5563360000000  0.4175930000000  0.5125530000000 1.0
C      1  0.5455090000000  0.4089880000000  0.4866100000000 1.0
C      1  0.5638320000000  0.5098530000000  0.4264790000000 1.0
C      1  0.4636810000000  0.4997690000000  0.5967090000000 1.0
C      1  0.5201600000000  0.4810620000000  0.4096490000000 1.0
C      1  0.5130600000000  0.5274760000000  0.4377490000000 1.0
C      1  0.4918200000000  0.5330620000000  0.3899420000000 1.0
C      1  0.4070490000000  0.5038300000000  0.4400450000000 1.0
C      1  0.4782020000000  0.5604950000000  0.5640300000000 1.0
C      1  0.4691800000000  0.4148600000000  0.4739590000000 1.0
C      1  0.5912670000000  0.4793370000000  0.5068190000000 1.0
C      1  0.4085370000000  0.4977480000000  0.5474090000000 1.0
C      1  0.5954990000000  0.4890440000000  0.4635470000000 1.0
C      1  0.4848630000000  0.4659730000000  0.5095510000000 1.0
C      1  0.4289690000000  0.4256000000000  0.4747640000000 1.0
C      1  0.5088450000000  0.4516110000000  0.5126150000000 1.0
C      1  0.4811700000000  0.4971800000000  0.5539390000000 1.0
C      1  0.5563040000000  0.5720920000000  0.4803320000000 1.0
C      1  0.4285220000000  0.4299170000000  0.5261190000000 1.0
C      1  0.5980260000000  0.5252000000000  0.5240580000000 1.0
C      1  0.5829770000000  0.5563210000000  0.5455330000000 1.0
C      1  0.4153820000000  0.4981060000000  0.5764590000000 1.0
C      1  0.4490330000000  0.5330440000000  0.4446780000000 1.0
C      1  0.4803450000000  0.5933680000000  0.4575910000000 1.0
C      1  0.5623950000000  0.5373870000000  0.4146960000000 1.0
C      1  0.4910920000000  0.5308600000000  0.4547800000000 1.0
C      1  0.5809140000000  0.5273270000000  0.4709910000000 1.0
C      1  0.5393700000000  0.5322500000000  0.5086220000000 1.0
C      1  0.5086730000000  0.4996840000000  0.5218810000000 1.0
C      1  0.4742990000000  0.4831530000000  0.3878270000000 1.0
C      1  0.4284890000000  0.4523100000000  0.5516520000000 1.0
C      1  0.5623940000000  0.4500120000000  0.5080050000000 1.0
C      1  0.4688460000000  0.4323970000000  0.5706170000000 1.0
C      1  0.4998130000000  0.5588300000000  0.5831830000000 1.0
C      1  0.5558350000000  0.5583990000000  0.4324970000000 1.0
C      1  0.5292460000000  0.4694770000000  0.5792550000000 1.0
C      1  0.5556180000000  0.4249500000000  0.4643640000000 1.0
C      1  0.4509340000000  0.4129600000000  0.5235940000000 1.0
C      1  0.4880290000000  0.4382390000000  0.4677010000000 1.0
C      1  0.5033410000000  0.4823560000000  0.3858550000000 1.0
C      1  0.4491630000000  0.5613340000000  0.5652460000000 1.0
C      1  0.5145440000000  0.5349850000000  0.4090350000000 1.0
C      1  0.4482940000000  0.4214850000000  0.4545740000000 1.0
C      1  0.5510900000000  0.4778280000000  0.4626100000000 1.0
C      1  0.4463000000000  0.5350880000000  0.4152470000000 1.0
C      1  0.4054740000000  0.4709030000000  0.4656730000000 1.0
C      1  0.5083880000000  0.5289330000000  0.5389710000000 1.0
C      1  0.4984300000000  0.5410670000000  0.4783120000000 1.0
C      1  0.4517620000000  0.4545700000000  0.5714040000000 1.0
C      1  0.5132430000000  0.5957600000000  0.4998650000000 1.0
C      1  0.5897060000000  0.4527720000000  0.4944800000000 1.0
C      1  0.4631360000000  0.5184490000000  0.5435800000000 1.0
C      1  0.4582410000000  0.4408290000000  0.4317590000000 1.0
C      1  0.4405190000000  0.4700810000000  0.5317130000000 1.0
C      1  0.4441120000000  0.5791890000000  0.5413450000000 1.0
C      1  0.5011020000000  0.4243400000000  0.5319860000000 1.0
C      1  0.5269560000000  0.5525900000000  0.5451160000000 1.0
C      1  0.5582940000000  0.5112720000000  0.4549370000000 1.0
C      1  0.4386270000000  0.5094850000000  0.4053480000000 1.0
C      1  0.5123590000000  0.4219990000000  0.5604590000000 1.0
C      1  0.4645990000000  0.4577620000000  0.5261200000000 1.0
C      1  0.4703440000000  0.4665190000000  0.4625860000000 1.0
C      1  0.4883570000000  0.4940590000000  0.5022060000000 1.0
C      1  0.4279850000000  0.4943510000000  0.5258420000000 1.0
C      1  0.4396080000000  0.5131900000000  0.5861620000000 1.0
C      1  0.5362000000000  0.4849410000000  0.6051300000000 1.0
C      1  0.5045180000000  0.4278920000000  0.4429400000000 1.0
C      1  0.5654340000000  0.4920980000000  0.5038260000000 1.0
C      1  0.5436660000000  0.4992760000000  0.4082160000000 1.0
C      1  0.5414770000000  0.4212030000000  0.5648380000000 1.0
C      1  0.5050700000000  0.5107810000000  0.5615230000000 1.0
C      1  0.5086550000000  0.5969620000000  0.5495810000000 1.0
C      1  0.4694970000000  0.4048620000000  0.5015160000000 1.0
C      1  0.4691080000000  0.5137870000000  0.4570910000000 1.0
C      1  0.5399340000000  0.5265640000000  0.3973150000000 1.0
C      1  0.5809870000000  0.5319570000000  0.5613770000000 1.0
C      1  0.5518570000000  0.5102110000000  0.5218200000000 1.0
C      1  0.4450520000000  0.5322860000000  0.5648300000000 1.0
C      1  0.4232350000000  0.5641130000000  0.5271150000000 1.0
C      1  0.4633650000000  0.5737400000000  0.4705980000000 1.0
C      1  0.5511620000000  0.4655400000000  0.5319040000000 1.0
C      1  0.5072690000000  0.4853440000000  0.6099010000000 1.0
C      1  0.6070930000000  0.5040210000000  0.5077850000000 1.0
C      1  0.5189640000000  0.5729900000000  0.5646440000000 1.0
C      1  0.4976370000000  0.4047670000000  0.5092660000000 1.0
C      1  0.5246730000000  0.5313590000000  0.4833330000000 1.0
C      1  0.5273980000000  0.4935810000000  0.5619260000000 1.0
C      1  0.4180870000000  0.4757830000000  0.4394490000000 1.0
C      1  0.5800410000000  0.4415440000000  0.4690960000000 1.0
C      1  0.4875430000000  0.4444490000000  0.4269560000000 1.0
C      1  0.5242670000000  0.4750610000000  0.5247950000000 1.0
C      1  0.4870410000000  0.5670550000000  0.4142420000000 1.0
C      1  0.4963490000000  0.5863990000000  0.4326240000000 1.0
C      1  0.4976720000000  0.4634440000000  0.5906240000000 1.0
C      1  0.5875930000000  0.5478720000000  0.5143680000000 1.0
C      1  0.5473800000000  0.4160380000000  0.5379970000000 1.0
C      1  0.4403110000000  0.4627930000000  0.4249570000000 1.0
C      1  0.4193020000000  0.4369330000000  0.4994050000000 1.0
C      1  0.4622880000000  0.5034200000000  0.4902250000000 1.0
C      1  0.4767960000000  0.4862900000000  0.4422110000000 1.0
C      1  0.6043260000000  0.5112100000000  0.4777900000000 1.0
C      1  0.4702320000000  0.5583360000000  0.5149310000000 1.0
C      1  0.5211680000000  0.5914920000000  0.4489870000000 1.0
C      1  0.5055750000000  0.6002820000000  0.4720190000000 1.0
C      1  0.4820500000000  0.5421360000000  0.5383590000000 1.0
C      1  0.4131720000000  0.5552110000000  0.5014950000000 1.0
C      1  0.3926670000000  0.4981650000000  0.4651340000000 1.0
END
