TITL C-883738-3659-67 44.5329814104464 125000 -23901.6864245228 0 0 163 (C1) n - 1
REM
REM in /home/nfs/bkarasulu/CARBON/AIRSS/Generating-Clusters/ReaxFF-fromJPCA2015/Units_Real/with-SteepDescent/Only-C1/SD-CG/Try1-3A/FIRE-CG
REM
REM
REM
REM
REM
REM ./C.cell (11c1c37f851c82e70ff6c80c92926a4b)
REM
REM compiler GCC version 9.2.1 20190827 (Red Hat 9.2.1-1)
REM options -cpp -mtune=generic -march=x86-64 -g -O0 -fpre-include=/usr/include/finclude/math-vector-fortran.h
REM seed 1260182831 -752439511 1737195961 -1058550100 -1251006130 -1477482531 -1697355961 -1608427196 813627875 -1738687256 2037743061 172266843 -1147041160 -631922029 -1104452617 -1936100370 -1884863488 1462290523 -1549502262 -323105790 -1858721052 1513582439 1829163501 -1657793419 157137375 1543946389 -277924520 1202843417 -301398433 1188983615 -1364422023 1423272805 1685522107
REM
CELL 1.54180   50.00000   50.00000   50.00000   90.00000   90.00000   90.00000
LATT -1
SFAC C  
C      1  0.5304600000000  0.5118300000000  0.3927960000000 1.0
C      1  0.4460670000000  0.5449810000000  0.4899590000000 1.0
C      1  0.5759960000000  0.5811640000000  0.5337040000000 1.0
C      1  0.4213590000000  0.4986020000000  0.4407770000000 1.0
C      1  0.6039270000000  0.5257360000000  0.4797420000000 1.0
C      1  0.5373130000000  0.4449920000000  0.4854100000000 1.0
C      1  0.4360190000000  0.4447520000000  0.4259370000000 1.0
C      1  0.5289190000000  0.5044420000000  0.5449680000000 1.0
C      1  0.4297190000000  0.4604290000000  0.5565370000000 1.0
C      1  0.5705150000000  0.5369980000000  0.4423810000000 1.0
C      1  0.5560270000000  0.4349160000000  0.4378760000000 1.0
C      1  0.4530730000000  0.5080860000000  0.5087030000000 1.0
C      1  0.4322160000000  0.5188670000000  0.5639420000000 1.0
C      1  0.5312960000000  0.5766330000000  0.4465970000000 1.0
C      1  0.5208040000000  0.3975950000000  0.5238860000000 1.0
C      1  0.5129780000000  0.4717820000000  0.4138110000000 1.0
C      1  0.4899290000000  0.4206280000000  0.5853750000000 1.0
C      1  0.4974940000000  0.5665350000000  0.5734710000000 1.0
C      1  0.5035670000000  0.6032770000000  0.5316790000000 1.0
C      1  0.4183620000000  0.4566830000000  0.4415110000000 1.0
C      1  0.5124060000000  0.4437610000000  0.5873040000000 1.0
C      1  0.4086170000000  0.4988520000000  0.4680620000000 1.0
C      1  0.4266160000000  0.4616680000000  0.4682430000000 1.0
C      1  0.4181630000000  0.4403890000000  0.4868220000000 1.0
C      1  0.5875430000000  0.4489300000000  0.5255010000000 1.0
C      1  0.4780340000000  0.3997390000000  0.4614060000000 1.0
C      1  0.5323600000000  0.4845490000000  0.5245820000000 1.0
C      1  0.5338120000000  0.5064060000000  0.4592330000000 1.0
C      1  0.4831810000000  0.5533890000000  0.5239990000000 1.0
C      1  0.4524480000000  0.4251620000000  0.4395110000000 1.0
C      1  0.5448520000000  0.3921780000000  0.5082450000000 1.0
C      1  0.5265170000000  0.5651490000000  0.5761700000000 1.0
C      1  0.5791870000000  0.4634710000000  0.5500510000000 1.0
C      1  0.5234140000000  0.4579760000000  0.4634860000000 1.0
C      1  0.4300740000000  0.5609660000000  0.5668410000000 1.0
C      1  0.5667910000000  0.4799930000000  0.4143640000000 1.0
C      1  0.4891990000000  0.5081360000000  0.3907570000000 1.0
C      1  0.5923220000000  0.5178160000000  0.4540640000000 1.0
C      1  0.4962900000000  0.3959030000000  0.5074950000000 1.0
C      1  0.5192160000000  0.4988590000000  0.5940810000000 1.0
C      1  0.4772330000000  0.4648890000000  0.4755220000000 1.0
C      1  0.4654810000000  0.5420870000000  0.4726960000000 1.0
C      1  0.4660300000000  0.4973090000000  0.4042550000000 1.0
C      1  0.5547510000000  0.5116450000000  0.4783750000000 1.0
C      1  0.4850600000000  0.5417710000000  0.5829250000000 1.0
C      1  0.5354150000000  0.5433740000000  0.5930090000000 1.0
C      1  0.5391470000000  0.5724120000000  0.5497380000000 1.0
C      1  0.4842900000000  0.4888410000000  0.5233440000000 1.0
C      1  0.4454040000000  0.4203150000000  0.5189190000000 1.0
C      1  0.5143840000000  0.5402300000000  0.4693810000000 1.0
C      1  0.4940580000000  0.4500860000000  0.4106480000000 1.0
C      1  0.5815890000000  0.5555080000000  0.5286720000000 1.0
C      1  0.4855820000000  0.5337460000000  0.5433380000000 1.0
C      1  0.5487360000000  0.5285820000000  0.4263930000000 1.0
C      1  0.4978020000000  0.5602760000000  0.4029150000000 1.0
C      1  0.5105470000000  0.5274270000000  0.5989410000000 1.0
C      1  0.5698400000000  0.5687030000000  0.4773620000000 1.0
C      1  0.5554840000000  0.5069840000000  0.4076600000000 1.0
C      1  0.4199180000000  0.4743970000000  0.5117250000000 1.0
C      1  0.4231580000000  0.5750160000000  0.5006970000000 1.0
C      1  0.5567870000000  0.5274730000000  0.5811770000000 1.0
C      1  0.4067530000000  0.5057550000000  0.5348040000000 1.0
C      1  0.4798690000000  0.4133360000000  0.4349140000000 1.0
C      1  0.5608220000000  0.4461910000000  0.5659820000000 1.0
C      1  0.4901870000000  0.4606400000000  0.5990510000000 1.0
C      1  0.4913650000000  0.5577170000000  0.4696930000000 1.0
C      1  0.4954900000000  0.4854370000000  0.5848230000000 1.0
C      1  0.4019170000000  0.5227690000000  0.4827210000000 1.0
C      1  0.5719910000000  0.4244100000000  0.5257070000000 1.0
C      1  0.4619180000000  0.5656510000000  0.4342290000000 1.0
C      1  0.4689810000000  0.4307840000000  0.5679460000000 1.0
C      1  0.5526600000000  0.5968310000000  0.5394570000000 1.0
C      1  0.3953370000000  0.5087410000000  0.5080490000000 1.0
C      1  0.5900440000000  0.5498920000000  0.4803940000000 1.0
C      1  0.5671130000000  0.4997920000000  0.5828380000000 1.0
C      1  0.5496500000000  0.5238170000000  0.5527100000000 1.0
C      1  0.4207140000000  0.5418470000000  0.5497570000000 1.0
C      1  0.5198930000000  0.4421740000000  0.5086420000000 1.0
C      1  0.4303370000000  0.5625240000000  0.5260810000000 1.0
C      1  0.4824480000000  0.4461650000000  0.5441800000000 1.0
C      1  0.5486730000000  0.3968750000000  0.4819290000000 1.0
C      1  0.5968090000000  0.5001940000000  0.4956690000000 1.0
C      1  0.5103460000000  0.5489010000000  0.5159010000000 1.0
C      1  0.6066870000000  0.4768160000000  0.4817840000000 1.0
C      1  0.4217350000000  0.4928730000000  0.5546750000000 1.0
C      1  0.4557750000000  0.5549280000000  0.5139820000000 1.0
C      1  0.4925450000000  0.4771840000000  0.4994250000000 1.0
C      1  0.5803990000000  0.4915600000000  0.5576340000000 1.0
C      1  0.4721860000000  0.4694760000000  0.4194880000000 1.0
C      1  0.4765510000000  0.5137380000000  0.4874760000000 1.0
C      1  0.5013840000000  0.3975670000000  0.4783200000000 1.0
C      1  0.5572950000000  0.5623900000000  0.4511690000000 1.0
C      1  0.4430050000000  0.5764310000000  0.4535840000000 1.0
C      1  0.4921320000000  0.5855260000000  0.4753510000000 1.0
C      1  0.4984610000000  0.5071480000000  0.5428120000000 1.0
C      1  0.4637970000000  0.5216320000000  0.5751260000000 1.0
C      1  0.4678840000000  0.5013690000000  0.4590240000000 1.0
C      1  0.5196840000000  0.5930180000000  0.4686840000000 1.0
C      1  0.4439670000000  0.5870070000000  0.4835330000000 1.0
C      1  0.5740570000000  0.5315730000000  0.5168990000000 1.0
C      1  0.4634370000000  0.5141600000000  0.6073010000000 1.0
C      1  0.5295790000000  0.4216880000000  0.4423930000000 1.0
C      1  0.4011380000000  0.4835510000000  0.4937250000000 1.0
C      1  0.5043570000000  0.4271060000000  0.4273350000000 1.0
C      1  0.5353730000000  0.6002070000000  0.4927370000000 1.0
C      1  0.4613660000000  0.5193460000000  0.5335570000000 1.0
C      1  0.4653010000000  0.5986960000000  0.5482960000000 1.0
C      1  0.4110420000000  0.4496260000000  0.5137430000000 1.0
C      1  0.4710110000000  0.5342260000000  0.4251400000000 1.0
C      1  0.5267000000000  0.4158830000000  0.5459850000000 1.0
C      1  0.4520990000000  0.4865690000000  0.6126770000000 1.0
C      1  0.4697180000000  0.5962210000000  0.4927250000000 1.0
C      1  0.5266830000000  0.4036860000000  0.4650380000000 1.0
C      1  0.5501260000000  0.4564010000000  0.4185020000000 1.0
C      1  0.4660160000000  0.4753320000000  0.5409340000000 1.0
C      1  0.5140110000000  0.5745210000000  0.4227690000000 1.0
C      1  0.5167820000000  0.4935270000000  0.4991730000000 1.0
C      1  0.5217610000000  0.5295870000000  0.4963940000000 1.0
C      1  0.4480240000000  0.5174330000000  0.4151330000000 1.0
C      1  0.4602070000000  0.4612160000000  0.6005090000000 1.0
C      1  0.4517100000000  0.4124900000000  0.4661780000000 1.0
C      1  0.4762780000000  0.6045830000000  0.5204320000000 1.0
C      1  0.4243700000000  0.5557070000000  0.4508830000000 1.0
C      1  0.5616580000000  0.4148410000000  0.4998210000000 1.0
C      1  0.4313410000000  0.5262080000000  0.4383620000000 1.0
C      1  0.4811160000000  0.5356390000000  0.3977990000000 1.0
C      1  0.4838200000000  0.5785950000000  0.4210490000000 1.0
C      1  0.4420990000000  0.5863830000000  0.5648880000000 1.0
C      1  0.5925420000000  0.4556760000000  0.4971090000000 1.0
C      1  0.4915790000000  0.5915980000000  0.5572250000000 1.0
C      1  0.5768780000000  0.5169120000000  0.5424720000000 1.0
C      1  0.4521820000000  0.5243100000000  0.4578470000000 1.0
C      1  0.5950230000000  0.4885180000000  0.4551200000000 1.0
C      1  0.4802940000000  0.4641570000000  0.4465330000000 1.0
C      1  0.5061570000000  0.5001590000000  0.4127760000000 1.0
C      1  0.5550330000000  0.4224470000000  0.5494690000000 1.0
C      1  0.4316190000000  0.4753480000000  0.4259340000000 1.0
C      1  0.5511480000000  0.5310270000000  0.4983160000000 1.0
C      1  0.5293380000000  0.4567510000000  0.5322220000000 1.0
C      1  0.5306800000000  0.6072130000000  0.5211410000000 1.0
C      1  0.5209350000000  0.4851360000000  0.4718180000000 1.0
C      1  0.4857650000000  0.5257210000000  0.6213640000000 1.0
C      1  0.4741780000000  0.4131280000000  0.5179100000000 1.0
C      1  0.4366790000000  0.4188300000000  0.4909780000000 1.0
C      1  0.5411440000000  0.4553430000000  0.5851910000000 1.0
C      1  0.5828510000000  0.4730400000000  0.4360640000000 1.0
C      1  0.5694040000000  0.4907080000000  0.4925740000000 1.0
C      1  0.5125090000000  0.4419320000000  0.5531220000000 1.0
C      1  0.5440620000000  0.4833080000000  0.5920250000000 1.0
C      1  0.4779600000000  0.4972280000000  0.5633920000000 1.0
C      1  0.4910160000000  0.4365110000000  0.5169030000000 1.0
C      1  0.4459690000000  0.4822860000000  0.5185110000000 1.0
C      1  0.4922970000000  0.5151680000000  0.4363580000000 1.0
C      1  0.4291740000000  0.4400840000000  0.5352930000000 1.0
C      1  0.4173670000000  0.5504310000000  0.4792590000000 1.0
C      1  0.5733910000000  0.4532390000000  0.4533240000000 1.0
C      1  0.5661100000000  0.4592360000000  0.4825120000000 1.0
C      1  0.5190110000000  0.5258610000000  0.4451280000000 1.0
C      1  0.5288370000000  0.4647670000000  0.4357940000000 1.0
C      1  0.5506530000000  0.5764860000000  0.5002840000000 1.0
C      1  0.5345450000000  0.5631380000000  0.5224370000000 1.0
C      1  0.4464030000000  0.4489820000000  0.5766210000000 1.0
C      1  0.4515140000000  0.4779190000000  0.4720820000000 1.0
END
