TITL C-884135-4325-298 5.68996221626979 125000 -18287.644847179 0 0 124 (C1) n - 1
REM
REM in /home/nfs/bkarasulu/CARBON/AIRSS/Generating-Clusters/ReaxFF-fromJPCA2015/Units_Real/with-SteepDescent/Only-C1/SD-CG/Try1-3A/FIRE-CG
REM
REM
REM
REM
REM
REM ./C.cell (11c1c37f851c82e70ff6c80c92926a4b)
REM
REM compiler GCC version 9.2.1 20190827 (Red Hat 9.2.1-1)
REM options -cpp -mtune=generic -march=x86-64 -g -O0 -fpre-include=/usr/include/finclude/math-vector-fortran.h
REM seed -1590873275 -1283415269 -194602035 -749835615 -1857381180 -22503734 -1037999414 -163019401 1547991717 -1774801026 1104790262 1608227754 -666325915 1312803684 89105195 -382756871 -2125565235 -1677813540 2075044670 1837162962 452086862 -1883667137 672250587 -949218608 -506917425 -2013633022 561283035 -952159388 -1493277013 813880772 1056097826 315389167 -742163766
REM
CELL 1.54180   50.00000   50.00000   50.00000   90.00000   90.00000   90.00000
LATT -1
SFAC C  
C      1  0.5904200000000  0.4885780000000  0.5478310000000 1.0
C      1  0.4852190000000  0.5807800000000  0.5660490000000 1.0
C      1  0.5607470000000  0.5109790000000  0.4314640000000 1.0
C      1  0.4873520000000  0.4589180000000  0.4139400000000 1.0
C      1  0.4781190000000  0.5192520000000  0.4851450000000 1.0
C      1  0.5604420000000  0.4824820000000  0.4702960000000 1.0
C      1  0.5465700000000  0.5549080000000  0.4445290000000 1.0
C      1  0.5629310000000  0.5395260000000  0.4271120000000 1.0
C      1  0.5400600000000  0.4325520000000  0.4763280000000 1.0
C      1  0.4726630000000  0.4992010000000  0.4517540000000 1.0
C      1  0.4936170000000  0.4885130000000  0.5421950000000 1.0
C      1  0.4712170000000  0.5396320000000  0.5230930000000 1.0
C      1  0.5401760000000  0.5523260000000  0.4163230000000 1.0
C      1  0.4467190000000  0.4220300000000  0.4937720000000 1.0
C      1  0.5196500000000  0.5561120000000  0.5300580000000 1.0
C      1  0.4864170000000  0.5117380000000  0.5588380000000 1.0
C      1  0.5764470000000  0.4722820000000  0.5129070000000 1.0
C      1  0.5294030000000  0.5518850000000  0.5756240000000 1.0
C      1  0.4505440000000  0.5585860000000  0.5181260000000 1.0
C      1  0.5297510000000  0.4590590000000  0.5044450000000 1.0
C      1  0.5988700000000  0.4962930000000  0.5005090000000 1.0
C      1  0.4190230000000  0.5509560000000  0.5427850000000 1.0
C      1  0.5303650000000  0.5013450000000  0.5936500000000 1.0
C      1  0.4966570000000  0.4262010000000  0.5556620000000 1.0
C      1  0.5617830000000  0.4623240000000  0.5818220000000 1.0
C      1  0.4566540000000  0.5737190000000  0.5673950000000 1.0
C      1  0.4212900000000  0.4658150000000  0.4993160000000 1.0
C      1  0.4700550000000  0.5314360000000  0.4137280000000 1.0
C      1  0.5521540000000  0.5571720000000  0.5566570000000 1.0
C      1  0.5814620000000  0.4619190000000  0.5373810000000 1.0
C      1  0.4696320000000  0.4743990000000  0.5317070000000 1.0
C      1  0.5143960000000  0.4747300000000  0.5577210000000 1.0
C      1  0.4613670000000  0.4817450000000  0.4706500000000 1.0
C      1  0.4381600000000  0.5713520000000  0.5433030000000 1.0
C      1  0.5742730000000  0.4546080000000  0.4975660000000 1.0
C      1  0.5609550000000  0.4514360000000  0.4733240000000 1.0
C      1  0.5108850000000  0.5675370000000  0.5594100000000 1.0
C      1  0.4418380000000  0.5477220000000  0.4511220000000 1.0
C      1  0.4229170000000  0.4844440000000  0.5240350000000 1.0
C      1  0.6077100000000  0.5035130000000  0.5292360000000 1.0
C      1  0.4103190000000  0.5099390000000  0.5134350000000 1.0
C      1  0.5489610000000  0.5756730000000  0.5015400000000 1.0
C      1  0.4288980000000  0.4290300000000  0.4727910000000 1.0
C      1  0.4811870000000  0.4163520000000  0.5182270000000 1.0
C      1  0.5375870000000  0.5285660000000  0.5299960000000 1.0
C      1  0.5886560000000  0.5440900000000  0.4804530000000 1.0
C      1  0.4309460000000  0.4436490000000  0.4484320000000 1.0
C      1  0.4399920000000  0.4757320000000  0.5774150000000 1.0
C      1  0.4980510000000  0.4626100000000  0.4731340000000 1.0
C      1  0.5581070000000  0.4504900000000  0.5546440000000 1.0
C      1  0.4600050000000  0.4993820000000  0.4931160000000 1.0
C      1  0.5442950000000  0.5720030000000  0.5309220000000 1.0
C      1  0.5389050000000  0.5344950000000  0.4786000000000 1.0
C      1  0.5045250000000  0.4985600000000  0.5137530000000 1.0
C      1  0.4850500000000  0.4357610000000  0.4323270000000 1.0
C      1  0.5385470000000  0.4703290000000  0.5456730000000 1.0
C      1  0.5155040000000  0.4617540000000  0.4082900000000 1.0
C      1  0.4918250000000  0.5509510000000  0.4205440000000 1.0
C      1  0.5717140000000  0.5057880000000  0.5624240000000 1.0
C      1  0.4930030000000  0.5172120000000  0.4611240000000 1.0
C      1  0.4802530000000  0.5057450000000  0.4077400000000 1.0
C      1  0.4185370000000  0.5070910000000  0.5626920000000 1.0
C      1  0.4527850000000  0.4537990000000  0.5669810000000 1.0
C      1  0.4413130000000  0.5047730000000  0.5818780000000 1.0
C      1  0.4770850000000  0.4107990000000  0.4936640000000 1.0
C      1  0.5322780000000  0.5041910000000  0.4294690000000 1.0
C      1  0.5123940000000  0.5833100000000  0.4581560000000 1.0
C      1  0.5154630000000  0.5407310000000  0.4083620000000 1.0
C      1  0.4927300000000  0.5268390000000  0.5053440000000 1.0
C      1  0.4474460000000  0.5061550000000  0.4436510000000 1.0
C      1  0.4609280000000  0.4370450000000  0.4483460000000 1.0
C      1  0.5118430000000  0.5421990000000  0.4873650000000 1.0
C      1  0.5293820000000  0.4122430000000  0.5203400000000 1.0
C      1  0.5251680000000  0.4277510000000  0.5458150000000 1.0
C      1  0.5326000000000  0.4334300000000  0.4492060000000 1.0
C      1  0.4403160000000  0.4870580000000  0.4267660000000 1.0
C      1  0.5996320000000  0.5664670000000  0.4815430000000 1.0
C      1  0.4912180000000  0.5164300000000  0.5871950000000 1.0
C      1  0.5294390000000  0.4581730000000  0.4338240000000 1.0
C      1  0.5589790000000  0.5293060000000  0.5481850000000 1.0
C      1  0.4905670000000  0.5685750000000  0.4443470000000 1.0
C      1  0.4631920000000  0.5684320000000  0.4538240000000 1.0
C      1  0.4822900000000  0.5769340000000  0.4954570000000 1.0
C      1  0.4672820000000  0.4813320000000  0.4129450000000 1.0
C      1  0.4371800000000  0.4443080000000  0.5097840000000 1.0
C      1  0.4799370000000  0.4427550000000  0.5754520000000 1.0
C      1  0.4586390000000  0.5798580000000  0.4808170000000 1.0
C      1  0.5057500000000  0.5656910000000  0.5033090000000 1.0
C      1  0.5145000000000  0.4765600000000  0.5867530000000 1.0
C      1  0.4704250000000  0.5316610000000  0.5489920000000 1.0
C      1  0.5605610000000  0.5513810000000  0.4899370000000 1.0
C      1  0.5146980000000  0.4738720000000  0.4526650000000 1.0
C      1  0.4095250000000  0.5246670000000  0.5396420000000 1.0
C      1  0.5966090000000  0.5124390000000  0.4732900000000 1.0
C      1  0.5187630000000  0.5274910000000  0.5893760000000 1.0
C      1  0.5058790000000  0.4735410000000  0.4985660000000 1.0
C      1  0.5328690000000  0.5870960000000  0.4793660000000 1.0
C      1  0.4751600000000  0.4264460000000  0.5392210000000 1.0
C      1  0.5769550000000  0.4984160000000  0.4525360000000 1.0
C      1  0.4212720000000  0.4790470000000  0.5569480000000 1.0
C      1  0.4554180000000  0.5446820000000  0.5702950000000 1.0
C      1  0.5193280000000  0.5018990000000  0.4553790000000 1.0
C      1  0.4444030000000  0.5279330000000  0.4286130000000 1.0
C      1  0.4283140000000  0.5384380000000  0.4753490000000 1.0
C      1  0.5175830000000  0.4830010000000  0.3987830000000 1.0
C      1  0.4255170000000  0.4726000000000  0.4482850000000 1.0
C      1  0.5334900000000  0.5043630000000  0.5125960000000 1.0
C      1  0.5220100000000  0.4383570000000  0.5214050000000 1.0
C      1  0.5049080000000  0.4228130000000  0.4496780000000 1.0
C      1  0.4516370000000  0.4913490000000  0.5192360000000 1.0
C      1  0.5133920000000  0.5092800000000  0.4067900000000 1.0
C      1  0.4191770000000  0.4832940000000  0.4752950000000 1.0
C      1  0.4376570000000  0.5606840000000  0.4914170000000 1.0
C      1  0.5261400000000  0.4122710000000  0.4913110000000 1.0
C      1  0.5012760000000  0.4110650000000  0.4763420000000 1.0
C      1  0.4932540000000  0.4578900000000  0.5972750000000 1.0
C      1  0.4624080000000  0.5240120000000  0.5898730000000 1.0
C      1  0.4563000000000  0.4499970000000  0.5373870000000 1.0
C      1  0.5575330000000  0.4920000000000  0.5839300000000 1.0
C      1  0.5389670000000  0.5805660000000  0.4530560000000 1.0
C      1  0.4707920000000  0.4545460000000  0.4693720000000 1.0
C      1  0.5453340000000  0.4782790000000  0.5193670000000 1.0
C      1  0.5417720000000  0.5043620000000  0.4800000000000 1.0
C      1  0.4165640000000  0.5119070000000  0.4855680000000 1.0
END
