TITL C-883729-9652-181 17.1556799852615 125000 -9538.72536912472 0 0 66 (C1) n - 1
REM
REM in /home/nfs/bkarasulu/CARBON/AIRSS/Generating-Clusters/ReaxFF-fromJPCA2015/Units_Real/with-SteepDescent/Only-C1/SD-CG/Try1-3A/FIRE-CG
REM
REM
REM
REM
REM
REM ./C.cell (11c1c37f851c82e70ff6c80c92926a4b)
REM
REM compiler GCC version 9.2.1 20190827 (Red Hat 9.2.1-1)
REM options -cpp -mtune=generic -march=x86-64 -g -O0 -fpre-include=/usr/include/finclude/math-vector-fortran.h
REM seed -1264682374 1574812251 -701430265 1693712439 228008255 -1495201708 37760425 824710667 -2080805564 -315884776 1450685346 -33650501 1805880746 -1163939106 -2104017584 -502378754 -372971817 -979693071 953972022 -379175934 761772957 -1068008340 746304893 438367928 -239811785 1615511933 -1462103844 -649702013 -1699325948 -699481007 761224573 -926720870 40999553
REM
CELL 1.54180   50.00000   50.00000   50.00000   90.00000   90.00000   90.00000
LATT -1
SFAC C  
C      1  0.5370040000000  0.5267650000000  0.4679240000000 1.0
C      1  0.5553700000000  0.4866290000000  0.5319750000000 1.0
C      1  0.5357280000000  0.4460760000000  0.5170760000000 1.0
C      1  0.5643140000000  0.5349150000000  0.5330720000000 1.0
C      1  0.4935650000000  0.5329330000000  0.5616670000000 1.0
C      1  0.4949750000000  0.5207580000000  0.4312880000000 1.0
C      1  0.4530940000000  0.5025490000000  0.5399960000000 1.0
C      1  0.4933910000000  0.4363420000000  0.4746360000000 1.0
C      1  0.4926850000000  0.4144280000000  0.5251190000000 1.0
C      1  0.4755920000000  0.5510400000000  0.5398010000000 1.0
C      1  0.4559980000000  0.5131100000000  0.4422620000000 1.0
C      1  0.5571650000000  0.5102400000000  0.5492260000000 1.0
C      1  0.5207640000000  0.4215050000000  0.5150240000000 1.0
C      1  0.4329810000000  0.5333580000000  0.5083240000000 1.0
C      1  0.5606630000000  0.4688790000000  0.4764230000000 1.0
C      1  0.4963070000000  0.4801320000000  0.5726630000000 1.0
C      1  0.5393840000000  0.5065560000000  0.4325600000000 1.0
C      1  0.4612880000000  0.4703560000000  0.5001260000000 1.0
C      1  0.4863460000000  0.4754460000000  0.4411110000000 1.0
C      1  0.5328740000000  0.5682290000000  0.5100880000000 1.0
C      1  0.5102530000000  0.5656710000000  0.4758280000000 1.0
C      1  0.5061570000000  0.5262730000000  0.4984410000000 1.0
C      1  0.5222220000000  0.5525940000000  0.4948350000000 1.0
C      1  0.5235730000000  0.4760610000000  0.5635120000000 1.0
C      1  0.5687340000000  0.5221500000000  0.5065130000000 1.0
C      1  0.4772860000000  0.5016500000000  0.5230550000000 1.0
C      1  0.4296840000000  0.4863310000000  0.5316500000000 1.0
C      1  0.4998550000000  0.4169570000000  0.4954850000000 1.0
C      1  0.5672120000000  0.5062390000000  0.4426350000000 1.0
C      1  0.5370600000000  0.4652070000000  0.5395100000000 1.0
C      1  0.5500710000000  0.4994050000000  0.5056140000000 1.0
C      1  0.5201330000000  0.5243610000000  0.5631410000000 1.0
C      1  0.5209900000000  0.5306390000000  0.4306550000000 1.0
C      1  0.4384820000000  0.5298900000000  0.4800170000000 1.0
C      1  0.5412170000000  0.4526590000000  0.4877810000000 1.0
C      1  0.5367100000000  0.5026720000000  0.5690390000000 1.0
C      1  0.5480460000000  0.5565730000000  0.5238900000000 1.0
C      1  0.4860710000000  0.5159890000000  0.4799310000000 1.0
C      1  0.4693760000000  0.4694430000000  0.5677450000000 1.0
C      1  0.4512350000000  0.5521010000000  0.5255530000000 1.0
C      1  0.4597280000000  0.4512590000000  0.5455160000000 1.0
C      1  0.4791920000000  0.5265180000000  0.4544830000000 1.0
C      1  0.5023480000000  0.5136700000000  0.5269300000000 1.0
C      1  0.4671180000000  0.4451780000000  0.4624060000000 1.0
C      1  0.5273090000000  0.4998210000000  0.4582680000000 1.0
C      1  0.4764210000000  0.4980940000000  0.4253590000000 1.0
C      1  0.4576540000000  0.5528260000000  0.4776620000000 1.0
C      1  0.5146680000000  0.4553020000000  0.4732050000000 1.0
C      1  0.5214110000000  0.5038010000000  0.5082320000000 1.0
C      1  0.4397330000000  0.4765940000000  0.4603160000000 1.0
C      1  0.5664700000000  0.5284770000000  0.4612870000000 1.0
C      1  0.4745430000000  0.5679000000000  0.5162400000000 1.0
C      1  0.5217040000000  0.5474750000000  0.4546850000000 1.0
C      1  0.4168170000000  0.5103730000000  0.5189200000000 1.0
C      1  0.4802180000000  0.4921540000000  0.4952680000000 1.0
C      1  0.4434770000000  0.4622640000000  0.5214000000000 1.0
C      1  0.4763520000000  0.4325210000000  0.5360230000000 1.0
C      1  0.4460590000000  0.4562170000000  0.4808280000000 1.0
C      1  0.4839850000000  0.5083380000000  0.5759400000000 1.0
C      1  0.5773650000000  0.4879380000000  0.4650950000000 1.0
C      1  0.5816210000000  0.5137550000000  0.4817570000000 1.0
C      1  0.4579380000000  0.4967300000000  0.5686730000000 1.0
C      1  0.5049610000000  0.4814260000000  0.4642770000000 1.0
C      1  0.4367900000000  0.5057620000000  0.4618650000000 1.0
C      1  0.4814050000000  0.5670020000000  0.4868210000000 1.0
C      1  0.4608560000000  0.4654930000000  0.4433540000000 1.0
END
