TITL C-884136-4169-155 4.13110635178315 125000 -15814.7099714751 0 0 108 (C1) n - 1
REM
REM in /home/nfs/bkarasulu/CARBON/AIRSS/Generating-Clusters/ReaxFF-fromJPCA2015/Units_Real/with-SteepDescent/Only-C1/SD-CG/Try1-3A/FIRE-CG
REM
REM
REM
REM
REM
REM ./C.cell (11c1c37f851c82e70ff6c80c92926a4b)
REM
REM compiler GCC version 9.2.1 20190827 (Red Hat 9.2.1-1)
REM options -cpp -mtune=generic -march=x86-64 -g -O0 -fpre-include=/usr/include/finclude/math-vector-fortran.h
REM seed -1774122938 -917547883 903090028 -181783332 171519435 -41627219 -170600701 1407792029 691736623 956061493 -1156010100 271653334 -1668068377 -470705316 -858178847 512821632 -408988768 1984607885 1608069207 586257586 1317769198 -1276739660 -613834169 -213214868 313754448 72051308 -516653481 -1344094806 -720770832 1960423992 -477999326 1875152443 -1101193264
REM
CELL 1.54180   50.00000   50.00000   50.00000   90.00000   90.00000   90.00000
LATT -1
SFAC C  
C      1  0.5376320000000  0.4594960000000  0.5512230000000 1.0
C      1  0.5546350000000  0.4850150000000  0.4363350000000 1.0
C      1  0.4273250000000  0.4538150000000  0.4798390000000 1.0
C      1  0.4344290000000  0.4563870000000  0.5353650000000 1.0
C      1  0.5280230000000  0.4449830000000  0.4363370000000 1.0
C      1  0.4799040000000  0.4254910000000  0.5434090000000 1.0
C      1  0.5083480000000  0.5474970000000  0.4856930000000 1.0
C      1  0.4234710000000  0.5340030000000  0.5466450000000 1.0
C      1  0.5280140000000  0.5755100000000  0.5176850000000 1.0
C      1  0.5554340000000  0.4569650000000  0.4426610000000 1.0
C      1  0.4184300000000  0.4784350000000  0.5431820000000 1.0
C      1  0.4039010000000  0.5127790000000  0.4732450000000 1.0
C      1  0.4294320000000  0.5544690000000  0.4386570000000 1.0
C      1  0.4214930000000  0.4927050000000  0.5204150000000 1.0
C      1  0.4636000000000  0.5399920000000  0.5735250000000 1.0
C      1  0.5372670000000  0.5477490000000  0.5764010000000 1.0
C      1  0.5420480000000  0.5488760000000  0.4319860000000 1.0
C      1  0.5223880000000  0.4666090000000  0.4831550000000 1.0
C      1  0.4967780000000  0.4150680000000  0.5218470000000 1.0
C      1  0.5701690000000  0.4119780000000  0.4993950000000 1.0
C      1  0.5329330000000  0.5319550000000  0.4100670000000 1.0
C      1  0.4756910000000  0.4621400000000  0.5777830000000 1.0
C      1  0.5707630000000  0.5580140000000  0.5199670000000 1.0
C      1  0.4768630000000  0.5221900000000  0.5249320000000 1.0
C      1  0.5748630000000  0.4951010000000  0.5413130000000 1.0
C      1  0.4616760000000  0.5728820000000  0.5050390000000 1.0
C      1  0.5431030000000  0.4029320000000  0.4931190000000 1.0
C      1  0.5369780000000  0.4200370000000  0.4689930000000 1.0
C      1  0.4368010000000  0.5339900000000  0.5020030000000 1.0
C      1  0.4849610000000  0.5686860000000  0.4878420000000 1.0
C      1  0.4797550000000  0.4894700000000  0.5874110000000 1.0
C      1  0.5397070000000  0.5205230000000  0.5208460000000 1.0
C      1  0.5790570000000  0.4781820000000  0.4774340000000 1.0
C      1  0.5283190000000  0.5870280000000  0.4908510000000 1.0
C      1  0.5143320000000  0.5298050000000  0.5812680000000 1.0
C      1  0.5699030000000  0.5081150000000  0.5674230000000 1.0
C      1  0.4243960000000  0.5034700000000  0.4563020000000 1.0
C      1  0.4462910000000  0.5515750000000  0.5529140000000 1.0
C      1  0.5614960000000  0.4376540000000  0.5009570000000 1.0
C      1  0.4848200000000  0.4891450000000  0.4686150000000 1.0
C      1  0.5264920000000  0.4717840000000  0.5275260000000 1.0
C      1  0.5830180000000  0.4325290000000  0.4835300000000 1.0
C      1  0.5056440000000  0.5199250000000  0.4879560000000 1.0
C      1  0.5279770000000  0.5733140000000  0.5652660000000 1.0
C      1  0.5405090000000  0.5492880000000  0.4790590000000 1.0
C      1  0.5301070000000  0.5025620000000  0.4470210000000 1.0
C      1  0.4651260000000  0.4275710000000  0.4728930000000 1.0
C      1  0.4649960000000  0.4669400000000  0.4266150000000 1.0
C      1  0.4730820000000  0.4731150000000  0.5330590000000 1.0
C      1  0.5192250000000  0.3988210000000  0.5097790000000 1.0
C      1  0.4929320000000  0.5426440000000  0.5656620000000 1.0
C      1  0.4632230000000  0.5180750000000  0.4166290000000 1.0
C      1  0.5773280000000  0.4537020000000  0.4633600000000 1.0
C      1  0.4631160000000  0.4412270000000  0.4989300000000 1.0
C      1  0.5599280000000  0.5621330000000  0.4956340000000 1.0
C      1  0.4371340000000  0.5621400000000  0.4920380000000 1.0
C      1  0.5121800000000  0.5134920000000  0.4242160000000 1.0
C      1  0.5779690000000  0.5006980000000  0.4403270000000 1.0
C      1  0.4606340000000  0.5215340000000  0.5026990000000 1.0
C      1  0.5130410000000  0.4855540000000  0.4639730000000 1.0
C      1  0.5667900000000  0.5092280000000  0.5168100000000 1.0
C      1  0.5142340000000  0.4219670000000  0.4514250000000 1.0
C      1  0.5007370000000  0.4866900000000  0.4113670000000 1.0
C      1  0.4946680000000  0.4027530000000  0.4947470000000 1.0
C      1  0.4910050000000  0.4147650000000  0.4674390000000 1.0
C      1  0.5177160000000  0.5879720000000  0.4636160000000 1.0
C      1  0.4665670000000  0.5133700000000  0.5824530000000 1.0
C      1  0.4616190000000  0.4519720000000  0.5502090000000 1.0
C      1  0.5133220000000  0.5865540000000  0.5432340000000 1.0
C      1  0.4281620000000  0.5045310000000  0.5457850000000 1.0
C      1  0.4733530000000  0.5150370000000  0.4786040000000 1.0
C      1  0.4811010000000  0.4994270000000  0.5407470000000 1.0
C      1  0.5718510000000  0.5494770000000  0.5438870000000 1.0
C      1  0.5654640000000  0.4689840000000  0.5536130000000 1.0
C      1  0.5243580000000  0.5457610000000  0.5257140000000 1.0
C      1  0.4714990000000  0.4909710000000  0.4102120000000 1.0
C      1  0.4322090000000  0.5621060000000  0.4646660000000 1.0
C      1  0.5409560000000  0.4451040000000  0.4832820000000 1.0
C      1  0.5102930000000  0.4988600000000  0.5801430000000 1.0
C      1  0.5483170000000  0.5309540000000  0.4570660000000 1.0
C      1  0.4986980000000  0.4329760000000  0.5603810000000 1.0
C      1  0.5254090000000  0.4994540000000  0.5336440000000 1.0
C      1  0.5758630000000  0.5178690000000  0.4627500000000 1.0
C      1  0.4118690000000  0.5173210000000  0.5041070000000 1.0
C      1  0.5293880000000  0.4726030000000  0.5775310000000 1.0
C      1  0.4948160000000  0.5624660000000  0.4383380000000 1.0
C      1  0.5645420000000  0.5371150000000  0.5678490000000 1.0
C      1  0.5784130000000  0.5029530000000  0.4894240000000 1.0
C      1  0.4399410000000  0.4359580000000  0.4590210000000 1.0
C      1  0.5585170000000  0.4825520000000  0.5786520000000 1.0
C      1  0.5062750000000  0.5035300000000  0.5527220000000 1.0
C      1  0.4436700000000  0.4463420000000  0.4308080000000 1.0
C      1  0.5028370000000  0.4525460000000  0.5795040000000 1.0
C      1  0.5098780000000  0.4630320000000  0.5074430000000 1.0
C      1  0.4670700000000  0.5304630000000  0.4549260000000 1.0
C      1  0.4855590000000  0.5816400000000  0.5396200000000 1.0
C      1  0.4367990000000  0.4782440000000  0.4662030000000 1.0
C      1  0.4436380000000  0.5238260000000  0.4388660000000 1.0
C      1  0.4360590000000  0.4480530000000  0.5075960000000 1.0
C      1  0.4975050000000  0.5405210000000  0.5364190000000 1.0
C      1  0.4646540000000  0.4739730000000  0.4558340000000 1.0
C      1  0.5222590000000  0.5704600000000  0.4385490000000 1.0
C      1  0.4885580000000  0.5801010000000  0.4612970000000 1.0
C      1  0.4853030000000  0.5332100000000  0.4323300000000 1.0
C      1  0.4825940000000  0.4610810000000  0.5091040000000 1.0
C      1  0.5131320000000  0.4645920000000  0.4229760000000 1.0
C      1  0.4597320000000  0.5723370000000  0.5352960000000 1.0
C      1  0.4037130000000  0.5405320000000  0.5255330000000 1.0
END
