TITL C-883726-8501-440 15.8300646167222 125000 -17115.6194125852 0 0 113 (C1) n - 1
REM
REM in /home/nfs/bkarasulu/CARBON/AIRSS/Generating-Clusters/ReaxFF-fromJPCA2015/Units_Real/with-SteepDescent/Only-C1/SD-CG/Try1-3A/FIRE-CG
REM
REM
REM
REM
REM
REM ./C.cell (11c1c37f851c82e70ff6c80c92926a4b)
REM
REM compiler GCC version 9.2.1 20190827 (Red Hat 9.2.1-1)
REM options -cpp -mtune=generic -march=x86-64 -g -O0 -fpre-include=/usr/include/finclude/math-vector-fortran.h
REM seed -235142074 704971048 -1658425091 2027437315 1710633079 -1687940269 1781627779 169886235 -335455577 1595360077 -759996866 -2047726440 -888319215 142143335 2059138219 -1612085178 -1713315823 705031860 2046608370 -1464860787 1168551280 58967953 1278147318 -1376270783 -1909751680 -1701387922 -2121139639 -1017571843 2016465415 1839683550 -21154890 167299860 1259223342
REM
CELL 1.54180   50.00000   50.00000   50.00000   90.00000   90.00000   90.00000
LATT -1
SFAC C  
C      1  0.5705270000000  0.5550550000000  0.4930010000000 1.0
C      1  0.5397530000000  0.5405650000000  0.5470300000000 1.0
C      1  0.5027890000000  0.4226460000000  0.5451670000000 1.0
C      1  0.5010460000000  0.4078240000000  0.5201490000000 1.0
C      1  0.4323530000000  0.4798740000000  0.5113140000000 1.0
C      1  0.4188430000000  0.5262590000000  0.4435030000000 1.0
C      1  0.5196290000000  0.5264030000000  0.4433110000000 1.0
C      1  0.4842420000000  0.5025140000000  0.5769980000000 1.0
C      1  0.4122620000000  0.4770290000000  0.4892010000000 1.0
C      1  0.5595940000000  0.5167300000000  0.4380730000000 1.0
C      1  0.5668610000000  0.5466830000000  0.5386470000000 1.0
C      1  0.5470020000000  0.4632410000000  0.4284310000000 1.0
C      1  0.5701530000000  0.4385890000000  0.5316920000000 1.0
C      1  0.4389270000000  0.5271820000000  0.4970180000000 1.0
C      1  0.5401920000000  0.5071680000000  0.5994170000000 1.0
C      1  0.4717690000000  0.4782840000000  0.5829500000000 1.0
C      1  0.5273460000000  0.4993620000000  0.5220210000000 1.0
C      1  0.6033220000000  0.4938430000000  0.4528770000000 1.0
C      1  0.4566800000000  0.5006700000000  0.4147880000000 1.0
C      1  0.4223420000000  0.4603630000000  0.4677360000000 1.0
C      1  0.4473510000000  0.4730390000000  0.5656400000000 1.0
C      1  0.5266820000000  0.5132400000000  0.5480380000000 1.0
C      1  0.5837800000000  0.5251700000000  0.5284420000000 1.0
C      1  0.4747270000000  0.4037370000000  0.5212220000000 1.0
C      1  0.4805510000000  0.5513360000000  0.4962940000000 1.0
C      1  0.5526630000000  0.4223560000000  0.4462570000000 1.0
C      1  0.5796360000000  0.4544290000000  0.5074640000000 1.0
C      1  0.4673770000000  0.5612650000000  0.5661920000000 1.0
C      1  0.5752380000000  0.4353910000000  0.4862340000000 1.0
C      1  0.5239970000000  0.5635130000000  0.5416680000000 1.0
C      1  0.4575890000000  0.5042350000000  0.5030360000000 1.0
C      1  0.4500990000000  0.5189980000000  0.5502580000000 1.0
C      1  0.4394810000000  0.4517350000000  0.5224750000000 1.0
C      1  0.4785430000000  0.5802030000000  0.5464810000000 1.0
C      1  0.4520370000000  0.5904180000000  0.4774570000000 1.0
C      1  0.5686180000000  0.4419880000000  0.4585330000000 1.0
C      1  0.5277590000000  0.4805940000000  0.4153620000000 1.0
C      1  0.4959830000000  0.6042710000000  0.4852110000000 1.0
C      1  0.4525300000000  0.5501320000000  0.4861740000000 1.0
C      1  0.5794810000000  0.4833360000000  0.5088120000000 1.0
C      1  0.4010280000000  0.5130530000000  0.5164620000000 1.0
C      1  0.5323640000000  0.4121380000000  0.4922620000000 1.0
C      1  0.5340470000000  0.5902340000000  0.4989930000000 1.0
C      1  0.4526320000000  0.4515050000000  0.5479000000000 1.0
C      1  0.5805110000000  0.5284720000000  0.4997280000000 1.0
C      1  0.6266080000000  0.4903000000000  0.4487220000000 1.0
C      1  0.5347790000000  0.5080150000000  0.4249960000000 1.0
C      1  0.5004060000000  0.5440180000000  0.4765920000000 1.0
C      1  0.5060900000000  0.5504160000000  0.6035380000000 1.0
C      1  0.4407480000000  0.5784230000000  0.5291510000000 1.0
C      1  0.5563500000000  0.5607630000000  0.4683620000000 1.0
C      1  0.4072740000000  0.5159690000000  0.4653930000000 1.0
C      1  0.5257780000000  0.4360860000000  0.5591490000000 1.0
C      1  0.4471760000000  0.4015020000000  0.5146440000000 1.0
C      1  0.5647960000000  0.5684830000000  0.5188890000000 1.0
C      1  0.5054870000000  0.5499040000000  0.4296620000000 1.0
C      1  0.4433760000000  0.5468280000000  0.5577220000000 1.0
C      1  0.4683890000000  0.6038710000000  0.4962980000000 1.0
C      1  0.5755130000000  0.4980730000000  0.4578390000000 1.0
C      1  0.4377570000000  0.5690370000000  0.4674080000000 1.0
C      1  0.5657380000000  0.4884320000000  0.5590180000000 1.0
C      1  0.5391530000000  0.4897150000000  0.5710940000000 1.0
C      1  0.4810060000000  0.4706480000000  0.4784590000000 1.0
C      1  0.4333890000000  0.5009240000000  0.4324400000000 1.0
C      1  0.5337600000000  0.4054700000000  0.4356170000000 1.0
C      1  0.4948550000000  0.4567120000000  0.4996840000000 1.0
C      1  0.5008670000000  0.5643470000000  0.4546510000000 1.0
C      1  0.4787430000000  0.5517850000000  0.4225810000000 1.0
C      1  0.5002110000000  0.4661460000000  0.4118400000000 1.0
C      1  0.4684770000000  0.5169940000000  0.5278470000000 1.0
C      1  0.5818680000000  0.4964930000000  0.5353400000000 1.0
C      1  0.5328390000000  0.5033330000000  0.4932540000000 1.0
C      1  0.4991630000000  0.5198270000000  0.5660450000000 1.0
C      1  0.5243940000000  0.4685660000000  0.5251630000000 1.0
C      1  0.4405540000000  0.4392360000000  0.4763800000000 1.0
C      1  0.4875230000000  0.5439670000000  0.5791110000000 1.0
C      1  0.4968150000000  0.5607380000000  0.5378000000000 1.0
C      1  0.4149900000000  0.4931590000000  0.5323550000000 1.0
C      1  0.5400080000000  0.5833690000000  0.5254300000000 1.0
C      1  0.4679220000000  0.4449930000000  0.4633940000000 1.0
C      1  0.5453620000000  0.4492100000000  0.5423660000000 1.0
C      1  0.4860630000000  0.5393770000000  0.5223030000000 1.0
C      1  0.5040740000000  0.4197000000000  0.4393230000000 1.0
C      1  0.5477220000000  0.5401050000000  0.4496400000000 1.0
C      1  0.4839810000000  0.4468460000000  0.5481350000000 1.0
C      1  0.5252580000000  0.5288030000000  0.6045040000000 1.0
C      1  0.4574030000000  0.4586450000000  0.4377540000000 1.0
C      1  0.4911030000000  0.4227590000000  0.4644110000000 1.0
C      1  0.4961810000000  0.4630960000000  0.5272130000000 1.0
C      1  0.4807370000000  0.4992550000000  0.4810140000000 1.0
C      1  0.5701050000000  0.4090750000000  0.5257360000000 1.0
C      1  0.4622350000000  0.5944460000000  0.5259210000000 1.0
C      1  0.4385580000000  0.4301400000000  0.5036640000000 1.0
C      1  0.5120450000000  0.5910830000000  0.4638080000000 1.0
C      1  0.4724810000000  0.4744270000000  0.4187000000000 1.0
C      1  0.5057800000000  0.5150880000000  0.4746460000000 1.0
C      1  0.4249650000000  0.5565630000000  0.5361760000000 1.0
C      1  0.4936070000000  0.4599300000000  0.5759950000000 1.0
C      1  0.4173330000000  0.5367550000000  0.5144040000000 1.0
C      1  0.4330620000000  0.4727670000000  0.4431090000000 1.0
C      1  0.5605200000000  0.4113370000000  0.4969590000000 1.0
C      1  0.5061480000000  0.4128850000000  0.4878880000000 1.0
C      1  0.5405740000000  0.5861100000000  0.4724640000000 1.0
C      1  0.3974270000000  0.5024830000000  0.4879800000000 1.0
C      1  0.5236900000000  0.4585490000000  0.4970980000000 1.0
C      1  0.5218550000000  0.4617130000000  0.5743020000000 1.0
C      1  0.5684600000000  0.5034500000000  0.4896350000000 1.0
C      1  0.4320410000000  0.4962590000000  0.5557640000000 1.0
C      1  0.4549470000000  0.5527250000000  0.4290150000000 1.0
C      1  0.4312970000000  0.5539980000000  0.4418720000000 1.0
C      1  0.5559410000000  0.4704640000000  0.4578500000000 1.0
C      1  0.5348900000000  0.4774450000000  0.4791140000000 1.0
C      1  0.5010150000000  0.4428990000000  0.4254500000000 1.0
END
