TITL C-884136-4169-134 -3.14457440627202 125000 -23318.0598282988 0 0 155 (C1) n - 1
REM
REM in /home/nfs/bkarasulu/CARBON/AIRSS/Generating-Clusters/ReaxFF-fromJPCA2015/Units_Real/with-SteepDescent/Only-C1/SD-CG/Try1-3A/FIRE-CG
REM
REM
REM
REM
REM
REM ./C.cell (11c1c37f851c82e70ff6c80c92926a4b)
REM
REM compiler GCC version 9.2.1 20190827 (Red Hat 9.2.1-1)
REM options -cpp -mtune=generic -march=x86-64 -g -O0 -fpre-include=/usr/include/finclude/math-vector-fortran.h
REM seed -281022880 2064727290 -1421364983 -1428695196 -211970519 199743897 -1483469452 1390454338 -1127940488 1354317059 -2089262223 -785417684 2059699970 -1857948479 917831655 -270051394 1816648546 -400474894 948386816 -1323700943 -366113275 1950182322 1016412117 -1641020211 -2039729367 1634284250 395658777 200570052 -750325653 434155057 1517707322 1630703562 -1879503551
REM
CELL 1.54180   50.00000   50.00000   50.00000   90.00000   90.00000   90.00000
LATT -1
SFAC C  
C      1  0.4892940000000  0.5675640000000  0.4103770000000 1.0
C      1  0.5161500000000  0.4752590000000  0.4947920000000 1.0
C      1  0.5242060000000  0.4774390000000  0.5798780000000 1.0
C      1  0.5080020000000  0.4281800000000  0.4789570000000 1.0
C      1  0.4877290000000  0.5116350000000  0.5930490000000 1.0
C      1  0.5809980000000  0.5214220000000  0.4381250000000 1.0
C      1  0.5633440000000  0.4049460000000  0.5395500000000 1.0
C      1  0.5601750000000  0.5583700000000  0.4845520000000 1.0
C      1  0.4151420000000  0.5335610000000  0.5475840000000 1.0
C      1  0.6072630000000  0.5029690000000  0.4833440000000 1.0
C      1  0.5138260000000  0.5707090000000  0.5294010000000 1.0
C      1  0.5533030000000  0.5627860000000  0.4562030000000 1.0
C      1  0.5216780000000  0.5312010000000  0.4945080000000 1.0
C      1  0.5024280000000  0.5808230000000  0.4591220000000 1.0
C      1  0.4811070000000  0.5867540000000  0.5750820000000 1.0
C      1  0.5419860000000  0.5203670000000  0.3924160000000 1.0
C      1  0.5098050000000  0.5209130000000  0.4697490000000 1.0
C      1  0.4436550000000  0.5226980000000  0.4844650000000 1.0
C      1  0.4863870000000  0.4805730000000  0.4959230000000 1.0
C      1  0.5531590000000  0.4175820000000  0.4673150000000 1.0
C      1  0.5685340000000  0.5351310000000  0.5516040000000 1.0
C      1  0.4260230000000  0.4167420000000  0.4871540000000 1.0
C      1  0.4153310000000  0.5705760000000  0.5080280000000 1.0
C      1  0.4647050000000  0.4927580000000  0.5921820000000 1.0
C      1  0.5152730000000  0.4833960000000  0.4045340000000 1.0
C      1  0.5729390000000  0.4432570000000  0.5529870000000 1.0
C      1  0.5214950000000  0.5315810000000  0.4098310000000 1.0
C      1  0.5880830000000  0.4217700000000  0.5401240000000 1.0
C      1  0.5062800000000  0.5517720000000  0.5499180000000 1.0
C      1  0.5505570000000  0.4238020000000  0.5595410000000 1.0
C      1  0.5609980000000  0.5405940000000  0.3973120000000 1.0
C      1  0.4274190000000  0.4198030000000  0.5136120000000 1.0
C      1  0.4752740000000  0.4258710000000  0.4388220000000 1.0
C      1  0.5641300000000  0.4607660000000  0.5310420000000 1.0
C      1  0.4168300000000  0.4782870000000  0.4754870000000 1.0
C      1  0.5038640000000  0.5984780000000  0.5285990000000 1.0
C      1  0.4227240000000  0.5150560000000  0.4370540000000 1.0
C      1  0.3991650000000  0.4637240000000  0.5259500000000 1.0
C      1  0.4075240000000  0.5513430000000  0.4641980000000 1.0
C      1  0.5189020000000  0.3802130000000  0.4821480000000 1.0
C      1  0.5116060000000  0.5574970000000  0.5031010000000 1.0
C      1  0.4617610000000  0.5540500000000  0.5185340000000 1.0
C      1  0.6018300000000  0.5535170000000  0.5044240000000 1.0
C      1  0.5473740000000  0.4893360000000  0.4964450000000 1.0
C      1  0.4970500000000  0.4412650000000  0.5235660000000 1.0
C      1  0.5032880000000  0.4184690000000  0.5050700000000 1.0
C      1  0.5501370000000  0.5427810000000  0.5771800000000 1.0
C      1  0.5649250000000  0.4548850000000  0.5967250000000 1.0
C      1  0.4619130000000  0.5485240000000  0.5497100000000 1.0
C      1  0.5246900000000  0.4325980000000  0.5694380000000 1.0
C      1  0.4303280000000  0.4243330000000  0.5402510000000 1.0
C      1  0.5863350000000  0.4986470000000  0.4618960000000 1.0
C      1  0.5287690000000  0.5184900000000  0.5206130000000 1.0
C      1  0.5090440000000  0.4714000000000  0.4490080000000 1.0
C      1  0.4610700000000  0.5715370000000  0.4164020000000 1.0
C      1  0.6176400000000  0.4630430000000  0.5193840000000 1.0
C      1  0.4651730000000  0.3958080000000  0.5625400000000 1.0
C      1  0.4557140000000  0.5254690000000  0.5089710000000 1.0
C      1  0.5038150000000  0.5623950000000  0.5780560000000 1.0
C      1  0.4235580000000  0.4934980000000  0.5709140000000 1.0
C      1  0.5521490000000  0.5795510000000  0.5536270000000 1.0
C      1  0.5630640000000  0.4889110000000  0.5214890000000 1.0
C      1  0.4129040000000  0.4635820000000  0.4358680000000 1.0
C      1  0.5211800000000  0.3935000000000  0.5072680000000 1.0
C      1  0.5010650000000  0.4610930000000  0.4199380000000 1.0
C      1  0.4187770000000  0.4500300000000  0.5425410000000 1.0
C      1  0.6063090000000  0.4339760000000  0.5192150000000 1.0
C      1  0.4621680000000  0.5149730000000  0.4659060000000 1.0
C      1  0.5666560000000  0.4575220000000  0.4356340000000 1.0
C      1  0.4418320000000  0.5668450000000  0.4375030000000 1.0
C      1  0.5860640000000  0.4686670000000  0.4533920000000 1.0
C      1  0.4168870000000  0.5749910000000  0.4779660000000 1.0
C      1  0.4158500000000  0.5257930000000  0.4771180000000 1.0
C      1  0.4029380000000  0.5060720000000  0.5559880000000 1.0
C      1  0.5357140000000  0.5673830000000  0.5762110000000 1.0
C      1  0.5264530000000  0.5707340000000  0.4454400000000 1.0
C      1  0.5965700000000  0.4974610000000  0.5781010000000 1.0
C      1  0.4621450000000  0.5054620000000  0.5305860000000 1.0
C      1  0.4412320000000  0.5784030000000  0.5184040000000 1.0
C      1  0.5117610000000  0.4562980000000  0.4720290000000 1.0
C      1  0.4845190000000  0.5330180000000  0.4617340000000 1.0
C      1  0.4715790000000  0.4607730000000  0.5119490000000 1.0
C      1  0.5096480000000  0.5068970000000  0.4206390000000 1.0
C      1  0.6020060000000  0.4365320000000  0.4919360000000 1.0
C      1  0.5720220000000  0.4825930000000  0.5916630000000 1.0
C      1  0.5211380000000  0.4554370000000  0.5143050000000 1.0
C      1  0.5551730000000  0.5145970000000  0.5327260000000 1.0
C      1  0.6154350000000  0.4763430000000  0.4924960000000 1.0
C      1  0.4216260000000  0.5442980000000  0.4398110000000 1.0
C      1  0.4387150000000  0.5084990000000  0.4108010000000 1.0
C      1  0.5685980000000  0.5310280000000  0.4891660000000 1.0
C      1  0.4599560000000  0.4671570000000  0.5780480000000 1.0
C      1  0.4820400000000  0.5617170000000  0.4691070000000 1.0
C      1  0.5137880000000  0.4996400000000  0.4490330000000 1.0
C      1  0.5243480000000  0.4069060000000  0.4631490000000 1.0
C      1  0.4835600000000  0.5626020000000  0.4983540000000 1.0
C      1  0.5123120000000  0.5215260000000  0.6067470000000 1.0
C      1  0.4917220000000  0.5003780000000  0.5462560000000 1.0
C      1  0.4871600000000  0.6050810000000  0.5532070000000 1.0
C      1  0.3982360000000  0.4754140000000  0.4981710000000 1.0
C      1  0.5089970000000  0.5232200000000  0.5429220000000 1.0
C      1  0.4105660000000  0.4907160000000  0.4485840000000 1.0
C      1  0.5595070000000  0.5059460000000  0.4768820000000 1.0
C      1  0.4624830000000  0.4239230000000  0.4663140000000 1.0
C      1  0.5945090000000  0.5208470000000  0.5627520000000 1.0
C      1  0.4685920000000  0.4875940000000  0.4746840000000 1.0
C      1  0.5459040000000  0.4955130000000  0.5872160000000 1.0
C      1  0.4385580000000  0.5381860000000  0.5912920000000 1.0
C      1  0.5265380000000  0.4192530000000  0.4348850000000 1.0
C      1  0.4561960000000  0.4195000000000  0.5597450000000 1.0
C      1  0.4587040000000  0.6024990000000  0.4743010000000 1.0
C      1  0.4386350000000  0.5850450000000  0.4603250000000 1.0
C      1  0.4286440000000  0.4386670000000  0.4362640000000 1.0
C      1  0.5776840000000  0.5683720000000  0.5075820000000 1.0
C      1  0.4993850000000  0.6086090000000  0.5014050000000 1.0
C      1  0.5038680000000  0.4781680000000  0.5591090000000 1.0
C      1  0.5984640000000  0.5266920000000  0.4981830000000 1.0
C      1  0.4572390000000  0.4874190000000  0.4090470000000 1.0
C      1  0.4395250000000  0.4714880000000  0.5540210000000 1.0
C      1  0.4933610000000  0.5402380000000  0.5967020000000 1.0
C      1  0.4897120000000  0.6032820000000  0.4740880000000 1.0
C      1  0.5718810000000  0.5495750000000  0.4374910000000 1.0
C      1  0.4683960000000  0.5511430000000  0.3949450000000 1.0
C      1  0.5015730000000  0.4312660000000  0.4270190000000 1.0
C      1  0.4998830000000  0.4462200000000  0.5567060000000 1.0
C      1  0.4550930000000  0.4401290000000  0.4237140000000 1.0
C      1  0.5397250000000  0.5229140000000  0.5949770000000 1.0
C      1  0.5350240000000  0.4513130000000  0.5885840000000 1.0
C      1  0.5579030000000  0.4220040000000  0.4959180000000 1.0
C      1  0.4563580000000  0.4446260000000  0.4865430000000 1.0
C      1  0.4510440000000  0.5608500000000  0.5737990000000 1.0
C      1  0.4690020000000  0.4637930000000  0.4127900000000 1.0
C      1  0.5708530000000  0.5025330000000  0.4227280000000 1.0
C      1  0.5421080000000  0.4899440000000  0.3957490000000 1.0
C      1  0.5694940000000  0.5629920000000  0.5364660000000 1.0
C      1  0.3884240000000  0.4895900000000  0.5367110000000 1.0
C      1  0.4340670000000  0.4196430000000  0.4600820000000 1.0
C      1  0.5484210000000  0.4459970000000  0.5113150000000 1.0
C      1  0.4733760000000  0.4431170000000  0.5705870000000 1.0
C      1  0.4462300000000  0.5249310000000  0.5485570000000 1.0
C      1  0.4227290000000  0.5516790000000  0.5718310000000 1.0
C      1  0.4053780000000  0.5459600000000  0.5204870000000 1.0
C      1  0.5518220000000  0.4330080000000  0.4426820000000 1.0
C      1  0.4454260000000  0.4694620000000  0.4761250000000 1.0
C      1  0.3980780000000  0.5259280000000  0.5016390000000 1.0
C      1  0.4549550000000  0.4781520000000  0.5293700000000 1.0
C      1  0.4465130000000  0.5979480000000  0.4990770000000 1.0
C      1  0.3860370000000  0.5000320000000  0.5090770000000 1.0
C      1  0.5766000000000  0.5620370000000  0.4088070000000 1.0
C      1  0.4567560000000  0.5265880000000  0.3996020000000 1.0
C      1  0.4399320000000  0.5085160000000  0.5897640000000 1.0
C      1  0.5504990000000  0.4002190000000  0.5138310000000 1.0
C      1  0.5631470000000  0.4782890000000  0.4133720000000 1.0
C      1  0.6043100000000  0.4556900000000  0.4719410000000 1.0
C      1  0.5148850000000  0.5588350000000  0.4211440000000 1.0
END
