TITL C-883738-3659-247 -7.10912804583754 125000 -14782.7065131396 0 0 98 (C1) n - 1
REM
REM in /home/nfs/bkarasulu/CARBON/AIRSS/Generating-Clusters/ReaxFF-fromJPCA2015/Units_Real/with-SteepDescent/Only-C1/SD-CG/Try1-3A/FIRE-CG
REM
REM
REM
REM
REM
REM ./C.cell (11c1c37f851c82e70ff6c80c92926a4b)
REM
REM compiler GCC version 9.2.1 20190827 (Red Hat 9.2.1-1)
REM options -cpp -mtune=generic -march=x86-64 -g -O0 -fpre-include=/usr/include/finclude/math-vector-fortran.h
REM seed 1753290255 -443464593 1063277143 967966825 723147082 2000413243 -271102116 1251442036 630020830 -1917874290 1779332880 1422059697 -887738704 1576499168 154850148 370544489 -1637279697 -511456676 -1645613603 -543650119 -805516249 -789049507 -2065324600 170590955 -1885428593 -1841718495 1190779424 -475258177 1199369290 1229550409 836426385 2048876932 -1245042117
REM
CELL 1.54180   50.00000   50.00000   50.00000   90.00000   90.00000   90.00000
LATT -1
SFAC C  
C      1  0.4582190000000  0.4690810000000  0.5633280000000 1.0
C      1  0.5173470000000  0.5688040000000  0.5349200000000 1.0
C      1  0.4823480000000  0.4417650000000  0.4273400000000 1.0
C      1  0.4757290000000  0.4889200000000  0.4034490000000 1.0
C      1  0.4379230000000  0.4863190000000  0.4999350000000 1.0
C      1  0.4586900000000  0.4468950000000  0.4698020000000 1.0
C      1  0.5132790000000  0.4907940000000  0.4917460000000 1.0
C      1  0.4312610000000  0.5299370000000  0.4742880000000 1.0
C      1  0.5822610000000  0.4730250000000  0.5416230000000 1.0
C      1  0.4217720000000  0.4864420000000  0.5381750000000 1.0
C      1  0.4722810000000  0.5335870000000  0.4204330000000 1.0
C      1  0.4787350000000  0.4323540000000  0.5580760000000 1.0
C      1  0.5433450000000  0.4952800000000  0.4773410000000 1.0
C      1  0.5026590000000  0.4077550000000  0.5149660000000 1.0
C      1  0.4272190000000  0.5076420000000  0.4557950000000 1.0
C      1  0.4542420000000  0.5419040000000  0.5591950000000 1.0
C      1  0.5229700000000  0.5437990000000  0.4653590000000 1.0
C      1  0.4569580000000  0.4336060000000  0.5004830000000 1.0
C      1  0.4506260000000  0.5516690000000  0.4677060000000 1.0
C      1  0.4714820000000  0.5891540000000  0.5319640000000 1.0
C      1  0.4801040000000  0.5071460000000  0.5224770000000 1.0
C      1  0.4803010000000  0.5520840000000  0.5651410000000 1.0
C      1  0.4420720000000  0.4433690000000  0.5230680000000 1.0
C      1  0.4871170000000  0.4126970000000  0.4686130000000 1.0
C      1  0.5072240000000  0.5065020000000  0.5151700000000 1.0
C      1  0.4868940000000  0.4636590000000  0.5214280000000 1.0
C      1  0.5379830000000  0.5185650000000  0.5834930000000 1.0
C      1  0.4702160000000  0.5390100000000  0.4493570000000 1.0
C      1  0.4822020000000  0.5366340000000  0.4922720000000 1.0
C      1  0.5228790000000  0.5138420000000  0.4162400000000 1.0
C      1  0.5480370000000  0.5246920000000  0.4225500000000 1.0
C      1  0.4647760000000  0.4949260000000  0.5727120000000 1.0
C      1  0.4695250000000  0.5329900000000  0.5174410000000 1.0
C      1  0.4245790000000  0.4673160000000  0.5208380000000 1.0
C      1  0.5161470000000  0.4901670000000  0.5624070000000 1.0
C      1  0.5014050000000  0.5017040000000  0.3980960000000 1.0
C      1  0.5154980000000  0.5743340000000  0.5030870000000 1.0
C      1  0.5230050000000  0.5025260000000  0.5361680000000 1.0
C      1  0.4517290000000  0.4446630000000  0.5520310000000 1.0
C      1  0.4700460000000  0.4269600000000  0.4492090000000 1.0
C      1  0.5736040000000  0.4490190000000  0.5262830000000 1.0
C      1  0.4914310000000  0.5728280000000  0.5472150000000 1.0
C      1  0.4413270000000  0.4704390000000  0.4292530000000 1.0
C      1  0.5335870000000  0.4595940000000  0.5240100000000 1.0
C      1  0.4841150000000  0.4648510000000  0.4623180000000 1.0
C      1  0.5401370000000  0.5802490000000  0.4863150000000 1.0
C      1  0.5899550000000  0.5049650000000  0.5012370000000 1.0
C      1  0.5601690000000  0.5374710000000  0.5358610000000 1.0
C      1  0.5301870000000  0.4171050000000  0.5090040000000 1.0
C      1  0.5415460000000  0.5216240000000  0.4619150000000 1.0
C      1  0.4989940000000  0.5329540000000  0.5771780000000 1.0
C      1  0.5576960000000  0.4440680000000  0.4746010000000 1.0
C      1  0.5750850000000  0.5522780000000  0.5116640000000 1.0
C      1  0.5367750000000  0.5536610000000  0.5486740000000 1.0
C      1  0.4445270000000  0.5159320000000  0.5656770000000 1.0
C      1  0.4859090000000  0.5876120000000  0.4923340000000 1.0
C      1  0.5326010000000  0.4614760000000  0.4472600000000 1.0
C      1  0.5085420000000  0.5480440000000  0.4900950000000 1.0
C      1  0.5631490000000  0.5337400000000  0.4447430000000 1.0
C      1  0.4227920000000  0.5254050000000  0.5256750000000 1.0
C      1  0.5792530000000  0.5141350000000  0.5486050000000 1.0
C      1  0.4229330000000  0.5092370000000  0.5483210000000 1.0
C      1  0.4357670000000  0.4609840000000  0.4560310000000 1.0
C      1  0.5768590000000  0.4477780000000  0.4970160000000 1.0
C      1  0.4604400000000  0.5718250000000  0.4879200000000 1.0
C      1  0.5456610000000  0.5141100000000  0.5225630000000 1.0
C      1  0.5352480000000  0.4244370000000  0.4818610000000 1.0
C      1  0.4773970000000  0.5184270000000  0.4688760000000 1.0
C      1  0.4571490000000  0.5099290000000  0.4124700000000 1.0
C      1  0.4821080000000  0.6098010000000  0.5113470000000 1.0
C      1  0.4671340000000  0.4835560000000  0.5141500000000 1.0
C      1  0.5671920000000  0.5678310000000  0.4876440000000 1.0
C      1  0.4282090000000  0.4835240000000  0.4716340000000 1.0
C      1  0.5641690000000  0.5604890000000  0.4583180000000 1.0
C      1  0.5694480000000  0.4907310000000  0.5626790000000 1.0
C      1  0.5452440000000  0.4321960000000  0.5308290000000 1.0
C      1  0.5364470000000  0.5697910000000  0.4590630000000 1.0
C      1  0.4974250000000  0.4547850000000  0.5492410000000 1.0
C      1  0.5606240000000  0.5004930000000  0.5013780000000 1.0
C      1  0.4357600000000  0.4990570000000  0.4289450000000 1.0
C      1  0.5870420000000  0.5325240000000  0.4974660000000 1.0
C      1  0.5133350000000  0.4226370000000  0.4632270000000 1.0
C      1  0.4468170000000  0.5460230000000  0.5301050000000 1.0
C      1  0.4782580000000  0.4145300000000  0.4971270000000 1.0
C      1  0.4980060000000  0.5287030000000  0.4071820000000 1.0
C      1  0.4266800000000  0.5149620000000  0.4991400000000 1.0
C      1  0.5255150000000  0.4481140000000  0.5488280000000 1.0
C      1  0.5274470000000  0.5432640000000  0.5749530000000 1.0
C      1  0.5077620000000  0.4476910000000  0.4460430000000 1.0
C      1  0.5113120000000  0.4658060000000  0.5070670000000 1.0
C      1  0.4532170000000  0.5733580000000  0.5154950000000 1.0
C      1  0.4668030000000  0.4634990000000  0.4156800000000 1.0
C      1  0.5427320000000  0.4920010000000  0.5771670000000 1.0
C      1  0.5499790000000  0.4691240000000  0.4597700000000 1.0
C      1  0.5947470000000  0.4976110000000  0.5301740000000 1.0
C      1  0.4890570000000  0.4151450000000  0.5382730000000 1.0
C      1  0.4903880000000  0.4915940000000  0.4698320000000 1.0
C      1  0.4932220000000  0.5044610000000  0.5745430000000 1.0
END
