TITL C-884134-5972-199 0.488975448175694 125000 -1830.02476244953 0 0 14 (C1) n - 1
REM
REM in /home/nfs/bkarasulu/CARBON/AIRSS/Generating-Clusters/ReaxFF-fromJPCA2015/Units_Real/with-SteepDescent/Only-C1/SD-CG/Try1-3A/FIRE-CG
REM
REM
REM
REM
REM
REM ./C.cell (11c1c37f851c82e70ff6c80c92926a4b)
REM
REM compiler GCC version 9.2.1 20190827 (Red Hat 9.2.1-1)
REM options -cpp -mtune=generic -march=x86-64 -g -O0 -fpre-include=/usr/include/finclude/math-vector-fortran.h
REM seed 83283159 -472235680 907632742 -1015351508 -1732233783 -1387164593 -7033693 -2141981921 -1885904679 -104951986 -232617740 -1206896632 1959778514 1620358880 -1716932915 -1690274184 768400577 702862760 -1835797554 -1465902027 294251972 -1682085900 740408731 -410243526 283207369 1644080531 913266282 -1130922555 1936660062 125485207 -524555996 -1932992991 -1884765824
REM
CELL 1.54180   50.00000   50.00000   50.00000   90.00000   90.00000   90.00000
LATT -1
SFAC C  
C      1  0.4635830000000  0.4591890000000  0.5222160000000 1.0
C      1  0.4816200000000  0.5069120000000  0.4955930000000 1.0
C      1  0.5767360000000  0.4940810000000  0.4825710000000 1.0
C      1  0.4930700000000  0.4645310000000  0.5222890000000 1.0
C      1  0.4927060000000  0.5531240000000  0.5353530000000 1.0
C      1  0.4414490000000  0.4717850000000  0.5078070000000 1.0
C      1  0.4895530000000  0.5337800000000  0.4846820000000 1.0
C      1  0.5284180000000  0.4904400000000  0.4982590000000 1.0
C      1  0.4357330000000  0.5087370000000  0.4751080000000 1.0
C      1  0.5523990000000  0.4923040000000  0.4909580000000 1.0
C      1  0.5996510000000  0.4957140000000  0.4743390000000 1.0
C      1  0.4912400000000  0.5442740000000  0.5130470000000 1.0
C      1  0.5020690000000  0.4883910000000  0.5062810000000 1.0
C      1  0.4517730000000  0.4967390000000  0.4914970000000 1.0
END
