TITL C-883735-9890-175 29.5646946049165 125000 -23715.1279165163 0 0 158 (C1) n - 1
REM
REM in /home/nfs/bkarasulu/CARBON/AIRSS/Generating-Clusters/ReaxFF-fromJPCA2015/Units_Real/with-SteepDescent/Only-C1/SD-CG/Try1-3A/FIRE-CG
REM
REM
REM
REM
REM
REM ./C.cell (11c1c37f851c82e70ff6c80c92926a4b)
REM
REM compiler GCC version 9.2.1 20190827 (Red Hat 9.2.1-1)
REM options -cpp -mtune=generic -march=x86-64 -g -O0 -fpre-include=/usr/include/finclude/math-vector-fortran.h
REM seed 338823094 -709031908 1412876642 -1014058979 -2043573269 -430864200 -862851817 2100226809 -1352792417 738816520 540738671 413401080 2040275575 1824124533 2078813395 -1609337641 -142247549 1374689443 1487399616 2143991002 -7887339 -1545816304 -848835441 -1203896735 -1225609219 132012041 1314711930 -879466549 9192906 1101973625 -226748659 -194181252 1136169499
REM
CELL 1.54180   50.00000   50.00000   50.00000   90.00000   90.00000   90.00000
LATT -1
SFAC C  
C      1  0.4238170000000  0.4265390000000  0.4710820000000 1.0
C      1  0.4648290000000  0.5494510000000  0.5858700000000 1.0
C      1  0.4615540000000  0.5395320000000  0.4750900000000 1.0
C      1  0.5526840000000  0.4278310000000  0.4576550000000 1.0
C      1  0.5919300000000  0.4842230000000  0.4558190000000 1.0
C      1  0.4379500000000  0.4654620000000  0.5677600000000 1.0
C      1  0.5055630000000  0.3986150000000  0.5266890000000 1.0
C      1  0.5349060000000  0.6037470000000  0.5337780000000 1.0
C      1  0.4345020000000  0.5702980000000  0.5561560000000 1.0
C      1  0.4594770000000  0.5118570000000  0.4815980000000 1.0
C      1  0.5926440000000  0.4557720000000  0.5315590000000 1.0
C      1  0.4214440000000  0.4904940000000  0.4479790000000 1.0
C      1  0.4524660000000  0.3939170000000  0.4869890000000 1.0
C      1  0.4640300000000  0.4090730000000  0.4381800000000 1.0
C      1  0.5839130000000  0.5549280000000  0.4792530000000 1.0
C      1  0.6201170000000  0.4680930000000  0.5014530000000 1.0
C      1  0.4270760000000  0.5741450000000  0.4881250000000 1.0
C      1  0.5772850000000  0.4577230000000  0.4636550000000 1.0
C      1  0.5443280000000  0.5294890000000  0.5128040000000 1.0
C      1  0.5250970000000  0.4478170000000  0.5376320000000 1.0
C      1  0.4181080000000  0.4623080000000  0.4425150000000 1.0
C      1  0.4513060000000  0.4664110000000  0.4796860000000 1.0
C      1  0.4378190000000  0.4224230000000  0.4450390000000 1.0
C      1  0.4762840000000  0.3849220000000  0.5009820000000 1.0
C      1  0.5629360000000  0.4223060000000  0.4976790000000 1.0
C      1  0.5390650000000  0.5787540000000  0.4320950000000 1.0
C      1  0.5368380000000  0.4817700000000  0.4562890000000 1.0
C      1  0.5430870000000  0.4959430000000  0.5934330000000 1.0
C      1  0.5000690000000  0.4185710000000  0.5795110000000 1.0
C      1  0.5224300000000  0.5992260000000  0.4188870000000 1.0
C      1  0.5265280000000  0.4134170000000  0.5406660000000 1.0
C      1  0.5717960000000  0.5267000000000  0.4356780000000 1.0
C      1  0.4267900000000  0.5121160000000  0.5063010000000 1.0
C      1  0.4804860000000  0.4801360000000  0.4405750000000 1.0
C      1  0.5752230000000  0.5721940000000  0.5328570000000 1.0
C      1  0.5919560000000  0.5054380000000  0.4735100000000 1.0
C      1  0.5705960000000  0.4435300000000  0.5462150000000 1.0
C      1  0.5030630000000  0.3966510000000  0.4989540000000 1.0
C      1  0.4651270000000  0.3959560000000  0.4626740000000 1.0
C      1  0.5360550000000  0.5696970000000  0.5691210000000 1.0
C      1  0.5450570000000  0.5176150000000  0.5396680000000 1.0
C      1  0.4385060000000  0.4464360000000  0.4286660000000 1.0
C      1  0.4890870000000  0.5536130000000  0.4119360000000 1.0
C      1  0.4378110000000  0.5557710000000  0.4677000000000 1.0
C      1  0.5806560000000  0.5721540000000  0.5030600000000 1.0
C      1  0.5470880000000  0.5335620000000  0.4455050000000 1.0
C      1  0.4066450000000  0.5429760000000  0.5383040000000 1.0
C      1  0.4354800000000  0.5335710000000  0.5248110000000 1.0
C      1  0.4400950000000  0.4920970000000  0.5799870000000 1.0
C      1  0.4882640000000  0.5739460000000  0.4590970000000 1.0
C      1  0.4095940000000  0.5296000000000  0.4512790000000 1.0
C      1  0.4798030000000  0.4730920000000  0.5907680000000 1.0
C      1  0.5842040000000  0.5317270000000  0.4621090000000 1.0
C      1  0.5885860000000  0.5213390000000  0.5253600000000 1.0
C      1  0.6112530000000  0.4948830000000  0.4904970000000 1.0
C      1  0.4626400000000  0.4431190000000  0.4856660000000 1.0
C      1  0.5516970000000  0.5837300000000  0.5476660000000 1.0
C      1  0.5068830000000  0.5679170000000  0.5646580000000 1.0
C      1  0.4770390000000  0.4784780000000  0.4118370000000 1.0
C      1  0.5396940000000  0.5500960000000  0.4239070000000 1.0
C      1  0.5658040000000  0.4829810000000  0.4132250000000 1.0
C      1  0.5668910000000  0.5135740000000  0.5032500000000 1.0
C      1  0.5875560000000  0.5488540000000  0.5442430000000 1.0
C      1  0.4594700000000  0.5848030000000  0.5520790000000 1.0
C      1  0.4890420000000  0.6186400000000  0.4543360000000 1.0
C      1  0.4582790000000  0.5536020000000  0.5152530000000 1.0
C      1  0.4860690000000  0.6038550000000  0.5094450000000 1.0
C      1  0.5349480000000  0.4752880000000  0.5190520000000 1.0
C      1  0.3893810000000  0.4874380000000  0.5279220000000 1.0
C      1  0.5156930000000  0.4727830000000  0.4722130000000 1.0
C      1  0.5277600000000  0.4956070000000  0.5430620000000 1.0
C      1  0.4942530000000  0.6047160000000  0.4287070000000 1.0
C      1  0.5807700000000  0.4982280000000  0.4332470000000 1.0
C      1  0.5569560000000  0.4742660000000  0.4765530000000 1.0
C      1  0.4393620000000  0.4909570000000  0.4733830000000 1.0
C      1  0.4400730000000  0.4212540000000  0.4965010000000 1.0
C      1  0.5455100000000  0.4666240000000  0.4285080000000 1.0
C      1  0.4082860000000  0.4501780000000  0.4680840000000 1.0
C      1  0.4771700000000  0.3933850000000  0.5302540000000 1.0
C      1  0.4964320000000  0.4527200000000  0.5494230000000 1.0
C      1  0.3970240000000  0.5118720000000  0.5061290000000 1.0
C      1  0.5269190000000  0.4211760000000  0.5698900000000 1.0
C      1  0.5543920000000  0.3970510000000  0.5409070000000 1.0
C      1  0.4655650000000  0.4981950000000  0.5947400000000 1.0
C      1  0.5141550000000  0.4780110000000  0.4989350000000 1.0
C      1  0.4386200000000  0.5464830000000  0.5747050000000 1.0
C      1  0.5264130000000  0.5966630000000  0.4786400000000 1.0
C      1  0.5083920000000  0.5629190000000  0.5165680000000 1.0
C      1  0.5841070000000  0.4365600000000  0.4838710000000 1.0
C      1  0.4809340000000  0.4283350000000  0.4218760000000 1.0
C      1  0.5153750000000  0.5439950000000  0.4077650000000 1.0
C      1  0.3966400000000  0.5048910000000  0.4561050000000 1.0
C      1  0.4393140000000  0.4263490000000  0.5272530000000 1.0
C      1  0.5439450000000  0.5862570000000  0.4602560000000 1.0
C      1  0.4892630000000  0.5466790000000  0.4696150000000 1.0
C      1  0.4032090000000  0.4643440000000  0.5201470000000 1.0
C      1  0.5260560000000  0.4502440000000  0.4170280000000 1.0
C      1  0.5488690000000  0.5472730000000  0.5829340000000 1.0
C      1  0.4522340000000  0.5796060000000  0.5029570000000 1.0
C      1  0.4515550000000  0.5174280000000  0.5435950000000 1.0
C      1  0.4751000000000  0.4299820000000  0.5651010000000 1.0
C      1  0.4840310000000  0.5757790000000  0.4312380000000 1.0
C      1  0.5585410000000  0.4854270000000  0.5031790000000 1.0
C      1  0.4952850000000  0.4615290000000  0.4588040000000 1.0
C      1  0.5442510000000  0.4960480000000  0.4003120000000 1.0
C      1  0.5087350000000  0.5923430000000  0.5234810000000 1.0
C      1  0.4765500000000  0.5092800000000  0.4445620000000 1.0
C      1  0.4992590000000  0.5225130000000  0.4563940000000 1.0
C      1  0.4843370000000  0.5468610000000  0.5215210000000 1.0
C      1  0.6113570000000  0.5049250000000  0.5183010000000 1.0
C      1  0.3895230000000  0.4940940000000  0.4830850000000 1.0
C      1  0.4851700000000  0.5246910000000  0.5439530000000 1.0
C      1  0.4643450000000  0.4511780000000  0.4139710000000 1.0
C      1  0.5763390000000  0.5457340000000  0.5712270000000 1.0
C      1  0.4603200000000  0.4144890000000  0.5419200000000 1.0
C      1  0.3980460000000  0.4674570000000  0.4904220000000 1.0
C      1  0.5681730000000  0.4191570000000  0.5286830000000 1.0
C      1  0.5716880000000  0.5107610000000  0.5474900000000 1.0
C      1  0.5308740000000  0.4781860000000  0.5722290000000 1.0
C      1  0.5266330000000  0.5127940000000  0.4480260000000 1.0
C      1  0.6133520000000  0.4775520000000  0.5286960000000 1.0
C      1  0.4820350000000  0.5048910000000  0.3985940000000 1.0
C      1  0.4343000000000  0.5182850000000  0.5672920000000 1.0
C      1  0.4549420000000  0.5246190000000  0.4304950000000 1.0
C      1  0.5029980000000  0.5391970000000  0.5645370000000 1.0
C      1  0.4781100000000  0.5725110000000  0.5714590000000 1.0
C      1  0.4627330000000  0.5972180000000  0.5246990000000 1.0
C      1  0.4894530000000  0.4380890000000  0.4747150000000 1.0
C      1  0.5345320000000  0.5237780000000  0.5953610000000 1.0
C      1  0.5244280000000  0.5029630000000  0.4173200000000 1.0
C      1  0.4786610000000  0.4650040000000  0.5294960000000 1.0
C      1  0.4047500000000  0.5695250000000  0.5069010000000 1.0
C      1  0.5386430000000  0.4232770000000  0.4824190000000 1.0
C      1  0.3922800000000  0.5435700000000  0.5132700000000 1.0
C      1  0.5315500000000  0.5534760000000  0.5023930000000 1.0
C      1  0.5091540000000  0.4197190000000  0.4847390000000 1.0
C      1  0.5723600000000  0.4895890000000  0.5998340000000 1.0
C      1  0.5344030000000  0.4169430000000  0.4383500000000 1.0
C      1  0.5059500000000  0.5287270000000  0.5919280000000 1.0
C      1  0.4601780000000  0.4531930000000  0.5795300000000 1.0
C      1  0.4772210000000  0.5249050000000  0.5972090000000 1.0
C      1  0.5096480000000  0.5167180000000  0.3964060000000 1.0
C      1  0.4324890000000  0.5421070000000  0.4414740000000 1.0
C      1  0.4702570000000  0.5303540000000  0.4067790000000 1.0
C      1  0.5433310000000  0.5754970000000  0.4864710000000 1.0
C      1  0.5440740000000  0.4485880000000  0.5603770000000 1.0
C      1  0.4915120000000  0.4866690000000  0.5142820000000 1.0
C      1  0.5103310000000  0.4280510000000  0.4200430000000 1.0
C      1  0.4472920000000  0.4961660000000  0.5201740000000 1.0
C      1  0.4286570000000  0.4526660000000  0.5381730000000 1.0
C      1  0.6027690000000  0.4446760000000  0.5054340000000 1.0
C      1  0.4961320000000  0.5995250000000  0.4775040000000 1.0
C      1  0.4702600000000  0.5014560000000  0.5043990000000 1.0
C      1  0.5030740000000  0.4694370000000  0.5741340000000 1.0
C      1  0.5809080000000  0.4982020000000  0.5726210000000 1.0
C      1  0.5017450000000  0.5022030000000  0.5357680000000 1.0
C      1  0.4515510000000  0.4686450000000  0.5283880000000 1.0
C      1  0.4114380000000  0.5714960000000  0.5375020000000 1.0
END
