TITL C-883740-3686-352 -0.0836466920750344 125000 -11709.1910103683 0 0 79 (C1) n - 1
REM
REM in /home/nfs/bkarasulu/CARBON/AIRSS/Generating-Clusters/ReaxFF-fromJPCA2015/Units_Real/with-SteepDescent/Only-C1/SD-CG/Try1-3A/FIRE-CG
REM
REM
REM
REM
REM
REM ./C.cell (11c1c37f851c82e70ff6c80c92926a4b)
REM
REM compiler GCC version 9.2.1 20190827 (Red Hat 9.2.1-1)
REM options -cpp -mtune=generic -march=x86-64 -g -O0 -fpre-include=/usr/include/finclude/math-vector-fortran.h
REM seed 1724432162 596178467 -1745667550 -1199815057 2071144997 -536006504 1258988538 -891473529 815371392 1059205298 -680626479 -1199916173 5406262 2080459558 1567391908 -872331178 -633327126 1403586942 1167004350 -538547172 737966092 939497491 -2120859329 -1502500732 -992348395 -1525214707 638995931 -1084810899 155722594 -1252088406 -1312960941 -20626005 -876677279
REM
CELL 1.54180   50.00000   50.00000   50.00000   90.00000   90.00000   90.00000
LATT -1
SFAC C  
C      1  0.5493120000000  0.5308480000000  0.5510970000000 1.0
C      1  0.4862310000000  0.4659400000000  0.5069480000000 1.0
C      1  0.4728830000000  0.4763190000000  0.5683840000000 1.0
C      1  0.4858310000000  0.5317550000000  0.4780590000000 1.0
C      1  0.5576920000000  0.5342250000000  0.5308340000000 1.0
C      1  0.4732780000000  0.5715700000000  0.5481370000000 1.0
C      1  0.4892400000000  0.5983340000000  0.4945060000000 1.0
C      1  0.4917840000000  0.4398030000000  0.4425590000000 1.0
C      1  0.5377400000000  0.4395860000000  0.4903420000000 1.0
C      1  0.5641940000000  0.4834920000000  0.4808900000000 1.0
C      1  0.4666830000000  0.5846830000000  0.5020660000000 1.0
C      1  0.5280770000000  0.4704530000000  0.5740460000000 1.0
C      1  0.4453520000000  0.4370330000000  0.5060460000000 1.0
C      1  0.4991510000000  0.5830860000000  0.5414710000000 1.0
C      1  0.4629000000000  0.4691290000000  0.4493260000000 1.0
C      1  0.4840970000000  0.4361340000000  0.5644060000000 1.0
C      1  0.5347340000000  0.5224100000000  0.5778440000000 1.0
C      1  0.4983240000000  0.5187390000000  0.4557790000000 1.0
C      1  0.5146020000000  0.4226610000000  0.4475990000000 1.0
C      1  0.5409750000000  0.5561130000000  0.4868360000000 1.0
C      1  0.5705880000000  0.5006010000000  0.4323120000000 1.0
C      1  0.5189350000000  0.5005050000000  0.4185190000000 1.0
C      1  0.5023410000000  0.4290010000000  0.5440450000000 1.0
C      1  0.5104490000000  0.4738600000000  0.4294120000000 1.0
C      1  0.5825660000000  0.5282540000000  0.4770350000000 1.0
C      1  0.4962900000000  0.5168640000000  0.4265610000000 1.0
C      1  0.5073980000000  0.5245880000000  0.5789240000000 1.0
C      1  0.4391940000000  0.5259620000000  0.5225180000000 1.0
C      1  0.4632960000000  0.5039060000000  0.5661180000000 1.0
C      1  0.5018030000000  0.4796820000000  0.5620770000000 1.0
C      1  0.5611750000000  0.4592680000000  0.5342410000000 1.0
C      1  0.4679510000000  0.4418080000000  0.4579990000000 1.0
C      1  0.4806450000000  0.4756780000000  0.4264730000000 1.0
C      1  0.4571930000000  0.4360360000000  0.5328910000000 1.0
C      1  0.5465440000000  0.4378920000000  0.5183420000000 1.0
C      1  0.5275090000000  0.5724430000000  0.5018840000000 1.0
C      1  0.5176060000000  0.4209340000000  0.4786240000000 1.0
C      1  0.5143920000000  0.5028760000000  0.4955930000000 1.0
C      1  0.4127870000000  0.4794030000000  0.5131110000000 1.0
C      1  0.5060380000000  0.4956100000000  0.5381740000000 1.0
C      1  0.5228110000000  0.4738700000000  0.4566220000000 1.0
C      1  0.5279000000000  0.5566910000000  0.4587860000000 1.0
C      1  0.4366000000000  0.4645500000000  0.5027060000000 1.0
C      1  0.4846080000000  0.4413490000000  0.5231900000000 1.0
C      1  0.4613790000000  0.5153230000000  0.5390660000000 1.0
C      1  0.4541040000000  0.5705970000000  0.5218240000000 1.0
C      1  0.4054860000000  0.4896870000000  0.5379900000000 1.0
C      1  0.4597870000000  0.5435250000000  0.4761400000000 1.0
C      1  0.4975500000000  0.5236350000000  0.5024020000000 1.0
C      1  0.5774030000000  0.5028200000000  0.4631970000000 1.0
C      1  0.4615510000000  0.4785460000000  0.4965420000000 1.0
C      1  0.5446540000000  0.4513220000000  0.5582780000000 1.0
C      1  0.5607330000000  0.5018080000000  0.5040280000000 1.0
C      1  0.4717600000000  0.5030810000000  0.4174790000000 1.0
C      1  0.5611260000000  0.4846250000000  0.5221150000000 1.0
C      1  0.5432300000000  0.5158490000000  0.4257410000000 1.0
C      1  0.4864200000000  0.5895170000000  0.4666830000000 1.0
C      1  0.4886500000000  0.5175140000000  0.5292300000000 1.0
C      1  0.4522240000000  0.5140100000000  0.4348610000000 1.0
C      1  0.5011740000000  0.5693100000000  0.4542010000000 1.0
C      1  0.4731550000000  0.5654780000000  0.4595490000000 1.0
C      1  0.5627090000000  0.5365210000000  0.4987040000000 1.0
C      1  0.4462130000000  0.5482760000000  0.5052510000000 1.0
C      1  0.4637820000000  0.4280390000000  0.4843190000000 1.0
C      1  0.4475220000000  0.5172990000000  0.4618230000000 1.0
C      1  0.5441930000000  0.4623880000000  0.4730510000000 1.0
C      1  0.4143630000000  0.5093830000000  0.5202860000000 1.0
C      1  0.4599930000000  0.4500520000000  0.5597380000000 1.0
C      1  0.5322500000000  0.4298890000000  0.5427640000000 1.0
C      1  0.4707040000000  0.5534550000000  0.5708550000000 1.0
C      1  0.4904280000000  0.4156550000000  0.4888820000000 1.0
C      1  0.4567430000000  0.4902490000000  0.4697800000000 1.0
C      1  0.4792590000000  0.5260850000000  0.5795810000000 1.0
C      1  0.5363600000000  0.5363530000000  0.4420800000000 1.0
C      1  0.5409960000000  0.4941320000000  0.5862070000000 1.0
C      1  0.5147470000000  0.4990500000000  0.4683600000000 1.0
C      1  0.5785660000000  0.4807430000000  0.4183620000000 1.0
C      1  0.5110240000000  0.5903210000000  0.5144920000000 1.0
C      1  0.5100590000000  0.4815210000000  0.5128060000000 1.0
END
