TITL C-883732-77-173 6.19770061278991 125000 -2584.9933527541 0 0 19 (C1) n - 1
REM
REM in /home/nfs/bkarasulu/CARBON/AIRSS/Generating-Clusters/ReaxFF-fromJPCA2015/Units_Real/with-SteepDescent/Only-C1/SD-CG/Try1-3A/FIRE-CG
REM
REM
REM
REM
REM
REM ./C.cell (11c1c37f851c82e70ff6c80c92926a4b)
REM
REM compiler GCC version 9.2.1 20190827 (Red Hat 9.2.1-1)
REM options -cpp -mtune=generic -march=x86-64 -g -O0 -fpre-include=/usr/include/finclude/math-vector-fortran.h
REM seed -151972715 -113095157 633865817 633930481 151709315 1681029611 -1918822398 2124595823 157190932 -657982631 514576172 487620693 879709038 1868601382 -256208286 -1869622227 -421696073 1952709692 1421145473 835381770 1320538420 -1358762828 1908016193 -400846819 -690759591 1962129114 -1337485163 1563928533 1236252540 -729946643 -526590392 -845928756 -1316661641
REM
CELL 1.54180   50.00000   50.00000   50.00000   90.00000   90.00000   90.00000
LATT -1
SFAC C  
C      1  0.4915800000000  0.5189410000000  0.5276270000000 1.0
C      1  0.4402310000000  0.5132780000000  0.4881160000000 1.0
C      1  0.4865880000000  0.5345640000000  0.5025470000000 1.0
C      1  0.4538230000000  0.4849180000000  0.4805210000000 1.0
C      1  0.4665360000000  0.4510030000000  0.5188160000000 1.0
C      1  0.5473360000000  0.5109080000000  0.4703990000000 1.0
C      1  0.4603370000000  0.4675400000000  0.5001430000000 1.0
C      1  0.5412450000000  0.5213850000000  0.5454940000000 1.0
C      1  0.4655770000000  0.5253050000000  0.4805150000000 1.0
C      1  0.5302370000000  0.4876330000000  0.4692860000000 1.0
C      1  0.5446890000000  0.5295410000000  0.5188740000000 1.0
C      1  0.5155700000000  0.5032240000000  0.5357670000000 1.0
C      1  0.5232670000000  0.4843900000000  0.5169890000000 1.0
C      1  0.5402770000000  0.5334590000000  0.4905550000000 1.0
C      1  0.5021680000000  0.4927620000000  0.4627030000000 1.0
C      1  0.5312840000000  0.4683210000000  0.4958130000000 1.0
C      1  0.5126100000000  0.5370810000000  0.4938600000000 1.0
C      1  0.4742560000000  0.5003620000000  0.4651920000000 1.0
C      1  0.4723860000000  0.4353860000000  0.5367830000000 1.0
END
