TITL C-883729-9652-383 17.6234553138299 125000 -16944.9300848478 0 0 115 (C1) n - 1
REM
REM in /home/nfs/bkarasulu/CARBON/AIRSS/Generating-Clusters/ReaxFF-fromJPCA2015/Units_Real/with-SteepDescent/Only-C1/SD-CG/Try1-3A/FIRE-CG
REM
REM
REM
REM
REM
REM ./C.cell (11c1c37f851c82e70ff6c80c92926a4b)
REM
REM compiler GCC version 9.2.1 20190827 (Red Hat 9.2.1-1)
REM options -cpp -mtune=generic -march=x86-64 -g -O0 -fpre-include=/usr/include/finclude/math-vector-fortran.h
REM seed -94470351 -1921930686 -1909211552 1780090580 -203750655 -1648513077 -1799995685 -760620084 559227290 -1510842379 1009994970 1754728856 352717946 228493148 -1499223574 1651399053 1454718965 1786219296 -967048141 -1468032104 -371495404 -530916768 2038430954 547488777 -119916845 -646017440 402870345 -785130886 1078393578 167892560 -1742814697 1964025201 393019375
REM
CELL 1.54180   50.00000   50.00000   50.00000   90.00000   90.00000   90.00000
LATT -1
SFAC C  
C      1  0.4560200000000  0.4601720000000  0.5791320000000 1.0
C      1  0.5691150000000  0.4411940000000  0.5146500000000 1.0
C      1  0.5111740000000  0.4663430000000  0.5824460000000 1.0
C      1  0.5256960000000  0.5300450000000  0.5317490000000 1.0
C      1  0.5374400000000  0.4946800000000  0.4258800000000 1.0
C      1  0.5259180000000  0.5695640000000  0.5520420000000 1.0
C      1  0.4649570000000  0.4899670000000  0.4933330000000 1.0
C      1  0.4895270000000  0.5113540000000  0.4568840000000 1.0
C      1  0.4862650000000  0.5738970000000  0.4918740000000 1.0
C      1  0.5550700000000  0.4557890000000  0.5651840000000 1.0
C      1  0.4404360000000  0.4674440000000  0.4394170000000 1.0
C      1  0.5057450000000  0.5355930000000  0.4281510000000 1.0
C      1  0.4741680000000  0.5311240000000  0.5225500000000 1.0
C      1  0.5246640000000  0.5242430000000  0.5814160000000 1.0
C      1  0.4302550000000  0.4134090000000  0.5090380000000 1.0
C      1  0.4156520000000  0.4778050000000  0.5035740000000 1.0
C      1  0.4719390000000  0.4550240000000  0.5273810000000 1.0
C      1  0.4898000000000  0.4091850000000  0.5234720000000 1.0
C      1  0.4532300000000  0.5185690000000  0.5397750000000 1.0
C      1  0.5204490000000  0.4367580000000  0.4287120000000 1.0
C      1  0.4910910000000  0.5508730000000  0.4479590000000 1.0
C      1  0.4200250000000  0.4773190000000  0.4572490000000 1.0
C      1  0.5137290000000  0.4623000000000  0.4159740000000 1.0
C      1  0.5722350000000  0.5389080000000  0.5089010000000 1.0
C      1  0.5821370000000  0.5360140000000  0.4783950000000 1.0
C      1  0.5911670000000  0.5120750000000  0.4652120000000 1.0
C      1  0.5500090000000  0.4417090000000  0.4910680000000 1.0
C      1  0.5198100000000  0.4405090000000  0.5388170000000 1.0
C      1  0.4467060000000  0.4380870000000  0.4462030000000 1.0
C      1  0.4856600000000  0.4745250000000  0.4136790000000 1.0
C      1  0.5778620000000  0.4721470000000  0.4566860000000 1.0
C      1  0.5217630000000  0.4783220000000  0.4392510000000 1.0
C      1  0.4713170000000  0.5462810000000  0.4959610000000 1.0
C      1  0.4510370000000  0.4148490000000  0.4903130000000 1.0
C      1  0.4463990000000  0.5725250000000  0.4521100000000 1.0
C      1  0.5773970000000  0.4873270000000  0.5019830000000 1.0
C      1  0.4689530000000  0.4738460000000  0.4389900000000 1.0
C      1  0.4459820000000  0.5254660000000  0.4258310000000 1.0
C      1  0.5948050000000  0.4832750000000  0.5250570000000 1.0
C      1  0.5006400000000  0.5305700000000  0.5272770000000 1.0
C      1  0.4333430000000  0.5555850000000  0.5513650000000 1.0
C      1  0.5283140000000  0.4199690000000  0.4959690000000 1.0
C      1  0.4455610000000  0.5672760000000  0.5286970000000 1.0
C      1  0.5354130000000  0.4817370000000  0.5280380000000 1.0
C      1  0.5588950000000  0.4829540000000  0.5753640000000 1.0
C      1  0.4366800000000  0.4359130000000  0.4749050000000 1.0
C      1  0.4247080000000  0.5262450000000  0.5418730000000 1.0
C      1  0.4289380000000  0.5573890000000  0.4712870000000 1.0
C      1  0.4996680000000  0.5802620000000  0.5413120000000 1.0
C      1  0.5759740000000  0.4990400000000  0.4430780000000 1.0
C      1  0.4962930000000  0.5271600000000  0.5886990000000 1.0
C      1  0.5248370000000  0.5347000000000  0.4839200000000 1.0
C      1  0.5048520000000  0.4165520000000  0.4806060000000 1.0
C      1  0.4839860000000  0.4829680000000  0.4658910000000 1.0
C      1  0.4743480000000  0.4340910000000  0.4475340000000 1.0
C      1  0.4578490000000  0.4377070000000  0.5618010000000 1.0
C      1  0.4179910000000  0.4592940000000  0.4795490000000 1.0
C      1  0.5073200000000  0.5733360000000  0.4459410000000 1.0
C      1  0.5525790000000  0.5439300000000  0.4349040000000 1.0
C      1  0.4373080000000  0.4864670000000  0.5743160000000 1.0
C      1  0.5892370000000  0.4549870000000  0.5278040000000 1.0
C      1  0.5566740000000  0.5150940000000  0.4268460000000 1.0
C      1  0.4754070000000  0.4290500000000  0.5410160000000 1.0
C      1  0.5474910000000  0.4920450000000  0.5032030000000 1.0
C      1  0.5849120000000  0.5233070000000  0.5303480000000 1.0
C      1  0.4976540000000  0.5831170000000  0.5139860000000 1.0
C      1  0.5318310000000  0.5420690000000  0.5599720000000 1.0
C      1  0.4215110000000  0.5286760000000  0.5118470000000 1.0
C      1  0.4696280000000  0.5752500000000  0.5443080000000 1.0
C      1  0.5663040000000  0.5670540000000  0.5180020000000 1.0
C      1  0.5698240000000  0.4431110000000  0.5433320000000 1.0
C      1  0.4252970000000  0.4397000000000  0.5158370000000 1.0
C      1  0.4957210000000  0.5320290000000  0.4772570000000 1.0
C      1  0.5662730000000  0.5513850000000  0.4600530000000 1.0
C      1  0.4494530000000  0.5063760000000  0.4754450000000 1.0
C      1  0.5021990000000  0.4351790000000  0.4544720000000 1.0
C      1  0.4098260000000  0.5062910000000  0.4982540000000 1.0
C      1  0.4431860000000  0.4584960000000  0.5295320000000 1.0
C      1  0.4555250000000  0.5096390000000  0.5670300000000 1.0
C      1  0.4839340000000  0.4632060000000  0.5819150000000 1.0
C      1  0.5752640000000  0.4996630000000  0.5616690000000 1.0
C      1  0.4162570000000  0.4976770000000  0.5604620000000 1.0
C      1  0.5623680000000  0.4478290000000  0.4620960000000 1.0
C      1  0.4405000000000  0.5498200000000  0.5010670000000 1.0
C      1  0.4812520000000  0.4100090000000  0.4959830000000 1.0
C      1  0.5187860000000  0.4159770000000  0.5237170000000 1.0
C      1  0.4181880000000  0.5067530000000  0.4691330000000 1.0
C      1  0.5292420000000  0.4668920000000  0.4902090000000 1.0
C      1  0.5074050000000  0.5844410000000  0.4736510000000 1.0
C      1  0.4862680000000  0.5011420000000  0.4061420000000 1.0
C      1  0.4630190000000  0.5450840000000  0.4131690000000 1.0
C      1  0.4685420000000  0.5665670000000  0.4340770000000 1.0
C      1  0.5408170000000  0.5574650000000  0.4745620000000 1.0
C      1  0.5302650000000  0.4937890000000  0.5794590000000 1.0
C      1  0.5500580000000  0.5877120000000  0.5087560000000 1.0
C      1  0.4138840000000  0.5371140000000  0.4588900000000 1.0
C      1  0.5479470000000  0.4355490000000  0.4392460000000 1.0
C      1  0.5142960000000  0.4646770000000  0.5184710000000 1.0
C      1  0.5417420000000  0.5238560000000  0.5056800000000 1.0
C      1  0.5348920000000  0.5844570000000  0.4840440000000 1.0
C      1  0.5934910000000  0.4848990000000  0.4782550000000 1.0
C      1  0.4767020000000  0.5456620000000  0.5803640000000 1.0
C      1  0.4882380000000  0.4785260000000  0.5229770000000 1.0
C      1  0.5103220000000  0.4675520000000  0.4670480000000 1.0
C      1  0.4841730000000  0.5055630000000  0.5710360000000 1.0
C      1  0.4609770000000  0.5159200000000  0.4517200000000 1.0
C      1  0.4876800000000  0.5287440000000  0.4052120000000 1.0
C      1  0.5232950000000  0.4934830000000  0.5501980000000 1.0
C      1  0.5482680000000  0.5789270000000  0.5359560000000 1.0
C      1  0.4573350000000  0.5629770000000  0.5691840000000 1.0
C      1  0.4438760000000  0.4808380000000  0.5109860000000 1.0
C      1  0.5920950000000  0.5055270000000  0.5439070000000 1.0
C      1  0.5271040000000  0.4475220000000  0.5661800000000 1.0
C      1  0.5265750000000  0.5560100000000  0.4304330000000 1.0
C      1  0.4958920000000  0.4936550000000  0.5469770000000 1.0
END
