TITL C-884136-4169-123 15.5987257037956 125000 -21340.4718060044 0 0 144 (C1) n - 1
REM
REM in /home/nfs/bkarasulu/CARBON/AIRSS/Generating-Clusters/ReaxFF-fromJPCA2015/Units_Real/with-SteepDescent/Only-C1/SD-CG/Try1-3A/FIRE-CG
REM
REM
REM
REM
REM
REM ./C.cell (11c1c37f851c82e70ff6c80c92926a4b)
REM
REM compiler GCC version 9.2.1 20190827 (Red Hat 9.2.1-1)
REM options -cpp -mtune=generic -march=x86-64 -g -O0 -fpre-include=/usr/include/finclude/math-vector-fortran.h
REM seed -116514942 -1461160423 296428411 -910615520 21206581 -1233755603 419478314 -1795654569 -1709807851 -553155695 1541876633 308537783 834697352 -1643270796 2006946691 -818934886 -1766802778 2098047293 -513025305 1955897551 1208113999 -911016142 1617059515 1862231912 -715048228 345988077 944230825 1548527961 -417906273 152038332 1039618044 7918016 -264472473
REM
CELL 1.54180   50.00000   50.00000   50.00000   90.00000   90.00000   90.00000
LATT -1
SFAC C  
C      1  0.4815520000000  0.5428890000000  0.4990430000000 1.0
C      1  0.4673430000000  0.4495960000000  0.5021510000000 1.0
C      1  0.4933810000000  0.5751290000000  0.5349440000000 1.0
C      1  0.5240240000000  0.4657720000000  0.3938570000000 1.0
C      1  0.4786130000000  0.4540450000000  0.4166570000000 1.0
C      1  0.4567400000000  0.5114180000000  0.4142380000000 1.0
C      1  0.5200440000000  0.4380480000000  0.4828930000000 1.0
C      1  0.4191310000000  0.5511570000000  0.5409030000000 1.0
C      1  0.4580100000000  0.5348140000000  0.5632490000000 1.0
C      1  0.5579630000000  0.5305150000000  0.5294830000000 1.0
C      1  0.5537750000000  0.5648890000000  0.5527600000000 1.0
C      1  0.4596540000000  0.5179860000000  0.5443640000000 1.0
C      1  0.5022020000000  0.4948680000000  0.4203630000000 1.0
C      1  0.4410370000000  0.4619280000000  0.4537890000000 1.0
C      1  0.4927630000000  0.5647560000000  0.5762000000000 1.0
C      1  0.4375480000000  0.4988360000000  0.5091060000000 1.0
C      1  0.5309870000000  0.4258260000000  0.5542770000000 1.0
C      1  0.5568870000000  0.4659770000000  0.5726600000000 1.0
C      1  0.5805830000000  0.5714770000000  0.5102370000000 1.0
C      1  0.4066960000000  0.5550210000000  0.4793410000000 1.0
C      1  0.5384520000000  0.5549320000000  0.4535390000000 1.0
C      1  0.4114660000000  0.5008210000000  0.5214410000000 1.0
C      1  0.5090610000000  0.5512480000000  0.5408560000000 1.0
C      1  0.5234910000000  0.5367240000000  0.4131730000000 1.0
C      1  0.4887950000000  0.4671880000000  0.4655760000000 1.0
C      1  0.4423840000000  0.5142500000000  0.4822130000000 1.0
C      1  0.5411470000000  0.5854720000000  0.5323230000000 1.0
C      1  0.4814050000000  0.5252890000000  0.6102970000000 1.0
C      1  0.3996100000000  0.5421800000000  0.5021040000000 1.0
C      1  0.4858230000000  0.5263920000000  0.4527150000000 1.0
C      1  0.5351460000000  0.5372860000000  0.4761200000000 1.0
C      1  0.4869900000000  0.4025320000000  0.4906550000000 1.0
C      1  0.4538630000000  0.5389160000000  0.4208380000000 1.0
C      1  0.4979910000000  0.5184710000000  0.4972600000000 1.0
C      1  0.5009460000000  0.5221960000000  0.4266020000000 1.0
C      1  0.5846950000000  0.4569690000000  0.5343330000000 1.0
C      1  0.6026150000000  0.4993940000000  0.5329410000000 1.0
C      1  0.4529220000000  0.4469810000000  0.5252180000000 1.0
C      1  0.4353880000000  0.5653600000000  0.4928160000000 1.0
C      1  0.5557430000000  0.5140490000000  0.4864590000000 1.0
C      1  0.5846500000000  0.5196140000000  0.4817040000000 1.0
C      1  0.4417420000000  0.4446820000000  0.5458350000000 1.0
C      1  0.4180510000000  0.4598850000000  0.4685760000000 1.0
C      1  0.4534740000000  0.5426580000000  0.4925850000000 1.0
C      1  0.5202440000000  0.4566050000000  0.5032750000000 1.0
C      1  0.5255410000000  0.5526870000000  0.4983870000000 1.0
C      1  0.5001060000000  0.5946940000000  0.4994690000000 1.0
C      1  0.5581850000000  0.5902590000000  0.5089480000000 1.0
C      1  0.5710210000000  0.4574660000000  0.4848250000000 1.0
C      1  0.5637970000000  0.4945800000000  0.5692160000000 1.0
C      1  0.5438550000000  0.5441530000000  0.5711860000000 1.0
C      1  0.6050640000000  0.4825710000000  0.4532090000000 1.0
C      1  0.4155520000000  0.5095720000000  0.4666020000000 1.0
C      1  0.4167640000000  0.4957480000000  0.5463050000000 1.0
C      1  0.4659230000000  0.4292940000000  0.5759870000000 1.0
C      1  0.5741920000000  0.5540900000000  0.5337760000000 1.0
C      1  0.4792360000000  0.5572730000000  0.4491840000000 1.0
C      1  0.4997980000000  0.5654210000000  0.4939060000000 1.0
C      1  0.5464610000000  0.4638880000000  0.4129540000000 1.0
C      1  0.5335840000000  0.4683310000000  0.5868030000000 1.0
C      1  0.4166930000000  0.4382020000000  0.4895770000000 1.0
C      1  0.5618590000000  0.4750140000000  0.5308800000000 1.0
C      1  0.5626850000000  0.5078030000000  0.4327690000000 1.0
C      1  0.5873910000000  0.4689390000000  0.4359930000000 1.0
C      1  0.5684420000000  0.4837150000000  0.4175390000000 1.0
C      1  0.5715090000000  0.5023210000000  0.5395120000000 1.0
C      1  0.5829420000000  0.5422660000000  0.4638380000000 1.0
C      1  0.5309020000000  0.5416370000000  0.5239080000000 1.0
C      1  0.4657330000000  0.5644000000000  0.5640940000000 1.0
C      1  0.5397960000000  0.5817230000000  0.4555090000000 1.0
C      1  0.4928950000000  0.4130610000000  0.4583070000000 1.0
C      1  0.4027160000000  0.4845470000000  0.4755430000000 1.0
C      1  0.5184940000000  0.4439110000000  0.5750680000000 1.0
C      1  0.4370670000000  0.4150670000000  0.4933030000000 1.0
C      1  0.4014580000000  0.5303300000000  0.5262400000000 1.0
C      1  0.5518130000000  0.4946720000000  0.4588000000000 1.0
C      1  0.4568560000000  0.5117740000000  0.6009900000000 1.0
C      1  0.4191560000000  0.5465480000000  0.5696050000000 1.0
C      1  0.5028260000000  0.4033480000000  0.5149810000000 1.0
C      1  0.4342620000000  0.5216080000000  0.5835280000000 1.0
C      1  0.4748790000000  0.4336070000000  0.4348030000000 1.0
C      1  0.5037430000000  0.5078670000000  0.5982530000000 1.0
C      1  0.5138400000000  0.5940700000000  0.5267750000000 1.0
C      1  0.5124300000000  0.5045710000000  0.5177740000000 1.0
C      1  0.4587670000000  0.4812030000000  0.4109510000000 1.0
C      1  0.4236930000000  0.4946060000000  0.5722600000000 1.0
C      1  0.5494580000000  0.5167760000000  0.5816180000000 1.0
C      1  0.4100830000000  0.5357650000000  0.4564630000000 1.0
C      1  0.4909990000000  0.4860770000000  0.5261130000000 1.0
C      1  0.4387930000000  0.5678480000000  0.5232270000000 1.0
C      1  0.5269910000000  0.5207360000000  0.3887840000000 1.0
C      1  0.4520760000000  0.4369050000000  0.4514180000000 1.0
C      1  0.4772820000000  0.3987160000000  0.5312740000000 1.0
C      1  0.5536360000000  0.4203070000000  0.5128020000000 1.0
C      1  0.5597120000000  0.4292800000000  0.4855280000000 1.0
C      1  0.4001000000000  0.4541920000000  0.5047250000000 1.0
C      1  0.5215900000000  0.4070710000000  0.4522620000000 1.0
C      1  0.5240580000000  0.4943330000000  0.4611300000000 1.0
C      1  0.4374750000000  0.5730960000000  0.4586870000000 1.0
C      1  0.4613070000000  0.5010730000000  0.5253910000000 1.0
C      1  0.4613490000000  0.4003140000000  0.5036830000000 1.0
C      1  0.4905920000000  0.4474450000000  0.5798100000000 1.0
C      1  0.5794240000000  0.5670760000000  0.4804660000000 1.0
C      1  0.4943980000000  0.4396000000000  0.4718340000000 1.0
C      1  0.5068210000000  0.4483540000000  0.4115150000000 1.0
C      1  0.5132490000000  0.5411890000000  0.5668430000000 1.0
C      1  0.4929680000000  0.4639630000000  0.5061360000000 1.0
C      1  0.4994720000000  0.4900420000000  0.5541120000000 1.0
C      1  0.4556760000000  0.4323820000000  0.4800550000000 1.0
C      1  0.4323090000000  0.5506270000000  0.4426170000000 1.0
C      1  0.5020910000000  0.5129490000000  0.5696100000000 1.0
C      1  0.5988430000000  0.4708830000000  0.4918030000000 1.0
C      1  0.5309220000000  0.4976600000000  0.5959300000000 1.0
C      1  0.4716000000000  0.4136770000000  0.5534930000000 1.0
C      1  0.4635530000000  0.5078930000000  0.4616100000000 1.0
C      1  0.6041990000000  0.4965000000000  0.4780240000000 1.0
C      1  0.5117010000000  0.5171040000000  0.4714750000000 1.0
C      1  0.4842730000000  0.5501820000000  0.5978910000000 1.0
C      1  0.4629190000000  0.4795000000000  0.4588790000000 1.0
C      1  0.4629600000000  0.5758970000000  0.5374810000000 1.0
C      1  0.5719550000000  0.4306070000000  0.5340490000000 1.0
C      1  0.5388330000000  0.4984870000000  0.5064610000000 1.0
C      1  0.4384660000000  0.4727230000000  0.5834480000000 1.0
C      1  0.5580900000000  0.5865610000000  0.4784500000000 1.0
C      1  0.5572680000000  0.4367100000000  0.5585490000000 1.0
C      1  0.5135690000000  0.4935090000000  0.3940590000000 1.0
C      1  0.3941150000000  0.4813050000000  0.5033860000000 1.0
C      1  0.5695730000000  0.5356830000000  0.4374550000000 1.0
C      1  0.5401820000000  0.4288020000000  0.4618170000000 1.0
C      1  0.4855060000000  0.4756250000000  0.5760660000000 1.0
C      1  0.5278970000000  0.4149010000000  0.5266570000000 1.0
C      1  0.5457810000000  0.5510720000000  0.4285970000000 1.0
C      1  0.5108470000000  0.4763370000000  0.4453180000000 1.0
C      1  0.5459760000000  0.4710440000000  0.5069570000000 1.0
C      1  0.4340320000000  0.4790670000000  0.4057570000000 1.0
C      1  0.5129360000000  0.5945650000000  0.4504830000000 1.0
C      1  0.4897080000000  0.5809190000000  0.4369240000000 1.0
C      1  0.6059800000000  0.4735470000000  0.5202130000000 1.0
C      1  0.4756030000000  0.5597720000000  0.4210110000000 1.0
C      1  0.4621540000000  0.4850520000000  0.5919300000000 1.0
C      1  0.5059380000000  0.6105460000000  0.4744380000000 1.0
C      1  0.4410180000000  0.4464250000000  0.5736480000000 1.0
C      1  0.5280360000000  0.4519800000000  0.4329420000000 1.0
C      1  0.5667060000000  0.4674740000000  0.4571710000000 1.0
END
