TITL C-884141-4321-457 13.3634558723491 125000 -9646.01622446228 0 0 66 (C1) n - 1
REM
REM in /home/nfs/bkarasulu/CARBON/AIRSS/Generating-Clusters/ReaxFF-fromJPCA2015/Units_Real/with-SteepDescent/Only-C1/SD-CG/Try1-3A/FIRE-CG
REM
REM
REM
REM
REM
REM ./C.cell (11c1c37f851c82e70ff6c80c92926a4b)
REM
REM compiler GCC version 9.2.1 20190827 (Red Hat 9.2.1-1)
REM options -cpp -mtune=generic -march=x86-64 -g -O0 -fpre-include=/usr/include/finclude/math-vector-fortran.h
REM seed 2108629728 2022398785 -165398392 -792087469 -97781547 204193836 -965706717 695872190 -1618073464 -1231320232 -174160516 564370633 -996400931 -706892307 -495833879 333372230 -332970120 1016572376 1338895654 1794316742 -1272419443 1427411160 751309359 932462521 -2058083732 -89735516 1202380579 77354338 -608700586 -1248575632 -1896401366 1560853670 1814039580
REM
CELL 1.54180   50.00000   50.00000   50.00000   90.00000   90.00000   90.00000
LATT -1
SFAC C  
C      1  0.5198570000000  0.5089140000000  0.4333210000000 1.0
C      1  0.4804410000000  0.5457580000000  0.4489830000000 1.0
C      1  0.5218510000000  0.5607270000000  0.5578250000000 1.0
C      1  0.5684230000000  0.5456380000000  0.5015190000000 1.0
C      1  0.4599930000000  0.4518120000000  0.4524740000000 1.0
C      1  0.4875910000000  0.4247580000000  0.5211680000000 1.0
C      1  0.5250500000000  0.4518220000000  0.5358940000000 1.0
C      1  0.5253340000000  0.5095600000000  0.4954160000000 1.0
C      1  0.5338510000000  0.5427690000000  0.5789450000000 1.0
C      1  0.5414870000000  0.5204420000000  0.4490700000000 1.0
C      1  0.4501270000000  0.5149610000000  0.5331300000000 1.0
C      1  0.4131690000000  0.4744720000000  0.4900450000000 1.0
C      1  0.5258980000000  0.5340890000000  0.4712730000000 1.0
C      1  0.4869950000000  0.5377650000000  0.5553510000000 1.0
C      1  0.4980360000000  0.5324070000000  0.4631570000000 1.0
C      1  0.5743240000000  0.4884300000000  0.5079130000000 1.0
C      1  0.5673650000000  0.4974880000000  0.5348530000000 1.0
C      1  0.4516550000000  0.4440740000000  0.5499310000000 1.0
C      1  0.4933590000000  0.5644350000000  0.5496110000000 1.0
C      1  0.4763710000000  0.4256830000000  0.4956290000000 1.0
C      1  0.5383990000000  0.5810480000000  0.4935640000000 1.0
C      1  0.4702790000000  0.4277370000000  0.4680770000000 1.0
C      1  0.4648020000000  0.5380890000000  0.5380440000000 1.0
C      1  0.4376520000000  0.5262750000000  0.4663910000000 1.0
C      1  0.5379250000000  0.5728950000000  0.5354970000000 1.0
C      1  0.4831840000000  0.4500020000000  0.4329840000000 1.0
C      1  0.4697020000000  0.5574100000000  0.5174010000000 1.0
C      1  0.4894930000000  0.4868300000000  0.5525220000000 1.0
C      1  0.4461930000000  0.4655320000000  0.5303690000000 1.0
C      1  0.5639210000000  0.5101540000000  0.4648770000000 1.0
C      1  0.5224030000000  0.4820000000000  0.4460390000000 1.0
C      1  0.4910490000000  0.5754170000000  0.5236090000000 1.0
C      1  0.5005440000000  0.4607560000000  0.5527410000000 1.0
C      1  0.4208020000000  0.4677110000000  0.5171880000000 1.0
C      1  0.5529830000000  0.4908350000000  0.4849980000000 1.0
C      1  0.4572000000000  0.5479350000000  0.4645240000000 1.0
C      1  0.5691980000000  0.4588410000000  0.5080250000000 1.0
C      1  0.5581480000000  0.5677440000000  0.5144200000000 1.0
C      1  0.4554610000000  0.4773820000000  0.4635550000000 1.0
C      1  0.5337460000000  0.5649160000000  0.4711480000000 1.0
C      1  0.5530000000000  0.5061430000000  0.5510280000000 1.0
C      1  0.5134110000000  0.4366850000000  0.5132280000000 1.0
C      1  0.5086860000000  0.4723270000000  0.4723490000000 1.0
C      1  0.5334450000000  0.5150400000000  0.5680450000000 1.0
C      1  0.5746260000000  0.5252670000000  0.4868340000000 1.0
C      1  0.4896350000000  0.4977750000000  0.5116760000000 1.0
C      1  0.4399410000000  0.4993620000000  0.4557080000000 1.0
C      1  0.4674320000000  0.4900880000000  0.5318250000000 1.0
C      1  0.4287140000000  0.5162050000000  0.5148290000000 1.0
C      1  0.4125590000000  0.4939350000000  0.5102790000000 1.0
C      1  0.4282310000000  0.4743210000000  0.4651420000000 1.0
C      1  0.5015410000000  0.4716400000000  0.4317610000000 1.0
C      1  0.4535940000000  0.5537370000000  0.4932740000000 1.0
C      1  0.4937110000000  0.4274420000000  0.4493190000000 1.0
C      1  0.5601180000000  0.4594010000000  0.4796350000000 1.0
C      1  0.5501960000000  0.4615740000000  0.5286860000000 1.0
C      1  0.4940370000000  0.5231030000000  0.4372930000000 1.0
C      1  0.5482780000000  0.4393910000000  0.4613020000000 1.0
C      1  0.5021260000000  0.4934810000000  0.4872210000000 1.0
C      1  0.5054400000000  0.5123710000000  0.5517820000000 1.0
C      1  0.5186260000000  0.5827770000000  0.5166090000000 1.0
C      1  0.5102460000000  0.5140000000000  0.5210750000000 1.0
C      1  0.5199730000000  0.4281890000000  0.4630750000000 1.0
C      1  0.4815870000000  0.4393990000000  0.5474020000000 1.0
C      1  0.4324380000000  0.5340130000000  0.4940320000000 1.0
C      1  0.5141470000000  0.4468200000000  0.4851120000000 1.0
END
