TITL C-883726-8501-237 0.153648141404942 125000 -9510.23587222239 0 0 66 (C1) n - 1
REM
REM in /home/nfs/bkarasulu/CARBON/AIRSS/Generating-Clusters/ReaxFF-fromJPCA2015/Units_Real/with-SteepDescent/Only-C1/SD-CG/Try1-3A/FIRE-CG
REM
REM
REM
REM
REM
REM ./C.cell (11c1c37f851c82e70ff6c80c92926a4b)
REM
REM compiler GCC version 9.2.1 20190827 (Red Hat 9.2.1-1)
REM options -cpp -mtune=generic -march=x86-64 -g -O0 -fpre-include=/usr/include/finclude/math-vector-fortran.h
REM seed -744412936 -1897330700 1327882076 597313132 849542890 -143678318 -452922986 1407526897 1101706884 -152494021 -1256392751 798751777 2026620504 -1247258981 -478311386 1548777104 -340748525 -1295244912 1173551827 -501802542 -1164137434 1738024939 -576911860 -953570088 -763716465 -1606832055 1304467314 1502026285 97276777 552466677 -560077597 -1388706326 277756401
REM
CELL 1.54180   50.00000   50.00000   50.00000   90.00000   90.00000   90.00000
LATT -1
SFAC C  
C      1  0.5412390000000  0.4558910000000  0.4528840000000 1.0
C      1  0.4647110000000  0.5583150000000  0.4418120000000 1.0
C      1  0.5077590000000  0.4711090000000  0.4128690000000 1.0
C      1  0.4931750000000  0.4410450000000  0.5642640000000 1.0
C      1  0.4324730000000  0.5545580000000  0.4834190000000 1.0
C      1  0.4257560000000  0.4782320000000  0.5429850000000 1.0
C      1  0.4348370000000  0.4602030000000  0.5206600000000 1.0
C      1  0.4816950000000  0.5469990000000  0.4232510000000 1.0
C      1  0.4887850000000  0.5019560000000  0.4490340000000 1.0
C      1  0.5532980000000  0.5594920000000  0.5125230000000 1.0
C      1  0.4978930000000  0.4678190000000  0.5142580000000 1.0
C      1  0.5235140000000  0.5402410000000  0.4457010000000 1.0
C      1  0.4705230000000  0.5641530000000  0.5165100000000 1.0
C      1  0.4977770000000  0.5613860000000  0.5219540000000 1.0
C      1  0.5613350000000  0.4976990000000  0.4716590000000 1.0
C      1  0.5394300000000  0.4849300000000  0.4572790000000 1.0
C      1  0.4485730000000  0.5580700000000  0.4619380000000 1.0
C      1  0.4606320000000  0.4964900000000  0.4538150000000 1.0
C      1  0.4431020000000  0.5668880000000  0.5106110000000 1.0
C      1  0.5419380000000  0.4477710000000  0.5257320000000 1.0
C      1  0.5273920000000  0.4754900000000  0.5288760000000 1.0
C      1  0.5459990000000  0.4433130000000  0.4766240000000 1.0
C      1  0.4381740000000  0.5054570000000  0.5402120000000 1.0
C      1  0.4814860000000  0.4393790000000  0.4777270000000 1.0
C      1  0.5764650000000  0.5155690000000  0.5386650000000 1.0
C      1  0.4366640000000  0.5059790000000  0.5053700000000 1.0
C      1  0.5495910000000  0.5271390000000  0.5503270000000 1.0
C      1  0.4742940000000  0.4608360000000  0.5700830000000 1.0
C      1  0.4916370000000  0.4671140000000  0.4838350000000 1.0
C      1  0.5002500000000  0.5680440000000  0.4257500000000 1.0
C      1  0.5213250000000  0.4847980000000  0.5582040000000 1.0
C      1  0.5795610000000  0.5095650000000  0.5075910000000 1.0
C      1  0.5930820000000  0.5040700000000  0.5550970000000 1.0
C      1  0.4753380000000  0.5232220000000  0.5626150000000 1.0
C      1  0.5138000000000  0.5554580000000  0.5475070000000 1.0
C      1  0.5490170000000  0.4327080000000  0.5014540000000 1.0
C      1  0.5062990000000  0.4987620000000  0.4096720000000 1.0
C      1  0.5423950000000  0.5529390000000  0.5398930000000 1.0
C      1  0.5246350000000  0.5657530000000  0.4341860000000 1.0
C      1  0.5605310000000  0.4882300000000  0.5002230000000 1.0
C      1  0.4284410000000  0.5260520000000  0.4814340000000 1.0
C      1  0.4742510000000  0.4279960000000  0.5052290000000 1.0
C      1  0.4926120000000  0.4332060000000  0.4515960000000 1.0
C      1  0.4354880000000  0.4770490000000  0.4968870000000 1.0
C      1  0.4616490000000  0.4812200000000  0.4807200000000 1.0
C      1  0.5268900000000  0.5134850000000  0.5624840000000 1.0
C      1  0.5299840000000  0.5377340000000  0.4742810000000 1.0
C      1  0.4662660000000  0.5041790000000  0.5005240000000 1.0
C      1  0.5182560000000  0.5184310000000  0.4951520000000 1.0
C      1  0.4555070000000  0.4379310000000  0.5255220000000 1.0
C      1  0.5021000000000  0.5394420000000  0.5045530000000 1.0
C      1  0.5114970000000  0.4548710000000  0.4400570000000 1.0
C      1  0.4365330000000  0.5140460000000  0.4552850000000 1.0
C      1  0.5086940000000  0.4822220000000  0.4604750000000 1.0
C      1  0.5243750000000  0.4265340000000  0.5206260000000 1.0
C      1  0.4806420000000  0.4914600000000  0.5222210000000 1.0
C      1  0.5736570000000  0.5232730000000  0.4826740000000 1.0
C      1  0.5556500000000  0.5476760000000  0.4861910000000 1.0
C      1  0.4658250000000  0.4382700000000  0.5532660000000 1.0
C      1  0.4973660000000  0.4368940000000  0.5202330000000 1.0
C      1  0.4485690000000  0.5321050000000  0.5613200000000 1.0
C      1  0.5341690000000  0.4969360000000  0.5093360000000 1.0
C      1  0.5035490000000  0.4679010000000  0.5728970000000 1.0
C      1  0.5048860000000  0.5331240000000  0.5626330000000 1.0
C      1  0.4669180000000  0.4983450000000  0.5467500000000 1.0
C      1  0.4998470000000  0.5225460000000  0.4305860000000 1.0
END
