TITL C-884139-6216-24 -779368.586447695 125000 -19889.7041715442 0 0 132 (C1) n - 1
REM
REM in /home/nfs/bkarasulu/CARBON/AIRSS/Generating-Clusters/ReaxFF-fromJPCA2015/Units_Real/with-SteepDescent/Only-C1/SD-CG/Try1-3A/FIRE-CG
REM
REM
REM
REM
REM
REM ./C.cell (11c1c37f851c82e70ff6c80c92926a4b)
REM
REM compiler GCC version 9.2.1 20190827 (Red Hat 9.2.1-1)
REM options -cpp -mtune=generic -march=x86-64 -g -O0 -fpre-include=/usr/include/finclude/math-vector-fortran.h
REM seed 357004963 -1803866447 -1308250833 -1868445865 650079247 -1821511683 -1261818148 -477025672 -1581830231 802447120 -695294587 1267039217 1153153711 1692252053 -12110965 1573714075 -1851533484 -1584838590 1741288353 1657729839 1006377030 -1674355182 -332472151 -1363355142 -671903779 -133484883 -943842487 -1126510269 -1681052180 2124279593 -731955720 -1417476447 -766786770
REM
CELL 1.54180   50.00000   50.00000   50.00000   90.00000   90.00000   90.00000
LATT -1
SFAC C  
C      1  0.4084670000000  0.5291730000000  0.5074530000000 1.0
C      1  0.4982870000000  0.4214680000000  0.5099670000000 1.0
C      1  0.5464070000000  0.4918910000000  0.5567040000000 1.0
C      1  0.4896080000000  0.5483630000000  0.5965210000000 1.0
C      1  0.4896770000000  0.5595020000000  0.5696870000000 1.0
C      1  0.5148190000000  0.5477270000000  0.5010210000000 1.0
C      1  0.5368330000000  0.6011270000000  0.5192530000000 1.0
C      1  0.5354290000000  0.4270950000000  0.5440160000000 1.0
C      1  0.4380670000000  0.4844310000000  0.5138460000000 1.0
C      1  0.4999150000000  0.4925610000000  0.4818600000000 1.0
C      1  0.5367160000000  0.5564440000000  0.5457110000000 1.0
C      1  0.5520400000000  0.5085620000000  0.4680640000000 1.0
C      1  0.5428140000000  0.4867010000000  0.4864350000000 1.0
C      1  0.5681730000000  0.5363310000000  0.5218130000000 1.0
C      1  0.4649860000000  0.5029820000000  0.4125390000000 1.0
C      1  0.5913760000000  0.4922800000000  0.5069390000000 1.0
C      1  0.4075160000000  0.4628020000000  0.5476980000000 1.0
C      1  0.5121970000000  0.5039710000000  0.4106830000000 1.0
C      1  0.5047410000000  0.4230890000000  0.4427940000000 1.0
C      1  0.5036510000000  0.4059480000000  0.4655860000000 1.0
C      1  0.5765610000000  0.5412980000000  0.4239600000000 1.0
C      1  0.5064870000000  0.5303460000000  0.4542450000000 1.0
C      1  0.5474070000000  0.5887580000000  0.4754930000000 1.0
C      1  0.5010510000000  0.6093650000000  0.5359660000000 1.0
C      1  0.4968160000000  0.4803430000000  0.5404820000000 1.0
C      1  0.5915850000000  0.4716260000000  0.4846960000000 1.0
C      1  0.5691020000000  0.4276100000000  0.5051060000000 1.0
C      1  0.4591480000000  0.5446920000000  0.4358170000000 1.0
C      1  0.4878080000000  0.5000890000000  0.6092520000000 1.0
C      1  0.4745450000000  0.4379190000000  0.5757900000000 1.0
C      1  0.4522960000000  0.4146890000000  0.5229940000000 1.0
C      1  0.4330740000000  0.5389290000000  0.4670890000000 1.0
C      1  0.4839850000000  0.4102400000000  0.4867190000000 1.0
C      1  0.5324620000000  0.4113050000000  0.4718350000000 1.0
C      1  0.4603190000000  0.5942900000000  0.5125950000000 1.0
C      1  0.4429490000000  0.5713930000000  0.5075920000000 1.0
C      1  0.5401700000000  0.5017440000000  0.5844630000000 1.0
C      1  0.4026040000000  0.4670740000000  0.4722900000000 1.0
C      1  0.4923510000000  0.4759570000000  0.5891200000000 1.0
C      1  0.5743930000000  0.5323350000000  0.5492480000000 1.0
C      1  0.4800260000000  0.5817900000000  0.5574240000000 1.0
C      1  0.4644980000000  0.4941050000000  0.5126420000000 1.0
C      1  0.5594860000000  0.5766810000000  0.4514410000000 1.0
C      1  0.4851240000000  0.4941560000000  0.5632810000000 1.0
C      1  0.4524090000000  0.5450670000000  0.5142870000000 1.0
C      1  0.4774160000000  0.5951120000000  0.4897870000000 1.0
C      1  0.4032060000000  0.5088310000000  0.5286880000000 1.0
C      1  0.5801550000000  0.4479750000000  0.4901520000000 1.0
C      1  0.5669370000000  0.4573840000000  0.4355100000000 1.0
C      1  0.4741180000000  0.5218040000000  0.5964760000000 1.0
C      1  0.4940910000000  0.4662670000000  0.4726950000000 1.0
C      1  0.4284370000000  0.4546870000000  0.4360400000000 1.0
C      1  0.4484220000000  0.4993700000000  0.4364490000000 1.0
C      1  0.5744610000000  0.5232740000000  0.4770230000000 1.0
C      1  0.5358880000000  0.5225330000000  0.4486370000000 1.0
C      1  0.5168200000000  0.4597100000000  0.5807720000000 1.0
C      1  0.5193530000000  0.5460640000000  0.6017160000000 1.0
C      1  0.5133850000000  0.5968550000000  0.5198600000000 1.0
C      1  0.5356830000000  0.4400260000000  0.4650430000000 1.0
C      1  0.3935480000000  0.4659800000000  0.5000520000000 1.0
C      1  0.4364580000000  0.4923590000000  0.5697490000000 1.0
C      1  0.4664320000000  0.4574070000000  0.5919390000000 1.0
C      1  0.5158860000000  0.4363100000000  0.5640820000000 1.0
C      1  0.5043580000000  0.6076740000000  0.4946220000000 1.0
C      1  0.4885700000000  0.4869250000000  0.4069530000000 1.0
C      1  0.4963180000000  0.4587300000000  0.4119220000000 1.0
C      1  0.4854090000000  0.4357590000000  0.4264820000000 1.0
C      1  0.4736820000000  0.5314470000000  0.4157750000000 1.0
C      1  0.5420160000000  0.5565960000000  0.5876060000000 1.0
C      1  0.5409160000000  0.5683880000000  0.4299980000000 1.0
C      1  0.5266550000000  0.4136570000000  0.5201420000000 1.0
C      1  0.5248840000000  0.4600420000000  0.4164950000000 1.0
C      1  0.5408920000000  0.4441200000000  0.4359210000000 1.0
C      1  0.5931400000000  0.5365280000000  0.4610700000000 1.0
C      1  0.4550330000000  0.4520410000000  0.4952370000000 1.0
C      1  0.4402690000000  0.4277700000000  0.5434170000000 1.0
C      1  0.5637900000000  0.4345340000000  0.5355820000000 1.0
C      1  0.5043180000000  0.5202750000000  0.5400590000000 1.0
C      1  0.4588110000000  0.4988750000000  0.4636920000000 1.0
C      1  0.5521120000000  0.5830560000000  0.5039210000000 1.0
C      1  0.4098910000000  0.4892350000000  0.5083190000000 1.0
C      1  0.5032750000000  0.4543830000000  0.4979090000000 1.0
C      1  0.4894510000000  0.4216220000000  0.5603050000000 1.0
C      1  0.4103490000000  0.4936290000000  0.4635980000000 1.0
C      1  0.4168880000000  0.4427590000000  0.4590550000000 1.0
C      1  0.5133430000000  0.5806930000000  0.4272860000000 1.0
C      1  0.5209530000000  0.4972310000000  0.5020960000000 1.0
C      1  0.5319030000000  0.4595100000000  0.4870980000000 1.0
C      1  0.4803120000000  0.5728680000000  0.4694710000000 1.0
C      1  0.4534860000000  0.4721000000000  0.4741940000000 1.0
C      1  0.5435380000000  0.5555890000000  0.5160030000000 1.0
C      1  0.4837400000000  0.4719080000000  0.5163920000000 1.0
C      1  0.4718760000000  0.4604710000000  0.4559440000000 1.0
C      1  0.5829050000000  0.5600560000000  0.4460080000000 1.0
C      1  0.4816970000000  0.5138080000000  0.4738670000000 1.0
C      1  0.5020360000000  0.5280490000000  0.4241650000000 1.0
C      1  0.5359680000000  0.4863460000000  0.4123260000000 1.0
C      1  0.4070420000000  0.4509190000000  0.5208410000000 1.0
C      1  0.4397310000000  0.4253590000000  0.4635560000000 1.0
C      1  0.5741750000000  0.5037440000000  0.5524660000000 1.0
C      1  0.5207320000000  0.6004950000000  0.4712800000000 1.0
C      1  0.4232700000000  0.4840550000000  0.4391160000000 1.0
C      1  0.5842860000000  0.4718040000000  0.4555010000000 1.0
C      1  0.5035250000000  0.5529330000000  0.4749610000000 1.0
C      1  0.4561010000000  0.4210930000000  0.4892040000000 1.0
C      1  0.4136230000000  0.4916250000000  0.5507930000000 1.0
C      1  0.5474090000000  0.5396520000000  0.4276970000000 1.0
C      1  0.4521010000000  0.5580170000000  0.4575050000000 1.0
C      1  0.4409880000000  0.4645730000000  0.5790130000000 1.0
C      1  0.5451130000000  0.4106250000000  0.4982890000000 1.0
C      1  0.4973740000000  0.5324010000000  0.5159500000000 1.0
C      1  0.5754350000000  0.4585010000000  0.5357690000000 1.0
C      1  0.5206480000000  0.4971630000000  0.5333100000000 1.0
C      1  0.5200510000000  0.5222530000000  0.5843200000000 1.0
C      1  0.5008110000000  0.5904170000000  0.4521080000000 1.0
C      1  0.4733530000000  0.6020220000000  0.5393430000000 1.0
C      1  0.4611070000000  0.5084400000000  0.5716670000000 1.0
C      1  0.5819070000000  0.5187490000000  0.5031070000000 1.0
C      1  0.4249250000000  0.5498450000000  0.5197830000000 1.0
C      1  0.4352970000000  0.4566660000000  0.5149500000000 1.0
C      1  0.5844910000000  0.4950040000000  0.4372110000000 1.0
C      1  0.5393640000000  0.4750160000000  0.5792620000000 1.0
C      1  0.5585380000000  0.5552170000000  0.5645530000000 1.0
C      1  0.5138890000000  0.5397260000000  0.5578200000000 1.0
C      1  0.5926590000000  0.5217510000000  0.4370070000000 1.0
C      1  0.4552450000000  0.4395140000000  0.4418330000000 1.0
C      1  0.4786640000000  0.4150880000000  0.5328660000000 1.0
C      1  0.5877920000000  0.4840650000000  0.5347910000000 1.0
C      1  0.5642760000000  0.4823940000000  0.4200050000000 1.0
C      1  0.4153410000000  0.5207050000000  0.4783670000000 1.0
C      1  0.4722720000000  0.5224600000000  0.5041660000000 1.0
C      1  0.4266060000000  0.4448400000000  0.5615690000000 1.0
END
