TITL C-884131-4643-144 143.876759018799 125000 -27413.2924714363 0 0 183 (C1) n - 1
REM
REM in /home/nfs/bkarasulu/CARBON/AIRSS/Generating-Clusters/ReaxFF-fromJPCA2015/Units_Real/with-SteepDescent/Only-C1/SD-CG/Try1-3A/FIRE-CG
REM
REM
REM
REM
REM
REM ./C.cell (11c1c37f851c82e70ff6c80c92926a4b)
REM
REM compiler GCC version 9.2.1 20190827 (Red Hat 9.2.1-1)
REM options -cpp -mtune=generic -march=x86-64 -g -O0 -fpre-include=/usr/include/finclude/math-vector-fortran.h
REM seed 1259302653 -992273728 1104389551 1495181690 1919573612 -1607852072 -1656104892 -1326755853 823044739 1562134325 -759679702 -155190418 -546837407 1918675122 590080496 1341816518 289079489 -887090421 1935797761 -1225357896 231287720 -471738509 -1501706083 1709481473 503204135 2013715368 1155931864 -703603004 1662777220 2143441412 577201842 -1683459166 -841140958
REM
CELL 1.54180   50.00000   50.00000   50.00000   90.00000   90.00000   90.00000
LATT -1
SFAC C  
C      1  0.4013360000000  0.4516410000000  0.5036170000000 1.0
C      1  0.4511430000000  0.6051270000000  0.5158170000000 1.0
C      1  0.4896060000000  0.3930250000000  0.5099680000000 1.0
C      1  0.5187390000000  0.5244650000000  0.5036980000000 1.0
C      1  0.5383230000000  0.4572160000000  0.4075540000000 1.0
C      1  0.4584480000000  0.4883990000000  0.5528060000000 1.0
C      1  0.4624560000000  0.5494720000000  0.4814940000000 1.0
C      1  0.5928530000000  0.4513940000000  0.4599640000000 1.0
C      1  0.5405780000000  0.4762010000000  0.5694740000000 1.0
C      1  0.5083960000000  0.4517800000000  0.4579260000000 1.0
C      1  0.5181170000000  0.4358410000000  0.4070510000000 1.0
C      1  0.5453030000000  0.5316660000000  0.5164460000000 1.0
C      1  0.4277110000000  0.4279960000000  0.5382120000000 1.0
C      1  0.5692300000000  0.5730960000000  0.4501360000000 1.0
C      1  0.5739260000000  0.5757420000000  0.4788240000000 1.0
C      1  0.5200340000000  0.5493760000000  0.4710420000000 1.0
C      1  0.5766370000000  0.4457870000000  0.4210980000000 1.0
C      1  0.5823460000000  0.4272100000000  0.5073160000000 1.0
C      1  0.5859030000000  0.5210690000000  0.4529460000000 1.0
C      1  0.5178830000000  0.4030870000000  0.5503090000000 1.0
C      1  0.5227350000000  0.5964890000000  0.4516830000000 1.0
C      1  0.5691900000000  0.4492280000000  0.5750240000000 1.0
C      1  0.5786120000000  0.5054250000000  0.4900790000000 1.0
C      1  0.4853430000000  0.4723220000000  0.4950590000000 1.0
C      1  0.5146350000000  0.4455720000000  0.5474780000000 1.0
C      1  0.4843100000000  0.4117470000000  0.4311970000000 1.0
C      1  0.5981910000000  0.4461660000000  0.4879260000000 1.0
C      1  0.4689690000000  0.4032070000000  0.5264380000000 1.0
C      1  0.5070220000000  0.4361920000000  0.5868530000000 1.0
C      1  0.6240740000000  0.5177260000000  0.5052010000000 1.0
C      1  0.5850980000000  0.5568040000000  0.4984670000000 1.0
C      1  0.4652670000000  0.5123520000000  0.5187630000000 1.0
C      1  0.5322120000000  0.5277300000000  0.5892400000000 1.0
C      1  0.5259110000000  0.4524610000000  0.5721640000000 1.0
C      1  0.4690680000000  0.4489290000000  0.5946370000000 1.0
C      1  0.4922970000000  0.4474620000000  0.3981320000000 1.0
C      1  0.4807180000000  0.5656090000000  0.4658890000000 1.0
C      1  0.6118210000000  0.5179850000000  0.5332490000000 1.0
C      1  0.4431410000000  0.4541670000000  0.4787620000000 1.0
C      1  0.4913720000000  0.6096340000000  0.4814350000000 1.0
C      1  0.5534510000000  0.4270060000000  0.4578070000000 1.0
C      1  0.4626760000000  0.4917740000000  0.3977400000000 1.0
C      1  0.5464470000000  0.5134050000000  0.4056830000000 1.0
C      1  0.4208650000000  0.4450480000000  0.4612330000000 1.0
C      1  0.4698510000000  0.4635030000000  0.5173000000000 1.0
C      1  0.4440940000000  0.4184870000000  0.5142550000000 1.0
C      1  0.4569700000000  0.5956440000000  0.5444120000000 1.0
C      1  0.4944030000000  0.5193980000000  0.4108190000000 1.0
C      1  0.4096220000000  0.5105610000000  0.4611790000000 1.0
C      1  0.5505640000000  0.4790910000000  0.4659370000000 1.0
C      1  0.5206480000000  0.3960010000000  0.4742610000000 1.0
C      1  0.4092620000000  0.4308650000000  0.4838000000000 1.0
C      1  0.4553200000000  0.5715810000000  0.5590390000000 1.0
C      1  0.4665060000000  0.4559570000000  0.4428180000000 1.0
C      1  0.5806390000000  0.5479090000000  0.4413620000000 1.0
C      1  0.3947930000000  0.4781970000000  0.4932530000000 1.0
C      1  0.5605970000000  0.5302390000000  0.4480430000000 1.0
C      1  0.4996250000000  0.5237990000000  0.4392960000000 1.0
C      1  0.5158280000000  0.3927540000000  0.5226960000000 1.0
C      1  0.4066520000000  0.5541660000000  0.4813260000000 1.0
C      1  0.4009470000000  0.4985550000000  0.5380050000000 1.0
C      1  0.5775360000000  0.4770700000000  0.4551940000000 1.0
C      1  0.5327390000000  0.5005270000000  0.6005340000000 1.0
C      1  0.5797740000000  0.4297350000000  0.4438300000000 1.0
C      1  0.4108080000000  0.5270020000000  0.4356890000000 1.0
C      1  0.4263830000000  0.4698320000000  0.5742630000000 1.0
C      1  0.4178480000000  0.4787720000000  0.4203920000000 1.0
C      1  0.4103970000000  0.4728310000000  0.5499680000000 1.0
C      1  0.5496760000000  0.5177600000000  0.5426640000000 1.0
C      1  0.5001890000000  0.5747020000000  0.4165080000000 1.0
C      1  0.5558110000000  0.5721820000000  0.5639550000000 1.0
C      1  0.5393870000000  0.5778920000000  0.5868820000000 1.0
C      1  0.4760010000000  0.5604080000000  0.4155860000000 1.0
C      1  0.4494960000000  0.4022380000000  0.4715660000000 1.0
C      1  0.4413350000000  0.4717840000000  0.4044820000000 1.0
C      1  0.4262300000000  0.5421700000000  0.5367340000000 1.0
C      1  0.5320270000000  0.5017970000000  0.4729820000000 1.0
C      1  0.4923850000000  0.3923310000000  0.4793050000000 1.0
C      1  0.4995670000000  0.5135630000000  0.5240820000000 1.0
C      1  0.4846000000000  0.5083850000000  0.6060300000000 1.0
C      1  0.5197330000000  0.6042310000000  0.4802600000000 1.0
C      1  0.4722320000000  0.4301530000000  0.4089570000000 1.0
C      1  0.4527310000000  0.5460630000000  0.4150340000000 1.0
C      1  0.4724090000000  0.3965150000000  0.4587360000000 1.0
C      1  0.5482420000000  0.5776000000000  0.4888850000000 1.0
C      1  0.4533010000000  0.4443030000000  0.5031880000000 1.0
C      1  0.4907960000000  0.5680140000000  0.5143620000000 1.0
C      1  0.5088920000000  0.5806280000000  0.5890400000000 1.0
C      1  0.5731520000000  0.5236840000000  0.5582460000000 1.0
C      1  0.5570030000000  0.4855770000000  0.5903160000000 1.0
C      1  0.5406560000000  0.5706180000000  0.5155530000000 1.0
C      1  0.5682810000000  0.4951250000000  0.4113950000000 1.0
C      1  0.5624980000000  0.4326300000000  0.5522890000000 1.0
C      1  0.5696880000000  0.5318570000000  0.4991410000000 1.0
C      1  0.4939640000000  0.5969460000000  0.5192980000000 1.0
C      1  0.4439210000000  0.4462340000000  0.5811310000000 1.0
C      1  0.4589010000000  0.4733910000000  0.4643460000000 1.0
C      1  0.4558160000000  0.5476300000000  0.5728690000000 1.0
C      1  0.5503080000000  0.5511910000000  0.5847120000000 1.0
C      1  0.4945520000000  0.5623730000000  0.6066440000000 1.0
C      1  0.5058240000000  0.4889970000000  0.6040830000000 1.0
C      1  0.4076830000000  0.5282380000000  0.4982380000000 1.0
C      1  0.4097670000000  0.4497130000000  0.5318400000000 1.0
C      1  0.4278750000000  0.5505250000000  0.4338670000000 1.0
C      1  0.6063600000000  0.4912070000000  0.5433660000000 1.0
C      1  0.5061240000000  0.5285140000000  0.5755050000000 1.0
C      1  0.5106430000000  0.4769180000000  0.4436910000000 1.0
C      1  0.4590490000000  0.5311970000000  0.4598900000000 1.0
C      1  0.5342400000000  0.4952450000000  0.5502810000000 1.0
C      1  0.5312370000000  0.4527360000000  0.4982270000000 1.0
C      1  0.5842010000000  0.5623890000000  0.5271640000000 1.0
C      1  0.4228400000000  0.5150510000000  0.5957760000000 1.0
C      1  0.4531090000000  0.4867460000000  0.5265210000000 1.0
C      1  0.5380370000000  0.5970550000000  0.5052200000000 1.0
C      1  0.4054420000000  0.5251740000000  0.5494820000000 1.0
C      1  0.4074480000000  0.4654820000000  0.4448090000000 1.0
C      1  0.4971110000000  0.4142820000000  0.5677140000000 1.0
C      1  0.4284900000000  0.5138630000000  0.4841190000000 1.0
C      1  0.4575140000000  0.5565140000000  0.5113140000000 1.0
C      1  0.5298490000000  0.5645060000000  0.4172610000000 1.0
C      1  0.5141790000000  0.4152370000000  0.4274480000000 1.0
C      1  0.4261780000000  0.5066050000000  0.4215750000000 1.0
C      1  0.4824050000000  0.5377380000000  0.5924420000000 1.0
C      1  0.4424690000000  0.5872630000000  0.4662760000000 1.0
C      1  0.5784670000000  0.5038280000000  0.5793730000000 1.0
C      1  0.4319230000000  0.5400520000000  0.5880020000000 1.0
C      1  0.4549280000000  0.5363190000000  0.5330310000000 1.0
C      1  0.5314550000000  0.4088260000000  0.4502570000000 1.0
C      1  0.6080260000000  0.4972350000000  0.4909950000000 1.0
C      1  0.5382360000000  0.5384240000000  0.4109590000000 1.0
C      1  0.4519150000000  0.4479120000000  0.4187800000000 1.0
C      1  0.5846610000000  0.4973440000000  0.4353560000000 1.0
C      1  0.4493910000000  0.5104140000000  0.4425540000000 1.0
C      1  0.5090330000000  0.4963280000000  0.3992880000000 1.0
C      1  0.3959130000000  0.5025370000000  0.5096030000000 1.0
C      1  0.4071640000000  0.5296910000000  0.5781030000000 1.0
C      1  0.5263640000000  0.4820470000000  0.4193610000000 1.0
C      1  0.5081990000000  0.5502010000000  0.4967890000000 1.0
C      1  0.4776370000000  0.4809750000000  0.5645430000000 1.0
C      1  0.4747310000000  0.5943660000000  0.4589260000000 1.0
C      1  0.4858820000000  0.6027120000000  0.5454790000000 1.0
C      1  0.4748770000000  0.4922090000000  0.4780750000000 1.0
C      1  0.5432700000000  0.5798150000000  0.4382870000000 1.0
C      1  0.4250290000000  0.5652330000000  0.4586150000000 1.0
C      1  0.4287110000000  0.4088960000000  0.4882210000000 1.0
C      1  0.4662440000000  0.4906010000000  0.5921020000000 1.0
C      1  0.4715410000000  0.4119790000000  0.5537830000000 1.0
C      1  0.4874970000000  0.4771720000000  0.3938700000000 1.0
C      1  0.5397210000000  0.5285050000000  0.4666140000000 1.0
C      1  0.5474950000000  0.4509200000000  0.4737300000000 1.0
C      1  0.4941430000000  0.4583120000000  0.6015670000000 1.0
C      1  0.3969970000000  0.4843760000000  0.4643330000000 1.0
C      1  0.5033640000000  0.5332980000000  0.5468420000000 1.0
C      1  0.4860760000000  0.4365530000000  0.4484070000000 1.0
C      1  0.4455360000000  0.4259630000000  0.5601320000000 1.0
C      1  0.4557410000000  0.5080440000000  0.4926380000000 1.0
C      1  0.4992750000000  0.5818090000000  0.5608020000000 1.0
C      1  0.6030570000000  0.4890150000000  0.5720910000000 1.0
C      1  0.4778990000000  0.6148190000000  0.5070930000000 1.0
C      1  0.5928380000000  0.5391680000000  0.5427460000000 1.0
C      1  0.5349520000000  0.4251090000000  0.5412880000000 1.0
C      1  0.4285660000000  0.5662630000000  0.5208000000000 1.0
C      1  0.4661170000000  0.5211450000000  0.4029560000000 1.0
C      1  0.5599050000000  0.5777020000000  0.5349050000000 1.0
C      1  0.6073210000000  0.4694850000000  0.5015120000000 1.0
C      1  0.5047640000000  0.4531380000000  0.4866140000000 1.0
C      1  0.4392930000000  0.5945990000000  0.4926660000000 1.0
C      1  0.4367870000000  0.4912760000000  0.5903100000000 1.0
C      1  0.5361440000000  0.3962950000000  0.5001040000000 1.0
C      1  0.5035320000000  0.5011320000000  0.4592200000000 1.0
C      1  0.5002310000000  0.5502810000000  0.4506540000000 1.0
C      1  0.4970840000000  0.5943640000000  0.4376500000000 1.0
C      1  0.5388930000000  0.4769670000000  0.5119400000000 1.0
C      1  0.5147720000000  0.4873810000000  0.5311920000000 1.0
C      1  0.5597070000000  0.4110280000000  0.5028100000000 1.0
C      1  0.4043350000000  0.5748830000000  0.5027920000000 1.0
C      1  0.5912410000000  0.4646650000000  0.5809790000000 1.0
C      1  0.5659180000000  0.4862840000000  0.5093360000000 1.0
C      1  0.5813560000000  0.4413740000000  0.5325190000000 1.0
C      1  0.4944080000000  0.4659310000000  0.5414750000000 1.0
C      1  0.5666110000000  0.4653240000000  0.4039130000000 1.0
C      1  0.5894420000000  0.4714510000000  0.5263360000000 1.0
C      1  0.4993320000000  0.5603480000000  0.5418840000000 1.0
END
