TITL C-884136-4169-179 35.6471286992175 125000 -25953.8400758309 0 0 173 (C1) n - 1
REM
REM in /home/nfs/bkarasulu/CARBON/AIRSS/Generating-Clusters/ReaxFF-fromJPCA2015/Units_Real/with-SteepDescent/Only-C1/SD-CG/Try1-3A/FIRE-CG
REM
REM
REM
REM
REM
REM ./C.cell (11c1c37f851c82e70ff6c80c92926a4b)
REM
REM compiler GCC version 9.2.1 20190827 (Red Hat 9.2.1-1)
REM options -cpp -mtune=generic -march=x86-64 -g -O0 -fpre-include=/usr/include/finclude/math-vector-fortran.h
REM seed -505327124 1896821834 -372096300 713408321 1905824292 -2143204728 -536499727 1217856375 -1711127259 -1427582973 -1257467121 1193973113 944616047 1027180092 1071354196 -853064526 -595990759 -1878072274 750133667 1494038077 -861122357 -405779748 181630052 525609530 -2045915642 -1965420410 -277799357 -736278262 -317886903 2004610996 1981745303 -2038657828 1113355909
REM
CELL 1.54180   50.00000   50.00000   50.00000   90.00000   90.00000   90.00000
LATT -1
SFAC C  
C      1  0.5119610000000  0.6018600000000  0.4697980000000 1.0
C      1  0.5642460000000  0.4935410000000  0.4642020000000 1.0
C      1  0.4299530000000  0.5148250000000  0.5853720000000 1.0
C      1  0.4497630000000  0.5913650000000  0.4650800000000 1.0
C      1  0.4281640000000  0.5418180000000  0.5757980000000 1.0
C      1  0.6128030000000  0.5360500000000  0.4830570000000 1.0
C      1  0.4272290000000  0.4415740000000  0.5620580000000 1.0
C      1  0.5113550000000  0.5498240000000  0.4029610000000 1.0
C      1  0.4800790000000  0.5823980000000  0.4269910000000 1.0
C      1  0.4552430000000  0.4010530000000  0.4768430000000 1.0
C      1  0.5328510000000  0.4604470000000  0.6142740000000 1.0
C      1  0.5849070000000  0.5666030000000  0.5209480000000 1.0
C      1  0.4586320000000  0.4640090000000  0.6003540000000 1.0
C      1  0.5633890000000  0.4086640000000  0.5946640000000 1.0
C      1  0.4885030000000  0.5405640000000  0.3905730000000 1.0
C      1  0.4905990000000  0.3933000000000  0.5463730000000 1.0
C      1  0.5262450000000  0.5878710000000  0.5604540000000 1.0
C      1  0.5868600000000  0.4636470000000  0.5765870000000 1.0
C      1  0.4628780000000  0.4903990000000  0.6133120000000 1.0
C      1  0.4127580000000  0.5528840000000  0.4424510000000 1.0
C      1  0.5023410000000  0.5151640000000  0.5880630000000 1.0
C      1  0.5085840000000  0.4653850000000  0.5449330000000 1.0
C      1  0.4254400000000  0.4818880000000  0.5422430000000 1.0
C      1  0.4347200000000  0.4076510000000  0.4917590000000 1.0
C      1  0.3979840000000  0.4556640000000  0.4927090000000 1.0
C      1  0.5174620000000  0.4474500000000  0.3984430000000 1.0
C      1  0.4237290000000  0.5034490000000  0.5185350000000 1.0
C      1  0.4571970000000  0.5121160000000  0.4759800000000 1.0
C      1  0.5645900000000  0.4489130000000  0.4400340000000 1.0
C      1  0.5062220000000  0.5104320000000  0.4328480000000 1.0
C      1  0.4508470000000  0.5164930000000  0.6078530000000 1.0
C      1  0.4350780000000  0.4623500000000  0.5814900000000 1.0
C      1  0.4969260000000  0.5268120000000  0.5604180000000 1.0
C      1  0.4964320000000  0.4902610000000  0.3914620000000 1.0
C      1  0.5801860000000  0.4432720000000  0.4668400000000 1.0
C      1  0.5760370000000  0.4835120000000  0.5925520000000 1.0
C      1  0.5346920000000  0.4105090000000  0.5511700000000 1.0
C      1  0.4913330000000  0.4807300000000  0.4620740000000 1.0
C      1  0.5260830000000  0.4923110000000  0.3924360000000 1.0
C      1  0.6012900000000  0.5465710000000  0.5066290000000 1.0
C      1  0.4666690000000  0.4310480000000  0.4355970000000 1.0
C      1  0.4427300000000  0.5515250000000  0.4382840000000 1.0
C      1  0.4616640000000  0.5917320000000  0.5492390000000 1.0
C      1  0.4694400000000  0.4651270000000  0.4694160000000 1.0
C      1  0.5336130000000  0.4858560000000  0.4707400000000 1.0
C      1  0.4426090000000  0.4553040000000  0.4049680000000 1.0
C      1  0.5405830000000  0.3987820000000  0.5260490000000 1.0
C      1  0.4538420000000  0.5797400000000  0.4382370000000 1.0
C      1  0.5738410000000  0.5835220000000  0.5004320000000 1.0
C      1  0.3622780000000  0.4861360000000  0.5096670000000 1.0
C      1  0.6153910000000  0.4744380000000  0.5343890000000 1.0
C      1  0.6004110000000  0.5092340000000  0.5532740000000 1.0
C      1  0.5503760000000  0.5680030000000  0.5611230000000 1.0
C      1  0.5047760000000  0.5580160000000  0.4588790000000 1.0
C      1  0.5138170000000  0.3848010000000  0.5240820000000 1.0
C      1  0.4616310000000  0.5199370000000  0.5200800000000 1.0
C      1  0.4371270000000  0.4956990000000  0.4944480000000 1.0
C      1  0.4256100000000  0.5545020000000  0.5121340000000 1.0
C      1  0.4385260000000  0.4250310000000  0.4398130000000 1.0
C      1  0.5923640000000  0.5016790000000  0.5097070000000 1.0
C      1  0.4337820000000  0.4093200000000  0.4631190000000 1.0
C      1  0.4950520000000  0.5779090000000  0.5269650000000 1.0
C      1  0.5308270000000  0.5472930000000  0.4527130000000 1.0
C      1  0.4447210000000  0.4230050000000  0.5414940000000 1.0
C      1  0.4904480000000  0.3934800000000  0.4746190000000 1.0
C      1  0.5484160000000  0.4618480000000  0.5505080000000 1.0
C      1  0.6033070000000  0.4808840000000  0.5613340000000 1.0
C      1  0.5087810000000  0.4295130000000  0.4182660000000 1.0
C      1  0.4248940000000  0.5877500000000  0.4812200000000 1.0
C      1  0.5037470000000  0.6131060000000  0.4944990000000 1.0
C      1  0.5759060000000  0.5759380000000  0.4727140000000 1.0
C      1  0.4778370000000  0.5409800000000  0.5083280000000 1.0
C      1  0.5913320000000  0.4876860000000  0.4711850000000 1.0
C      1  0.4100740000000  0.5254910000000  0.4308920000000 1.0
C      1  0.4729600000000  0.5828030000000  0.5726940000000 1.0
C      1  0.5127070000000  0.5083810000000  0.4865840000000 1.0
C      1  0.5284520000000  0.5597310000000  0.4970120000000 1.0
C      1  0.4985440000000  0.4861020000000  0.5300120000000 1.0
C      1  0.4855710000000  0.5015110000000  0.4793210000000 1.0
C      1  0.4784690000000  0.5130460000000  0.3916380000000 1.0
C      1  0.4760160000000  0.4398780000000  0.4600890000000 1.0
C      1  0.5816980000000  0.5581220000000  0.4530290000000 1.0
C      1  0.5416610000000  0.5126310000000  0.4057370000000 1.0
C      1  0.5545180000000  0.5697270000000  0.4536280000000 1.0
C      1  0.4916630000000  0.4615210000000  0.3975400000000 1.0
C      1  0.5508710000000  0.4972640000000  0.5840680000000 1.0
C      1  0.4704540000000  0.5817610000000  0.4828080000000 1.0
C      1  0.3785630000000  0.4796010000000  0.4906340000000 1.0
C      1  0.5161180000000  0.4861170000000  0.4465990000000 1.0
C      1  0.4732750000000  0.5432210000000  0.5579270000000 1.0
C      1  0.4284010000000  0.4219830000000  0.5154210000000 1.0
C      1  0.4251190000000  0.5457160000000  0.4842480000000 1.0
C      1  0.4887140000000  0.5661070000000  0.4043590000000 1.0
C      1  0.4807640000000  0.5964280000000  0.5072080000000 1.0
C      1  0.5704250000000  0.5116830000000  0.4424300000000 1.0
C      1  0.5795150000000  0.5302300000000  0.5581160000000 1.0
C      1  0.5374460000000  0.4412190000000  0.4464100000000 1.0
C      1  0.5231420000000  0.6045770000000  0.5383540000000 1.0
C      1  0.5523730000000  0.4829130000000  0.6102750000000 1.0
C      1  0.5333110000000  0.4127830000000  0.4813100000000 1.0
C      1  0.5274500000000  0.6143290000000  0.5122490000000 1.0
C      1  0.4571830000000  0.5548800000000  0.5815740000000 1.0
C      1  0.6079320000000  0.5140680000000  0.4660690000000 1.0
C      1  0.4375900000000  0.4850160000000  0.4339680000000 1.0
C      1  0.5924660000000  0.5312750000000  0.4479290000000 1.0
C      1  0.5427690000000  0.5020890000000  0.5193320000000 1.0
C      1  0.4140530000000  0.4694130000000  0.4445780000000 1.0
C      1  0.5258040000000  0.5330510000000  0.4217610000000 1.0
C      1  0.5713890000000  0.4283850000000  0.4883730000000 1.0
C      1  0.4345980000000  0.5292080000000  0.4156990000000 1.0
C      1  0.5793920000000  0.5256170000000  0.5043780000000 1.0
C      1  0.4552370000000  0.4716800000000  0.5361260000000 1.0
C      1  0.5294830000000  0.4553210000000  0.4715130000000 1.0
C      1  0.5729580000000  0.5567610000000  0.5460070000000 1.0
C      1  0.5142180000000  0.5581170000000  0.5917070000000 1.0
C      1  0.5143590000000  0.4355650000000  0.4865260000000 1.0
C      1  0.3997850000000  0.5002060000000  0.4441140000000 1.0
C      1  0.4499680000000  0.5108150000000  0.3989470000000 1.0
C      1  0.5546890000000  0.4790410000000  0.5292220000000 1.0
C      1  0.5221290000000  0.4150050000000  0.4382820000000 1.0
C      1  0.6150380000000  0.5033170000000  0.5283720000000 1.0
C      1  0.4716860000000  0.4928250000000  0.5288160000000 1.0
C      1  0.5578380000000  0.5253980000000  0.5768690000000 1.0
C      1  0.4967420000000  0.5381980000000  0.6049110000000 1.0
C      1  0.5151410000000  0.5065820000000  0.5196050000000 1.0
C      1  0.4866290000000  0.4642210000000  0.5906940000000 1.0
C      1  0.5639940000000  0.4978280000000  0.4168690000000 1.0
C      1  0.4312140000000  0.5834120000000  0.5099750000000 1.0
C      1  0.4673700000000  0.5399240000000  0.6058990000000 1.0
C      1  0.4930800000000  0.4417280000000  0.5457650000000 1.0
C      1  0.5181020000000  0.3971650000000  0.4614040000000 1.0
C      1  0.3833340000000  0.4998500000000  0.4653950000000 1.0
C      1  0.4700640000000  0.4455580000000  0.4101450000000 1.0
C      1  0.4343450000000  0.5296750000000  0.5257170000000 1.0
C      1  0.4885080000000  0.4248240000000  0.4788430000000 1.0
C      1  0.5979910000000  0.4604520000000  0.4827540000000 1.0
C      1  0.4073980000000  0.4410210000000  0.5165760000000 1.0
C      1  0.5343990000000  0.5824500000000  0.4794860000000 1.0
C      1  0.4184480000000  0.4589780000000  0.4731830000000 1.0
C      1  0.5413440000000  0.5497980000000  0.5804790000000 1.0
C      1  0.5553750000000  0.4088490000000  0.5010580000000 1.0
C      1  0.5061600000000  0.4168770000000  0.5543320000000 1.0
C      1  0.4384220000000  0.4843290000000  0.4048420000000 1.0
C      1  0.5154250000000  0.4562800000000  0.5904450000000 1.0
C      1  0.5013400000000  0.5849120000000  0.4481420000000 1.0
C      1  0.5577950000000  0.4204370000000  0.5719500000000 1.0
C      1  0.4097880000000  0.5651550000000  0.4689230000000 1.0
C      1  0.4523720000000  0.5977580000000  0.5244350000000 1.0
C      1  0.5268260000000  0.4697200000000  0.5663000000000 1.0
C      1  0.4756080000000  0.5572710000000  0.5318040000000 1.0
C      1  0.4630880000000  0.3975440000000  0.5458920000000 1.0
C      1  0.4797430000000  0.5108300000000  0.4372490000000 1.0
C      1  0.5155810000000  0.5577710000000  0.5224700000000 1.0
C      1  0.5476910000000  0.5960350000000  0.4996250000000 1.0
C      1  0.5625380000000  0.4678150000000  0.4175940000000 1.0
C      1  0.4434650000000  0.4696160000000  0.4840800000000 1.0
C      1  0.4541370000000  0.5059380000000  0.4456850000000 1.0
C      1  0.5126900000000  0.5327260000000  0.5367730000000 1.0
C      1  0.5026280000000  0.3871050000000  0.4997930000000 1.0
C      1  0.4511390000000  0.5404230000000  0.4693300000000 1.0
C      1  0.5023260000000  0.5799520000000  0.5769800000000 1.0
C      1  0.6009870000000  0.4596160000000  0.5128890000000 1.0
C      1  0.5689810000000  0.4473460000000  0.5631290000000 1.0
C      1  0.4108940000000  0.4541480000000  0.5427660000000 1.0
C      1  0.4259790000000  0.4881660000000  0.5718320000000 1.0
C      1  0.4657130000000  0.4458760000000  0.5396560000000 1.0
C      1  0.5781430000000  0.4775450000000  0.5140550000000 1.0
C      1  0.5403250000000  0.4672300000000  0.3987000000000 1.0
C      1  0.4900830000000  0.4918230000000  0.6009930000000 1.0
C      1  0.5518570000000  0.5214440000000  0.5018220000000 1.0
C      1  0.5311190000000  0.5333500000000  0.4838870000000 1.0
C      1  0.4246310000000  0.4467550000000  0.4261820000000 1.0
C      1  0.4782780000000  0.5533070000000  0.4797880000000 1.0
END
