TITL C-884135-4325-452 5.79321976429702 125000 -22146.1122337132 0 0 147 (C1) n - 1
REM
REM in /home/nfs/bkarasulu/CARBON/AIRSS/Generating-Clusters/ReaxFF-fromJPCA2015/Units_Real/with-SteepDescent/Only-C1/SD-CG/Try1-3A/FIRE-CG
REM
REM
REM
REM
REM
REM ./C.cell (11c1c37f851c82e70ff6c80c92926a4b)
REM
REM compiler GCC version 9.2.1 20190827 (Red Hat 9.2.1-1)
REM options -cpp -mtune=generic -march=x86-64 -g -O0 -fpre-include=/usr/include/finclude/math-vector-fortran.h
REM seed 1158888350 -398235814 -1487658326 615748272 -727654372 1812048710 835063437 1542811368 1576286367 -1993546603 2036279246 -142817136 -1533483570 492190957 35808190 -908653481 -980711290 964305870 1869129961 2010997662 -2143424047 -419943329 329083628 -122717191 1028467174 16286147 1522031064 95734102 -1728099960 51460478 -449021490 -536980415 275192685
REM
CELL 1.54180   50.00000   50.00000   50.00000   90.00000   90.00000   90.00000
LATT -1
SFAC C  
C      1  0.4097270000000  0.5438170000000  0.5053270000000 1.0
C      1  0.4694340000000  0.5137440000000  0.3990230000000 1.0
C      1  0.4366600000000  0.5387720000000  0.4382970000000 1.0
C      1  0.4231580000000  0.4512270000000  0.4719410000000 1.0
C      1  0.5150130000000  0.4234370000000  0.4490790000000 1.0
C      1  0.5874340000000  0.4661890000000  0.4640680000000 1.0
C      1  0.4515220000000  0.4777580000000  0.5871070000000 1.0
C      1  0.5393670000000  0.5872900000000  0.5124520000000 1.0
C      1  0.5627560000000  0.5560630000000  0.5440340000000 1.0
C      1  0.5248660000000  0.5238590000000  0.5121650000000 1.0
C      1  0.4321340000000  0.4942220000000  0.5762270000000 1.0
C      1  0.4983720000000  0.4609250000000  0.6056770000000 1.0
C      1  0.5327990000000  0.5567810000000  0.5852380000000 1.0
C      1  0.4303490000000  0.4246110000000  0.5397590000000 1.0
C      1  0.5247390000000  0.5497570000000  0.4545460000000 1.0
C      1  0.5709320000000  0.4904530000000  0.4695610000000 1.0
C      1  0.5238080000000  0.5739870000000  0.5645160000000 1.0
C      1  0.5588660000000  0.5455170000000  0.5743410000000 1.0
C      1  0.6026600000000  0.5039880000000  0.5005780000000 1.0
C      1  0.4811750000000  0.4939530000000  0.5126470000000 1.0
C      1  0.4774610000000  0.4015190000000  0.5144410000000 1.0
C      1  0.4640040000000  0.5300000000000  0.5905020000000 1.0
C      1  0.4023190000000  0.4981980000000  0.4773420000000 1.0
C      1  0.4121800000000  0.5278340000000  0.5302650000000 1.0
C      1  0.4917200000000  0.4701370000000  0.4734260000000 1.0
C      1  0.4761390000000  0.4917510000000  0.5541300000000 1.0
C      1  0.5076190000000  0.4385790000000  0.4967280000000 1.0
C      1  0.4267220000000  0.4245410000000  0.4824970000000 1.0
C      1  0.5636270000000  0.5396460000000  0.4248360000000 1.0
C      1  0.4652360000000  0.4568640000000  0.5262570000000 1.0
C      1  0.5680180000000  0.5191370000000  0.5835190000000 1.0
C      1  0.5007630000000  0.5717960000000  0.5203260000000 1.0
C      1  0.4982290000000  0.4134000000000  0.5509150000000 1.0
C      1  0.4237860000000  0.4520320000000  0.5507330000000 1.0
C      1  0.5385290000000  0.5421640000000  0.4070710000000 1.0
C      1  0.5358550000000  0.4381690000000  0.5665020000000 1.0
C      1  0.4590860000000  0.5293510000000  0.5295000000000 1.0
C      1  0.4361640000000  0.4709520000000  0.4926970000000 1.0
C      1  0.5203200000000  0.5259050000000  0.3926480000000 1.0
C      1  0.5925440000000  0.5164640000000  0.5260060000000 1.0
C      1  0.5278110000000  0.4203840000000  0.5125430000000 1.0
C      1  0.5434020000000  0.4731430000000  0.5321280000000 1.0
C      1  0.5000530000000  0.5432780000000  0.4780480000000 1.0
C      1  0.4114470000000  0.4983800000000  0.5287930000000 1.0
C      1  0.4358560000000  0.5605580000000  0.5447540000000 1.0
C      1  0.4928430000000  0.5153180000000  0.5575990000000 1.0
C      1  0.5779420000000  0.5565980000000  0.4980650000000 1.0
C      1  0.5796870000000  0.5437510000000  0.5243600000000 1.0
C      1  0.4327890000000  0.5626510000000  0.4603540000000 1.0
C      1  0.4203130000000  0.5135800000000  0.4324930000000 1.0
C      1  0.4251040000000  0.5648150000000  0.4889170000000 1.0
C      1  0.5387990000000  0.4743290000000  0.4114600000000 1.0
C      1  0.4794980000000  0.5391020000000  0.5467550000000 1.0
C      1  0.4115940000000  0.4870160000000  0.5021360000000 1.0
C      1  0.4338410000000  0.4976990000000  0.4143660000000 1.0
C      1  0.5438960000000  0.5196850000000  0.5714090000000 1.0
C      1  0.4956490000000  0.4964080000000  0.4295020000000 1.0
C      1  0.5673180000000  0.4717200000000  0.5732380000000 1.0
C      1  0.5718570000000  0.4336550000000  0.5013300000000 1.0
C      1  0.4194370000000  0.4799570000000  0.5520230000000 1.0
C      1  0.4750110000000  0.4033290000000  0.4847230000000 1.0
C      1  0.4143890000000  0.4903190000000  0.4510280000000 1.0
C      1  0.4239200000000  0.5386610000000  0.5563120000000 1.0
C      1  0.5485660000000  0.4216540000000  0.4894990000000 1.0
C      1  0.4632010000000  0.5938160000000  0.4841760000000 1.0
C      1  0.4419970000000  0.4543060000000  0.5125680000000 1.0
C      1  0.4540710000000  0.5820840000000  0.4582750000000 1.0
C      1  0.4260820000000  0.4316910000000  0.5111000000000 1.0
C      1  0.5889780000000  0.4955720000000  0.5453260000000 1.0
C      1  0.5284050000000  0.5777600000000  0.4532860000000 1.0
C      1  0.5424680000000  0.5750390000000  0.5396820000000 1.0
C      1  0.4842960000000  0.4749710000000  0.4461840000000 1.0
C      1  0.5219700000000  0.4664480000000  0.4823190000000 1.0
C      1  0.4581140000000  0.4555770000000  0.4388330000000 1.0
C      1  0.5597040000000  0.4864580000000  0.4278440000000 1.0
C      1  0.5846600000000  0.5421810000000  0.4730310000000 1.0
C      1  0.5215190000000  0.4875210000000  0.5412110000000 1.0
C      1  0.5936200000000  0.4506760000000  0.4878450000000 1.0
C      1  0.4713270000000  0.5064370000000  0.4676320000000 1.0
C      1  0.5017610000000  0.4365090000000  0.5931020000000 1.0
C      1  0.5711190000000  0.4684560000000  0.5431950000000 1.0
C      1  0.5588060000000  0.5776330000000  0.4920790000000 1.0
C      1  0.4706560000000  0.4627940000000  0.5955260000000 1.0
C      1  0.5907960000000  0.5141620000000  0.4760150000000 1.0
C      1  0.4948950000000  0.4549480000000  0.4078840000000 1.0
C      1  0.4499180000000  0.5797440000000  0.5321070000000 1.0
C      1  0.5618260000000  0.5147610000000  0.4383870000000 1.0
C      1  0.5690960000000  0.4395190000000  0.5296830000000 1.0
C      1  0.4547230000000  0.5375800000000  0.5023540000000 1.0
C      1  0.5096460000000  0.5069640000000  0.6008690000000 1.0
C      1  0.5110770000000  0.5486160000000  0.5064070000000 1.0
C      1  0.5052350000000  0.4033880000000  0.5249710000000 1.0
C      1  0.5445190000000  0.4308980000000  0.5395320000000 1.0
C      1  0.6064600000000  0.4740030000000  0.5004390000000 1.0
C      1  0.4983460000000  0.5141030000000  0.4702280000000 1.0
C      1  0.4788050000000  0.5762860000000  0.4433800000000 1.0
C      1  0.5120510000000  0.4355540000000  0.4224200000000 1.0
C      1  0.5111420000000  0.5951620000000  0.5063280000000 1.0
C      1  0.4744750000000  0.4619820000000  0.5542910000000 1.0
C      1  0.5727280000000  0.4616530000000  0.4405620000000 1.0
C      1  0.4790740000000  0.5512390000000  0.4271740000000 1.0
C      1  0.4949530000000  0.5715530000000  0.5692180000000 1.0
C      1  0.5403390000000  0.4760510000000  0.5047300000000 1.0
C      1  0.5709030000000  0.5548010000000  0.4496740000000 1.0
C      1  0.5569630000000  0.4375620000000  0.4389170000000 1.0
C      1  0.4875420000000  0.5509770000000  0.5891210000000 1.0
C      1  0.5554960000000  0.5767360000000  0.4628850000000 1.0
C      1  0.5087720000000  0.4993330000000  0.5179000000000 1.0
C      1  0.4921910000000  0.4237500000000  0.4694810000000 1.0
C      1  0.4389280000000  0.5219560000000  0.4846860000000 1.0
C      1  0.5427160000000  0.5262750000000  0.4623460000000 1.0
C      1  0.4610570000000  0.5007580000000  0.5317400000000 1.0
C      1  0.4924820000000  0.5978560000000  0.4834470000000 1.0
C      1  0.5586610000000  0.4954900000000  0.4958170000000 1.0
C      1  0.4578330000000  0.5360240000000  0.4160030000000 1.0
C      1  0.4512200000000  0.4128620000000  0.4707580000000 1.0
C      1  0.4977480000000  0.5092330000000  0.3897550000000 1.0
C      1  0.5390720000000  0.4458840000000  0.4171900000000 1.0
C      1  0.4669090000000  0.4607190000000  0.4102140000000 1.0
C      1  0.4797360000000  0.5701210000000  0.5429910000000 1.0
C      1  0.5415690000000  0.4238500000000  0.4608550000000 1.0
C      1  0.4910080000000  0.4469690000000  0.5191670000000 1.0
C      1  0.4543210000000  0.4100740000000  0.5315180000000 1.0
C      1  0.5406010000000  0.4642140000000  0.5819390000000 1.0
C      1  0.5097790000000  0.4819400000000  0.4054270000000 1.0
C      1  0.5128370000000  0.5391950000000  0.5966080000000 1.0
C      1  0.4688740000000  0.4841250000000  0.4873320000000 1.0
C      1  0.4824870000000  0.5114300000000  0.5999650000000 1.0
C      1  0.5389090000000  0.4808740000000  0.4627960000000 1.0
C      1  0.4666470000000  0.4304020000000  0.4539590000000 1.0
C      1  0.5208050000000  0.5082400000000  0.5606990000000 1.0
C      1  0.4711180000000  0.5482770000000  0.4816290000000 1.0
C      1  0.5464490000000  0.5209800000000  0.4927730000000 1.0
C      1  0.5188270000000  0.5439030000000  0.4283100000000 1.0
C      1  0.5014450000000  0.5885960000000  0.4571790000000 1.0
C      1  0.4094900000000  0.5263300000000  0.4821880000000 1.0
C      1  0.4555950000000  0.4875250000000  0.4001670000000 1.0
C      1  0.4554930000000  0.5286290000000  0.4641220000000 1.0
C      1  0.4956720000000  0.5266380000000  0.4287910000000 1.0
C      1  0.4389920000000  0.5224980000000  0.5765200000000 1.0
C      1  0.4443900000000  0.5830890000000  0.5034830000000 1.0
C      1  0.5149490000000  0.4185790000000  0.5759760000000 1.0
C      1  0.4966680000000  0.4430380000000  0.5477870000000 1.0
C      1  0.5208190000000  0.4796330000000  0.5978410000000 1.0
C      1  0.5230230000000  0.5039850000000  0.4600980000000 1.0
C      1  0.5825550000000  0.4967970000000  0.5733000000000 1.0
C      1  0.4284750000000  0.4649750000000  0.4476950000000 1.0
END
