TITL C-884134-5972-63 13.9633268703182 125000 -16067.7346195027 0 0 109 (C1) n - 1
REM
REM in /home/nfs/bkarasulu/CARBON/AIRSS/Generating-Clusters/ReaxFF-fromJPCA2015/Units_Real/with-SteepDescent/Only-C1/SD-CG/Try1-3A/FIRE-CG
REM
REM
REM
REM
REM
REM ./C.cell (11c1c37f851c82e70ff6c80c92926a4b)
REM
REM compiler GCC version 9.2.1 20190827 (Red Hat 9.2.1-1)
REM options -cpp -mtune=generic -march=x86-64 -g -O0 -fpre-include=/usr/include/finclude/math-vector-fortran.h
REM seed 1547562493 -1417671864 -1789123410 -344654894 -150484240 -2070617481 -1445343501 -542954289 2106517173 -1376118059 1333927605 -1922702453 -2083908585 745489965 1547887431 1803220533 1055855684 -1758127685 417132835 467600649 -801128967 -1500484511 1840206688 2125009376 275401823 1117324930 -1007626481 -1286724830 -610257639 -2002744523 1772582052 1467623000 200971939
REM
CELL 1.54180   50.00000   50.00000   50.00000   90.00000   90.00000   90.00000
LATT -1
SFAC C  
C      1  0.4016310000000  0.5170260000000  0.4973400000000 1.0
C      1  0.4509950000000  0.5698290000000  0.5198850000000 1.0
C      1  0.4423730000000  0.5547670000000  0.4593980000000 1.0
C      1  0.5461320000000  0.5205090000000  0.5022730000000 1.0
C      1  0.5204240000000  0.5166050000000  0.4896090000000 1.0
C      1  0.5214760000000  0.4998640000000  0.4072540000000 1.0
C      1  0.5478140000000  0.4454200000000  0.4503180000000 1.0
C      1  0.4323100000000  0.4807870000000  0.5569390000000 1.0
C      1  0.4647900000000  0.5778570000000  0.5434460000000 1.0
C      1  0.5446190000000  0.5347620000000  0.5261390000000 1.0
C      1  0.4973500000000  0.4757030000000  0.5017210000000 1.0
C      1  0.5441930000000  0.5679950000000  0.4615210000000 1.0
C      1  0.4156080000000  0.4570580000000  0.4912510000000 1.0
C      1  0.5593790000000  0.4455140000000  0.5648150000000 1.0
C      1  0.4940400000000  0.5089230000000  0.5088630000000 1.0
C      1  0.4806180000000  0.4109340000000  0.4737350000000 1.0
C      1  0.5046140000000  0.5589200000000  0.5757890000000 1.0
C      1  0.5434830000000  0.4845730000000  0.4826250000000 1.0
C      1  0.5188470000000  0.4397070000000  0.4431640000000 1.0
C      1  0.4491540000000  0.4207170000000  0.5071280000000 1.0
C      1  0.4660570000000  0.4989940000000  0.4216730000000 1.0
C      1  0.4759880000000  0.5309860000000  0.4970140000000 1.0
C      1  0.4708150000000  0.4788810000000  0.5423200000000 1.0
C      1  0.4912030000000  0.5676750000000  0.5056640000000 1.0
C      1  0.5226210000000  0.5139740000000  0.5457480000000 1.0
C      1  0.4596240000000  0.4896050000000  0.5670260000000 1.0
C      1  0.5479250000000  0.5647500000000  0.5167930000000 1.0
C      1  0.5046040000000  0.5327990000000  0.5891060000000 1.0
C      1  0.5294740000000  0.5324640000000  0.4446660000000 1.0
C      1  0.4895310000000  0.5426200000000  0.4267400000000 1.0
C      1  0.4684460000000  0.4534600000000  0.4382260000000 1.0
C      1  0.4786550000000  0.4873880000000  0.5908000000000 1.0
C      1  0.4975490000000  0.4800260000000  0.4597840000000 1.0
C      1  0.4495570000000  0.4302670000000  0.5330330000000 1.0
C      1  0.4919100000000  0.4905070000000  0.4327610000000 1.0
C      1  0.4506360000000  0.4870680000000  0.5201190000000 1.0
C      1  0.5354090000000  0.4874780000000  0.5423590000000 1.0
C      1  0.5774700000000  0.5286140000000  0.4644860000000 1.0
C      1  0.5717990000000  0.4493410000000  0.5170090000000 1.0
C      1  0.5654890000000  0.5323050000000  0.5456260000000 1.0
C      1  0.5299750000000  0.5181560000000  0.5776640000000 1.0
C      1  0.4107320000000  0.5100540000000  0.5193280000000 1.0
C      1  0.5342430000000  0.4354050000000  0.5516000000000 1.0
C      1  0.5420360000000  0.4846390000000  0.4178750000000 1.0
C      1  0.4480280000000  0.5403490000000  0.5288340000000 1.0
C      1  0.5600720000000  0.4434380000000  0.4769460000000 1.0
C      1  0.4726760000000  0.5357040000000  0.5443460000000 1.0
C      1  0.5033860000000  0.4433510000000  0.4669420000000 1.0
C      1  0.4843220000000  0.5138770000000  0.5890250000000 1.0
C      1  0.4736750000000  0.4634670000000  0.4909710000000 1.0
C      1  0.4309610000000  0.5047760000000  0.5374050000000 1.0
C      1  0.4666270000000  0.5695180000000  0.4648110000000 1.0
C      1  0.5150650000000  0.5754230000000  0.4572670000000 1.0
C      1  0.5733500000000  0.5271790000000  0.4931610000000 1.0
C      1  0.4833580000000  0.5258380000000  0.4696230000000 1.0
C      1  0.5896370000000  0.5083790000000  0.5091370000000 1.0
C      1  0.4295860000000  0.4501090000000  0.4674060000000 1.0
C      1  0.5317300000000  0.5769150000000  0.5374810000000 1.0
C      1  0.4537900000000  0.4155220000000  0.4800770000000 1.0
C      1  0.5036910000000  0.4566770000000  0.5673410000000 1.0
C      1  0.5115050000000  0.5357930000000  0.4697130000000 1.0
C      1  0.5487400000000  0.5393010000000  0.5681830000000 1.0
C      1  0.4797860000000  0.4523530000000  0.5515450000000 1.0
C      1  0.5501790000000  0.5757880000000  0.4898130000000 1.0
C      1  0.4662590000000  0.5759070000000  0.4936860000000 1.0
C      1  0.5305410000000  0.5617560000000  0.5634410000000 1.0
C      1  0.5033950000000  0.4213330000000  0.4868910000000 1.0
C      1  0.4082990000000  0.5261430000000  0.4718740000000 1.0
C      1  0.4760030000000  0.4978370000000  0.4692410000000 1.0
C      1  0.4264090000000  0.4661640000000  0.5165520000000 1.0
C      1  0.5057720000000  0.4749400000000  0.5882520000000 1.0
C      1  0.4308700000000  0.4548520000000  0.5421080000000 1.0
C      1  0.4273880000000  0.4855930000000  0.4475680000000 1.0
C      1  0.5029090000000  0.4752260000000  0.4104980000000 1.0
C      1  0.5583330000000  0.4686300000000  0.4343060000000 1.0
C      1  0.5563060000000  0.5437820000000  0.4503160000000 1.0
C      1  0.4791660000000  0.4283910000000  0.5349410000000 1.0
C      1  0.4215690000000  0.5139160000000  0.4484420000000 1.0
C      1  0.5808010000000  0.4590120000000  0.4916310000000 1.0
C      1  0.5521550000000  0.4693880000000  0.5784210000000 1.0
C      1  0.5294620000000  0.4240560000000  0.5249490000000 1.0
C      1  0.5801450000000  0.5090660000000  0.5367630000000 1.0
C      1  0.5743830000000  0.4603880000000  0.5444850000000 1.0
C      1  0.5248730000000  0.5900310000000  0.4941790000000 1.0
C      1  0.5141180000000  0.5272520000000  0.4208710000000 1.0
C      1  0.5643590000000  0.4870330000000  0.5437670000000 1.0
C      1  0.5258000000000  0.4683000000000  0.4998820000000 1.0
C      1  0.5229750000000  0.4624780000000  0.5485360000000 1.0
C      1  0.4485430000000  0.5333490000000  0.5026370000000 1.0
C      1  0.5105430000000  0.5859610000000  0.5195980000000 1.0
C      1  0.5209060000000  0.4947640000000  0.4690550000000 1.0
C      1  0.4511870000000  0.4760700000000  0.4323100000000 1.0
C      1  0.4125470000000  0.4701790000000  0.4657190000000 1.0
C      1  0.4946330000000  0.5177750000000  0.5367210000000 1.0
C      1  0.5093160000000  0.5667890000000  0.4831390000000 1.0
C      1  0.4957970000000  0.4506980000000  0.4264830000000 1.0
C      1  0.5870620000000  0.5004550000000  0.4637070000000 1.0
C      1  0.5931340000000  0.4870270000000  0.4895820000000 1.0
C      1  0.5442200000000  0.4422460000000  0.5048540000000 1.0
C      1  0.4591390000000  0.4453650000000  0.4667080000000 1.0
C      1  0.4296440000000  0.5434560000000  0.4833740000000 1.0
C      1  0.4579760000000  0.4873340000000  0.4900210000000 1.0
C      1  0.4901770000000  0.5650010000000  0.4462750000000 1.0
C      1  0.5023550000000  0.4208780000000  0.5173610000000 1.0
C      1  0.4396800000000  0.5344290000000  0.4384710000000 1.0
C      1  0.4788230000000  0.5604490000000  0.5603510000000 1.0
C      1  0.4638210000000  0.5280050000000  0.4236490000000 1.0
C      1  0.5643480000000  0.4823040000000  0.4600510000000 1.0
C      1  0.5320960000000  0.4873080000000  0.5876690000000 1.0
END
