TITL C-884138-6203-337 3.71869651325912 125000 -25144.5927512553 0 0 167 (C1) n - 1
REM
REM in /home/nfs/bkarasulu/CARBON/AIRSS/Generating-Clusters/ReaxFF-fromJPCA2015/Units_Real/with-SteepDescent/Only-C1/SD-CG/Try1-3A/FIRE-CG
REM
REM
REM
REM
REM
REM ./C.cell (11c1c37f851c82e70ff6c80c92926a4b)
REM
REM compiler GCC version 9.2.1 20190827 (Red Hat 9.2.1-1)
REM options -cpp -mtune=generic -march=x86-64 -g -O0 -fpre-include=/usr/include/finclude/math-vector-fortran.h
REM seed -1778182115 -1229502987 1495726792 357055018 -413666324 1438992321 -64650185 800511620 2113485417 690314577 81473474 1885224706 -1359203533 -1910602017 -1533482499 -231650122 1545427519 -1548116488 -1367820528 1123911992 1048481870 218915424 40221084 -62656761 457445271 736483740 40303595 1991465275 -974121833 -1832348098 1811448397 1299907260 -2031308448
REM
CELL 1.54180   50.00000   50.00000   50.00000   90.00000   90.00000   90.00000
LATT -1
SFAC C  
C      1  0.4829040000000  0.5180780000000  0.3881900000000 1.0
C      1  0.4313470000000  0.5190590000000  0.5654530000000 1.0
C      1  0.4287360000000  0.5769920000000  0.4807730000000 1.0
C      1  0.5984920000000  0.5210450000000  0.5635730000000 1.0
C      1  0.5165940000000  0.5674700000000  0.5728480000000 1.0
C      1  0.3873630000000  0.5061300000000  0.5047790000000 1.0
C      1  0.6025620000000  0.5005860000000  0.5430290000000 1.0
C      1  0.5286800000000  0.5475190000000  0.5073420000000 1.0
C      1  0.4828340000000  0.4560140000000  0.4477280000000 1.0
C      1  0.4159690000000  0.4246210000000  0.5189140000000 1.0
C      1  0.4187370000000  0.5260620000000  0.4735590000000 1.0
C      1  0.5678070000000  0.5677400000000  0.5287040000000 1.0
C      1  0.5024820000000  0.5759910000000  0.4232020000000 1.0
C      1  0.5824970000000  0.4660630000000  0.5197260000000 1.0
C      1  0.4571940000000  0.5658770000000  0.5632220000000 1.0
C      1  0.4727230000000  0.4135410000000  0.4295700000000 1.0
C      1  0.5666030000000  0.4335350000000  0.5579560000000 1.0
C      1  0.4319710000000  0.4115780000000  0.4958860000000 1.0
C      1  0.4729370000000  0.5730750000000  0.4280130000000 1.0
C      1  0.4842760000000  0.4450500000000  0.4047880000000 1.0
C      1  0.4912340000000  0.5538370000000  0.5207430000000 1.0
C      1  0.5225620000000  0.4146330000000  0.4338080000000 1.0
C      1  0.5730730000000  0.4690820000000  0.4758200000000 1.0
C      1  0.4697740000000  0.5043740000000  0.4830050000000 1.0
C      1  0.5665750000000  0.5641350000000  0.5609610000000 1.0
C      1  0.5991180000000  0.5230790000000  0.4753950000000 1.0
C      1  0.4775470000000  0.5465200000000  0.3948480000000 1.0
C      1  0.5250450000000  0.5380900000000  0.3980820000000 1.0
C      1  0.5986660000000  0.4963370000000  0.4877030000000 1.0
C      1  0.5751890000000  0.5747200000000  0.4812690000000 1.0
C      1  0.4613730000000  0.4882600000000  0.5939070000000 1.0
C      1  0.5859870000000  0.5607200000000  0.5049850000000 1.0
C      1  0.4712750000000  0.4592580000000  0.4742730000000 1.0
C      1  0.6008950000000  0.5359710000000  0.5018920000000 1.0
C      1  0.5000240000000  0.4886060000000  0.5629930000000 1.0
C      1  0.4861740000000  0.4735750000000  0.3966650000000 1.0
C      1  0.5279350000000  0.4689610000000  0.4211800000000 1.0
C      1  0.4302510000000  0.4363580000000  0.5678690000000 1.0
C      1  0.4550430000000  0.4129060000000  0.5099420000000 1.0
C      1  0.4583830000000  0.5303870000000  0.5372160000000 1.0
C      1  0.5239180000000  0.5957510000000  0.5284650000000 1.0
C      1  0.5517950000000  0.5681230000000  0.4329080000000 1.0
C      1  0.5194910000000  0.4346530000000  0.5792120000000 1.0
C      1  0.4016650000000  0.5303880000000  0.4980480000000 1.0
C      1  0.5005950000000  0.6002350000000  0.4866570000000 1.0
C      1  0.5475940000000  0.5439090000000  0.4157310000000 1.0
C      1  0.4779000000000  0.5098110000000  0.6071140000000 1.0
C      1  0.5191490000000  0.5078060000000  0.5281330000000 1.0
C      1  0.4255480000000  0.4173280000000  0.5465060000000 1.0
C      1  0.4991690000000  0.4146600000000  0.4976820000000 1.0
C      1  0.5471980000000  0.5089320000000  0.4816330000000 1.0
C      1  0.5928150000000  0.4772860000000  0.5588330000000 1.0
C      1  0.4773210000000  0.4637580000000  0.5860320000000 1.0
C      1  0.5858920000000  0.5457800000000  0.5597300000000 1.0
C      1  0.3968080000000  0.4978190000000  0.5322670000000 1.0
C      1  0.5752050000000  0.4663460000000  0.4355830000000 1.0
C      1  0.5062900000000  0.5295860000000  0.5093800000000 1.0
C      1  0.4472010000000  0.4748860000000  0.5155940000000 1.0
C      1  0.4928120000000  0.4924840000000  0.5357230000000 1.0
C      1  0.4265440000000  0.4676180000000  0.4971250000000 1.0
C      1  0.5480280000000  0.5192830000000  0.5737530000000 1.0
C      1  0.5046440000000  0.4575040000000  0.5946590000000 1.0
C      1  0.4546740000000  0.5445870000000  0.4639590000000 1.0
C      1  0.5268170000000  0.5825420000000  0.4390110000000 1.0
C      1  0.4437170000000  0.5813860000000  0.5424630000000 1.0
C      1  0.4808510000000  0.4258310000000  0.5498080000000 1.0
C      1  0.5070640000000  0.5409430000000  0.5618660000000 1.0
C      1  0.4628270000000  0.4963240000000  0.4554640000000 1.0
C      1  0.4780150000000  0.5335720000000  0.4494660000000 1.0
C      1  0.5296220000000  0.4100760000000  0.5357220000000 1.0
C      1  0.6020550000000  0.5075220000000  0.5143930000000 1.0
C      1  0.5258100000000  0.5530860000000  0.4669670000000 1.0
C      1  0.4201210000000  0.4658370000000  0.4433850000000 1.0
C      1  0.4651970000000  0.4046920000000  0.4570750000000 1.0
C      1  0.5476830000000  0.4406410000000  0.5789020000000 1.0
C      1  0.4329690000000  0.4406050000000  0.4538610000000 1.0
C      1  0.5479290000000  0.4269520000000  0.4373330000000 1.0
C      1  0.4371270000000  0.5323910000000  0.4229760000000 1.0
C      1  0.4610010000000  0.5725030000000  0.4547540000000 1.0
C      1  0.5095930000000  0.5909600000000  0.5562220000000 1.0
C      1  0.5105000000000  0.4598140000000  0.4441540000000 1.0
C      1  0.5511690000000  0.5885920000000  0.4886590000000 1.0
C      1  0.4133630000000  0.5653020000000  0.4571950000000 1.0
C      1  0.4456180000000  0.5439410000000  0.5787870000000 1.0
C      1  0.5526730000000  0.5198870000000  0.4312400000000 1.0
C      1  0.5365910000000  0.4035830000000  0.4811140000000 1.0
C      1  0.4510110000000  0.4664560000000  0.5436380000000 1.0
C      1  0.5585170000000  0.4136160000000  0.5384650000000 1.0
C      1  0.4971170000000  0.4661480000000  0.5235770000000 1.0
C      1  0.5166230000000  0.4004300000000  0.4600700000000 1.0
C      1  0.5088390000000  0.6173170000000  0.5077150000000 1.0
C      1  0.4727890000000  0.5977700000000  0.4965720000000 1.0
C      1  0.4833350000000  0.5935080000000  0.5471650000000 1.0
C      1  0.4263740000000  0.4678950000000  0.5610920000000 1.0
C      1  0.4458770000000  0.5540750000000  0.4899220000000 1.0
C      1  0.4093530000000  0.5209820000000  0.5447670000000 1.0
C      1  0.5006860000000  0.5387600000000  0.4669930000000 1.0
C      1  0.4048370000000  0.4709580000000  0.5387190000000 1.0
C      1  0.4792700000000  0.5492570000000  0.5475850000000 1.0
C      1  0.5366970000000  0.4848000000000  0.5214440000000 1.0
C      1  0.4586730000000  0.4967480000000  0.5071270000000 1.0
C      1  0.5132270000000  0.4837850000000  0.3959570000000 1.0
C      1  0.5910660000000  0.4562010000000  0.4939720000000 1.0
C      1  0.5505540000000  0.5310500000000  0.4604570000000 1.0
C      1  0.5101330000000  0.4199680000000  0.5562950000000 1.0
C      1  0.5645080000000  0.4891440000000  0.5203990000000 1.0
C      1  0.5208050000000  0.4804450000000  0.6018100000000 1.0
C      1  0.5251970000000  0.4023610000000  0.5076860000000 1.0
C      1  0.4563670000000  0.5527460000000  0.4136630000000 1.0
C      1  0.5110020000000  0.5091290000000  0.6029200000000 1.0
C      1  0.5107570000000  0.4434250000000  0.4928320000000 1.0
C      1  0.3869190000000  0.4878240000000  0.4821130000000 1.0
C      1  0.5251430000000  0.5826640000000  0.4707710000000 1.0
C      1  0.5332860000000  0.4984370000000  0.4290360000000 1.0
C      1  0.5856970000000  0.4526290000000  0.5454650000000 1.0
C      1  0.4778290000000  0.4141780000000  0.5216030000000 1.0
C      1  0.5610490000000  0.5143540000000  0.5068500000000 1.0
C      1  0.5515500000000  0.4512870000000  0.4726650000000 1.0
C      1  0.5116880000000  0.5123760000000  0.3907230000000 1.0
C      1  0.4650220000000  0.4424430000000  0.4267500000000 1.0
C      1  0.4379430000000  0.4933750000000  0.5772270000000 1.0
C      1  0.4926630000000  0.5207880000000  0.4863980000000 1.0
C      1  0.4459200000000  0.5468820000000  0.5168680000000 1.0
C      1  0.5139560000000  0.5690140000000  0.5170710000000 1.0
C      1  0.5747540000000  0.4827380000000  0.5809250000000 1.0
C      1  0.5507800000000  0.5374510000000  0.5234830000000 1.0
C      1  0.4985520000000  0.4203740000000  0.4166790000000 1.0
C      1  0.5032530000000  0.5147770000000  0.5753760000000 1.0
C      1  0.5250510000000  0.4599310000000  0.4716630000000 1.0
C      1  0.5464290000000  0.4703160000000  0.5848430000000 1.0
C      1  0.5254490000000  0.4920930000000  0.4746230000000 1.0
C      1  0.4437690000000  0.4544750000000  0.4774090000000 1.0
C      1  0.4514470000000  0.4188640000000  0.5607390000000 1.0
C      1  0.4749620000000  0.4578670000000  0.5575770000000 1.0
C      1  0.5801600000000  0.5374900000000  0.4568240000000 1.0
C      1  0.5576810000000  0.4228940000000  0.4691110000000 1.0
C      1  0.5131970000000  0.5021130000000  0.4503490000000 1.0
C      1  0.5335890000000  0.5264110000000  0.5471420000000 1.0
C      1  0.5250570000000  0.4740570000000  0.5609440000000 1.0
C      1  0.4085090000000  0.4525160000000  0.5165570000000 1.0
C      1  0.4152250000000  0.4949440000000  0.4752640000000 1.0
C      1  0.5740380000000  0.5654090000000  0.4527410000000 1.0
C      1  0.5434440000000  0.5608040000000  0.5818580000000 1.0
C      1  0.4855580000000  0.5072990000000  0.4417770000000 1.0
C      1  0.4650440000000  0.5958650000000  0.5267110000000 1.0
C      1  0.4900990000000  0.4006330000000  0.4711780000000 1.0
C      1  0.5512460000000  0.5900680000000  0.5170730000000 1.0
C      1  0.4899860000000  0.4624260000000  0.4963790000000 1.0
C      1  0.4387850000000  0.4145910000000  0.4668390000000 1.0
C      1  0.4170730000000  0.5381700000000  0.4459020000000 1.0
C      1  0.5241530000000  0.4620950000000  0.5346380000000 1.0
C      1  0.5763420000000  0.5109410000000  0.5812510000000 1.0
C      1  0.5546790000000  0.4511800000000  0.4239270000000 1.0
C      1  0.5764340000000  0.4133650000000  0.5138490000000 1.0
C      1  0.4535260000000  0.5921390000000  0.4755520000000 1.0
C      1  0.4665170000000  0.4964720000000  0.3976390000000 1.0
C      1  0.5345820000000  0.5354230000000  0.5933060000000 1.0
C      1  0.4686800000000  0.5056680000000  0.5291350000000 1.0
C      1  0.4247410000000  0.5646580000000  0.5267310000000 1.0
C      1  0.4404210000000  0.4867550000000  0.4382840000000 1.0
C      1  0.5042240000000  0.5583630000000  0.4002660000000 1.0
C      1  0.3978680000000  0.4800370000000  0.4559710000000 1.0
C      1  0.4437760000000  0.5048250000000  0.4150940000000 1.0
C      1  0.4056540000000  0.5424510000000  0.5253440000000 1.0
C      1  0.5885210000000  0.4785700000000  0.4537500000000 1.0
C      1  0.4627530000000  0.5299440000000  0.5955410000000 1.0
C      1  0.5823140000000  0.4279600000000  0.4900210000000 1.0
END
