TITL C-883734-4173-101 6.21072750175786 125000 -6658.16523500887 0 0 46 (C1) n - 1
REM
REM in /home/nfs/bkarasulu/CARBON/AIRSS/Generating-Clusters/ReaxFF-fromJPCA2015/Units_Real/with-SteepDescent/Only-C1/SD-CG/Try1-3A/FIRE-CG
REM
REM
REM
REM
REM
REM ./C.cell (11c1c37f851c82e70ff6c80c92926a4b)
REM
REM compiler GCC version 9.2.1 20190827 (Red Hat 9.2.1-1)
REM options -cpp -mtune=generic -march=x86-64 -g -O0 -fpre-include=/usr/include/finclude/math-vector-fortran.h
REM seed 80115265 -661728768 455626532 -1954876052 1663403967 248240199 -1597900562 1235893670 278484295 -1787979787 -361145314 -1525224066 1882588006 709564347 634817958 203749259 1748505309 -2029746188 -966705276 564784661 1617061894 -1810695728 -106569549 -694480951 -1006354192 1054651569 2001308308 -1768314089 -1094582106 -1858618356 1297085691 1094329712 1349651653
REM
CELL 1.54180   50.00000   50.00000   50.00000   90.00000   90.00000   90.00000
LATT -1
SFAC C  
C      1  0.5068880000000  0.5098890000000  0.4591880000000 1.0
C      1  0.4586990000000  0.4706600000000  0.4288690000000 1.0
C      1  0.4863040000000  0.5029300000000  0.4771710000000 1.0
C      1  0.4774460000000  0.5293980000000  0.4298380000000 1.0
C      1  0.5052970000000  0.5519950000000  0.5374890000000 1.0
C      1  0.5440770000000  0.4634430000000  0.5262010000000 1.0
C      1  0.4496850000000  0.4472200000000  0.4597310000000 1.0
C      1  0.4392780000000  0.4584000000000  0.4398150000000 1.0
C      1  0.4876790000000  0.5014090000000  0.5521540000000 1.0
C      1  0.4964170000000  0.4568620000000  0.4502560000000 1.0
C      1  0.5700970000000  0.5068580000000  0.5158480000000 1.0
C      1  0.4788000000000  0.5421220000000  0.4573170000000 1.0
C      1  0.4590630000000  0.5521840000000  0.5173820000000 1.0
C      1  0.4964340000000  0.4755000000000  0.5137850000000 1.0
C      1  0.5325930000000  0.4446320000000  0.5083300000000 1.0
C      1  0.4945250000000  0.5050080000000  0.4325540000000 1.0
C      1  0.5616120000000  0.4775420000000  0.4868650000000 1.0
C      1  0.5680810000000  0.4774100000000  0.5151550000000 1.0
C      1  0.5207360000000  0.4818790000000  0.5277270000000 1.0
C      1  0.5078640000000  0.5393920000000  0.4631090000000 1.0
C      1  0.4751840000000  0.4439860000000  0.4704690000000 1.0
C      1  0.4575080000000  0.5774350000000  0.5111750000000 1.0
C      1  0.5036680000000  0.4361280000000  0.5163920000000 1.0
C      1  0.4859340000000  0.4766760000000  0.4301540000000 1.0
C      1  0.5251760000000  0.5479320000000  0.4860570000000 1.0
C      1  0.5474400000000  0.5525580000000  0.5324350000000 1.0
C      1  0.4649240000000  0.5241470000000  0.4762850000000 1.0
C      1  0.5377020000000  0.5194040000000  0.5564190000000 1.0
C      1  0.4678190000000  0.5205050000000  0.5542260000000 1.0
C      1  0.5585970000000  0.5247860000000  0.5358290000000 1.0
C      1  0.4374970000000  0.5074650000000  0.5153580000000 1.0
C      1  0.4482860000000  0.4844870000000  0.5299940000000 1.0
C      1  0.4434640000000  0.5088370000000  0.5441480000000 1.0
C      1  0.4789940000000  0.5401150000000  0.5388180000000 1.0
C      1  0.4823470000000  0.4421790000000  0.4979380000000 1.0
C      1  0.5621760000000  0.5078980000000  0.4862360000000 1.0
C      1  0.5164300000000  0.5002290000000  0.5503040000000 1.0
C      1  0.5288540000000  0.5477730000000  0.5554650000000 1.0
C      1  0.4485330000000  0.5288540000000  0.4989800000000 1.0
C      1  0.4869220000000  0.4448100000000  0.5386290000000 1.0
C      1  0.5425090000000  0.5274890000000  0.4826590000000 1.0
C      1  0.5407570000000  0.4562220000000  0.4821340000000 1.0
C      1  0.4978310000000  0.4935310000000  0.4954870000000 1.0
C      1  0.4763650000000  0.4764330000000  0.5366100000000 1.0
C      1  0.5197550000000  0.4577070000000  0.4636280000000 1.0
C      1  0.5237550000000  0.5576830000000  0.5153870000000 1.0
END
