TITL C-883739-1268-268 5.38596056662251 125000 -8241.26613996102 0 0 56 (C1) n - 1
REM
REM in /home/nfs/bkarasulu/CARBON/AIRSS/Generating-Clusters/ReaxFF-fromJPCA2015/Units_Real/with-SteepDescent/Only-C1/SD-CG/Try1-3A/FIRE-CG
REM
REM
REM
REM
REM
REM ./C.cell (11c1c37f851c82e70ff6c80c92926a4b)
REM
REM compiler GCC version 9.2.1 20190827 (Red Hat 9.2.1-1)
REM options -cpp -mtune=generic -march=x86-64 -g -O0 -fpre-include=/usr/include/finclude/math-vector-fortran.h
REM seed 1331043002 -830437207 593498070 721680218 1584474063 -1628105713 -1584867240 -536234012 1277571101 309923718 -1547682422 -1924100711 -1654179496 71064899 1415676363 -536513722 1793185782 391501141 1596197744 -405848607 802414375 -1393423568 1286691191 2107312178 -6719737 1436001734 -1847325529 -267615780 -495992846 2005545111 1498618942 -1321903797 -2034866531
REM
CELL 1.54180   50.00000   50.00000   50.00000   90.00000   90.00000   90.00000
LATT -1
SFAC C  
C      1  0.4651520000000  0.4944590000000  0.5559710000000 1.0
C      1  0.4965730000000  0.4882000000000  0.5542590000000 1.0
C      1  0.4498810000000  0.5084230000000  0.4883750000000 1.0
C      1  0.5602400000000  0.5421180000000  0.4841380000000 1.0
C      1  0.4514500000000  0.5079100000000  0.4328840000000 1.0
C      1  0.5425730000000  0.5628510000000  0.4931760000000 1.0
C      1  0.5217430000000  0.5444490000000  0.4544790000000 1.0
C      1  0.4763800000000  0.4729130000000  0.5082930000000 1.0
C      1  0.4508300000000  0.4852680000000  0.4484200000000 1.0
C      1  0.4769990000000  0.4502100000000  0.4724700000000 1.0
C      1  0.5768710000000  0.4976070000000  0.5045850000000 1.0
C      1  0.4742990000000  0.5467260000000  0.5031810000000 1.0
C      1  0.5026480000000  0.5330300000000  0.5546420000000 1.0
C      1  0.5489320000000  0.5325410000000  0.4574320000000 1.0
C      1  0.4255830000000  0.4986480000000  0.4971040000000 1.0
C      1  0.5658710000000  0.5266480000000  0.5081180000000 1.0
C      1  0.5093640000000  0.4292820000000  0.5144440000000 1.0
C      1  0.5369080000000  0.5598470000000  0.5221340000000 1.0
C      1  0.5284520000000  0.4542640000000  0.4597650000000 1.0
C      1  0.5113980000000  0.4613940000000  0.5487820000000 1.0
C      1  0.4328450000000  0.4702700000000  0.4901960000000 1.0
C      1  0.5065560000000  0.4995840000000  0.4235940000000 1.0
C      1  0.4711110000000  0.4340980000000  0.5298350000000 1.0
C      1  0.4734270000000  0.5225780000000  0.4855180000000 1.0
C      1  0.5006840000000  0.5246230000000  0.4449190000000 1.0
C      1  0.4484320000000  0.4492920000000  0.5384960000000 1.0
C      1  0.4980340000000  0.4363890000000  0.5407030000000 1.0
C      1  0.5200330000000  0.4972090000000  0.4843310000000 1.0
C      1  0.4500550000000  0.4699990000000  0.5610100000000 1.0
C      1  0.4666370000000  0.5427670000000  0.5309600000000 1.0
C      1  0.5179270000000  0.5621150000000  0.4771460000000 1.0
C      1  0.5686280000000  0.4779590000000  0.4860080000000 1.0
C      1  0.5339580000000  0.4442890000000  0.4845670000000 1.0
C      1  0.4280280000000  0.5112280000000  0.5251540000000 1.0
C      1  0.4920260000000  0.4917770000000  0.5236570000000 1.0
C      1  0.5188900000000  0.4900630000000  0.5123740000000 1.0
C      1  0.5300490000000  0.4671490000000  0.5279630000000 1.0
C      1  0.5144630000000  0.5125840000000  0.5634560000000 1.0
C      1  0.4840460000000  0.4432740000000  0.5012900000000 1.0
C      1  0.5358010000000  0.4420240000000  0.5123010000000 1.0
C      1  0.5449900000000  0.5181540000000  0.5560340000000 1.0
C      1  0.4986650000000  0.5113350000000  0.4722800000000 1.0
C      1  0.5433170000000  0.4836190000000  0.4673530000000 1.0
C      1  0.4516830000000  0.4643730000000  0.4674640000000 1.0
C      1  0.4622980000000  0.5570340000000  0.4369310000000 1.0
C      1  0.5510950000000  0.5359560000000  0.5304110000000 1.0
C      1  0.4519530000000  0.5183500000000  0.5403550000000 1.0
C      1  0.5632250000000  0.5035010000000  0.5670390000000 1.0
C      1  0.4971500000000  0.5642100000000  0.4984770000000 1.0
C      1  0.5086160000000  0.5670510000000  0.5248780000000 1.0
C      1  0.4899630000000  0.5551890000000  0.5449600000000 1.0
C      1  0.4990770000000  0.4538640000000  0.4532450000000 1.0
C      1  0.5528710000000  0.5053440000000  0.4474910000000 1.0
C      1  0.4482870000000  0.4669870000000  0.5146740000000 1.0
C      1  0.4706110000000  0.5335970000000  0.4365810000000 1.0
C      1  0.5024190000000  0.4753780000000  0.4356980000000 1.0
END
