TITL C-883729-9652-24 -268307.889246111 125000 -6008.44798725045 0 0 41 (C1) n - 1
REM
REM in /home/nfs/bkarasulu/CARBON/AIRSS/Generating-Clusters/ReaxFF-fromJPCA2015/Units_Real/with-SteepDescent/Only-C1/SD-CG/Try1-3A/FIRE-CG
REM
REM
REM
REM
REM
REM ./C.cell (11c1c37f851c82e70ff6c80c92926a4b)
REM
REM compiler GCC version 9.2.1 20190827 (Red Hat 9.2.1-1)
REM options -cpp -mtune=generic -march=x86-64 -g -O0 -fpre-include=/usr/include/finclude/math-vector-fortran.h
REM seed -343753567 735656200 -1177640748 -1529074245 -1730032625 998459236 -783987136 1094041196 -1883396026 912030227 -1757549701 -425953754 1110444436 -777416513 1590249405 -255829732 212883416 1958104487 -736632796 378215931 529225100 414281337 -2099410676 1219193792 -1739340907 198018932 -1715185151 1412118083 1209259039 -1755832336 -2107009735 1546601669 1532854141
REM
CELL 1.54180   50.00000   50.00000   50.00000   90.00000   90.00000   90.00000
LATT -1
SFAC C  
C      1  0.4715730000000  0.5394610000000  0.4839420000000 1.0
C      1  0.4960800000000  0.5658470000000  0.5180290000000 1.0
C      1  0.4906510000000  0.5169870000000  0.4904270000000 1.0
C      1  0.5277130000000  0.5486290000000  0.4794380000000 1.0
C      1  0.5303960000000  0.4539860000000  0.5243420000000 1.0
C      1  0.5474450000000  0.4556790000000  0.5005660000000 1.0
C      1  0.5089640000000  0.5049590000000  0.4718350000000 1.0
C      1  0.5372720000000  0.4774420000000  0.5405680000000 1.0
C      1  0.4394800000000  0.5029970000000  0.4926710000000 1.0
C      1  0.4435280000000  0.5325230000000  0.4902230000000 1.0
C      1  0.4707570000000  0.5606910000000  0.5048140000000 1.0
C      1  0.4997910000000  0.5492170000000  0.5416710000000 1.0
C      1  0.5130630000000  0.4837920000000  0.5555720000000 1.0
C      1  0.5197130000000  0.5687010000000  0.4980990000000 1.0
C      1  0.5104650000000  0.4711800000000  0.4693530000000 1.0
C      1  0.4470590000000  0.5460920000000  0.5162970000000 1.0
C      1  0.5016160000000  0.4485900000000  0.5278130000000 1.0
C      1  0.5100140000000  0.4638830000000  0.4436380000000 1.0
C      1  0.4835210000000  0.4617170000000  0.4813130000000 1.0
C      1  0.5373680000000  0.4600410000000  0.4730310000000 1.0
C      1  0.4546260000000  0.5234890000000  0.5340110000000 1.0
C      1  0.5348230000000  0.5203280000000  0.5208040000000 1.0
C      1  0.4801810000000  0.4581400000000  0.5097350000000 1.0
C      1  0.5070480000000  0.5102620000000  0.5142550000000 1.0
C      1  0.4468200000000  0.4984990000000  0.5207440000000 1.0
C      1  0.4646410000000  0.4717080000000  0.4617230000000 1.0
C      1  0.5612570000000  0.4819570000000  0.4990160000000 1.0
C      1  0.5276620000000  0.4968810000000  0.4284850000000 1.0
C      1  0.5553510000000  0.4831380000000  0.4699440000000 1.0
C      1  0.5461800000000  0.5040290000000  0.4499670000000 1.0
C      1  0.4573520000000  0.4711430000000  0.5258380000000 1.0
C      1  0.4696520000000  0.4629810000000  0.5495370000000 1.0
C      1  0.4803280000000  0.5271750000000  0.5476640000000 1.0
C      1  0.4967730000000  0.4588500000000  0.5558630000000 1.0
C      1  0.4994970000000  0.4828280000000  0.4258720000000 1.0
C      1  0.5518220000000  0.4961550000000  0.5229860000000 1.0
C      1  0.4506620000000  0.4877140000000  0.4721300000000 1.0
C      1  0.5287690000000  0.5406680000000  0.5417720000000 1.0
C      1  0.5279180000000  0.5248340000000  0.4643290000000 1.0
C      1  0.4753020000000  0.4830240000000  0.4402880000000 1.0
C      1  0.4968640000000  0.5037820000000  0.5413980000000 1.0
END
