TITL C-883729-9652-474 50.0880576873489 125000 -23234.5875975801 0 0 157 (C1) n - 1
REM
REM in /home/nfs/bkarasulu/CARBON/AIRSS/Generating-Clusters/ReaxFF-fromJPCA2015/Units_Real/with-SteepDescent/Only-C1/SD-CG/Try1-3A/FIRE-CG
REM
REM
REM
REM
REM
REM ./C.cell (11c1c37f851c82e70ff6c80c92926a4b)
REM
REM compiler GCC version 9.2.1 20190827 (Red Hat 9.2.1-1)
REM options -cpp -mtune=generic -march=x86-64 -g -O0 -fpre-include=/usr/include/finclude/math-vector-fortran.h
REM seed 1241682389 -2026455030 331888076 7228206 -89856259 1963593247 -91014478 1823368458 3393659 -1776196633 1659050517 -20802090 1719651839 -1123999171 -276822595 837898728 -616752026 996781007 -1880804439 -2126317730 -728903139 1495436252 281656580 -408712638 2120859579 283925700 1317698365 -1771142893 -1910312156 -761514124 -2102828027 -131569015 -1986222031
REM
CELL 1.54180   50.00000   50.00000   50.00000   90.00000   90.00000   90.00000
LATT -1
SFAC C  
C      1  0.4876270000000  0.4653720000000  0.4501400000000 1.0
C      1  0.5875530000000  0.5613620000000  0.5477110000000 1.0
C      1  0.5924630000000  0.4977750000000  0.5319890000000 1.0
C      1  0.5483910000000  0.5212780000000  0.5867820000000 1.0
C      1  0.4196130000000  0.4775910000000  0.4164410000000 1.0
C      1  0.5575980000000  0.5518830000000  0.5495040000000 1.0
C      1  0.5851230000000  0.4417850000000  0.4864510000000 1.0
C      1  0.4579680000000  0.5199110000000  0.5238030000000 1.0
C      1  0.4152710000000  0.5525230000000  0.4898690000000 1.0
C      1  0.5293090000000  0.4487280000000  0.5784770000000 1.0
C      1  0.5458210000000  0.4926280000000  0.5141040000000 1.0
C      1  0.4231840000000  0.5732440000000  0.5432470000000 1.0
C      1  0.4051610000000  0.5384440000000  0.5132910000000 1.0
C      1  0.5052190000000  0.4837690000000  0.4368710000000 1.0
C      1  0.4400760000000  0.4969820000000  0.5925590000000 1.0
C      1  0.5329170000000  0.4464950000000  0.4134540000000 1.0
C      1  0.5220370000000  0.4369930000000  0.5296350000000 1.0
C      1  0.4661960000000  0.4875830000000  0.5984680000000 1.0
C      1  0.5230190000000  0.4073050000000  0.5638930000000 1.0
C      1  0.5097890000000  0.6150700000000  0.4953210000000 1.0
C      1  0.5496980000000  0.4278810000000  0.4318540000000 1.0
C      1  0.4664310000000  0.4490510000000  0.5143700000000 1.0
C      1  0.4360420000000  0.4150360000000  0.4892410000000 1.0
C      1  0.4778740000000  0.5940890000000  0.4559580000000 1.0
C      1  0.4652280000000  0.5496530000000  0.5633210000000 1.0
C      1  0.4584190000000  0.4811760000000  0.4459560000000 1.0
C      1  0.6014920000000  0.5316910000000  0.4750360000000 1.0
C      1  0.4964650000000  0.5044750000000  0.4960560000000 1.0
C      1  0.4937600000000  0.6045360000000  0.4755500000000 1.0
C      1  0.4559690000000  0.5624150000000  0.5131140000000 1.0
C      1  0.4310510000000  0.5233420000000  0.5831070000000 1.0
C      1  0.5113990000000  0.4267490000000  0.5832100000000 1.0
C      1  0.5357190000000  0.6035450000000  0.5037820000000 1.0
C      1  0.5231760000000  0.5153950000000  0.5482290000000 1.0
C      1  0.5296700000000  0.5496510000000  0.4115740000000 1.0
C      1  0.5189660000000  0.3914250000000  0.4922030000000 1.0
C      1  0.4737760000000  0.4043300000000  0.4709270000000 1.0
C      1  0.4822310000000  0.5952410000000  0.5366210000000 1.0
C      1  0.4123620000000  0.4718160000000  0.5554130000000 1.0
C      1  0.5609120000000  0.4195260000000  0.5226320000000 1.0
C      1  0.4094800000000  0.4465150000000  0.4906380000000 1.0
C      1  0.5554030000000  0.5155710000000  0.4710360000000 1.0
C      1  0.5310960000000  0.5600940000000  0.5646410000000 1.0
C      1  0.4369620000000  0.4764250000000  0.5706670000000 1.0
C      1  0.4471040000000  0.4302440000000  0.5491430000000 1.0
C      1  0.5039900000000  0.5428270000000  0.4025510000000 1.0
C      1  0.5305900000000  0.5369730000000  0.5076370000000 1.0
C      1  0.6009840000000  0.4569590000000  0.5056000000000 1.0
C      1  0.4137600000000  0.5242050000000  0.5590880000000 1.0
C      1  0.5661420000000  0.5413270000000  0.4313550000000 1.0
C      1  0.5031810000000  0.4447160000000  0.4106820000000 1.0
C      1  0.5374070000000  0.4979690000000  0.6012530000000 1.0
C      1  0.4545060000000  0.5499930000000  0.4228000000000 1.0
C      1  0.5506580000000  0.5841550000000  0.4853210000000 1.0
C      1  0.5414170000000  0.4095240000000  0.4860290000000 1.0
C      1  0.5526300000000  0.5162580000000  0.4243340000000 1.0
C      1  0.4090730000000  0.5472580000000  0.5409560000000 1.0
C      1  0.4421120000000  0.4942480000000  0.4071710000000 1.0
C      1  0.6107160000000  0.5039410000000  0.4838260000000 1.0
C      1  0.4881150000000  0.4713090000000  0.5979020000000 1.0
C      1  0.4453840000000  0.5204350000000  0.4242210000000 1.0
C      1  0.5615930000000  0.4923730000000  0.5384270000000 1.0
C      1  0.4519520000000  0.5430460000000  0.5904430000000 1.0
C      1  0.5198960000000  0.4055530000000  0.4497920000000 1.0
C      1  0.5571760000000  0.4812130000000  0.5910760000000 1.0
C      1  0.4760940000000  0.5234370000000  0.5607660000000 1.0
C      1  0.5479920000000  0.5167590000000  0.4988010000000 1.0
C      1  0.4800930000000  0.4970150000000  0.5499290000000 1.0
C      1  0.5430300000000  0.5604610000000  0.4334090000000 1.0
C      1  0.5073240000000  0.4944330000000  0.5915000000000 1.0
C      1  0.5971770000000  0.5241660000000  0.5300870000000 1.0
C      1  0.4297740000000  0.5917920000000  0.5212330000000 1.0
C      1  0.4487260000000  0.5587640000000  0.5401930000000 1.0
C      1  0.4604040000000  0.4725890000000  0.4107420000000 1.0
C      1  0.4990190000000  0.5461250000000  0.4624300000000 1.0
C      1  0.4910250000000  0.4377250000000  0.4375940000000 1.0
C      1  0.5054920000000  0.3920090000000  0.5464680000000 1.0
C      1  0.4179260000000  0.5222580000000  0.4377600000000 1.0
C      1  0.4279880000000  0.4513040000000  0.4272180000000 1.0
C      1  0.4777220000000  0.5359870000000  0.6006320000000 1.0
C      1  0.4653280000000  0.4213480000000  0.4488550000000 1.0
C      1  0.4128750000000  0.4740780000000  0.4779210000000 1.0
C      1  0.4992860000000  0.4916790000000  0.4096500000000 1.0
C      1  0.4817400000000  0.5580160000000  0.4172360000000 1.0
C      1  0.5375040000000  0.5627190000000  0.5014710000000 1.0
C      1  0.5890740000000  0.5918480000000  0.5442650000000 1.0
C      1  0.6013660000000  0.5494900000000  0.5242740000000 1.0
C      1  0.5227150000000  0.5945140000000  0.5304860000000 1.0
C      1  0.4339770000000  0.5748540000000  0.4952780000000 1.0
C      1  0.4867780000000  0.4661430000000  0.3997790000000 1.0
C      1  0.4200170000000  0.4540360000000  0.5172910000000 1.0
C      1  0.5382200000000  0.5139520000000  0.4490360000000 1.0
C      1  0.5256650000000  0.4621600000000  0.5520620000000 1.0
C      1  0.5198700000000  0.4863010000000  0.5040560000000 1.0
C      1  0.5192130000000  0.4633890000000  0.4863910000000 1.0
C      1  0.5873040000000  0.5297700000000  0.4494450000000 1.0
C      1  0.4025410000000  0.5085860000000  0.5171870000000 1.0
C      1  0.5487120000000  0.4102100000000  0.4548980000000 1.0
C      1  0.4951180000000  0.5172610000000  0.4643260000000 1.0
C      1  0.4200760000000  0.4270380000000  0.4712350000000 1.0
C      1  0.4064760000000  0.4994690000000  0.5449470000000 1.0
C      1  0.5161300000000  0.4339970000000  0.4538470000000 1.0
C      1  0.4709550000000  0.4894810000000  0.4966140000000 1.0
C      1  0.4555570000000  0.4793190000000  0.5483270000000 1.0
C      1  0.4926610000000  0.4569560000000  0.4766270000000 1.0
C      1  0.5510770000000  0.5196600000000  0.5562730000000 1.0
C      1  0.5663790000000  0.4541680000000  0.4670440000000 1.0
C      1  0.6037020000000  0.4864910000000  0.5076270000000 1.0
C      1  0.5273150000000  0.5414070000000  0.5872180000000 1.0
C      1  0.5544760000000  0.5660920000000  0.5229850000000 1.0
C      1  0.4873620000000  0.5285240000000  0.5153220000000 1.0
C      1  0.4381090000000  0.4307680000000  0.4455550000000 1.0
C      1  0.4593770000000  0.4051230000000  0.4978430000000 1.0
C      1  0.5411020000000  0.4731980000000  0.4052020000000 1.0
C      1  0.5046560000000  0.3892370000000  0.5178200000000 1.0
C      1  0.5584430000000  0.4560730000000  0.5790090000000 1.0
C      1  0.4243200000000  0.5421050000000  0.4621190000000 1.0
C      1  0.4723020000000  0.4624440000000  0.4923070000000 1.0
C      1  0.5970960000000  0.5545430000000  0.4928300000000 1.0
C      1  0.5769960000000  0.5029790000000  0.4569010000000 1.0
C      1  0.5402060000000  0.4313870000000  0.5052810000000 1.0
C      1  0.4655700000000  0.4219390000000  0.5236380000000 1.0
C      1  0.4402910000000  0.5622580000000  0.4449600000000 1.0
C      1  0.6117340000000  0.4830980000000  0.4625680000000 1.0
C      1  0.4027280000000  0.4986770000000  0.4334350000000 1.0
C      1  0.4182380000000  0.4969290000000  0.4959660000000 1.0
C      1  0.4861960000000  0.4424610000000  0.5855460000000 1.0
C      1  0.4731980000000  0.5523540000000  0.4745650000000 1.0
C      1  0.4518660000000  0.5274210000000  0.4711460000000 1.0
C      1  0.4473320000000  0.5076930000000  0.4967470000000 1.0
C      1  0.5417250000000  0.4216140000000  0.5459110000000 1.0
C      1  0.5127400000000  0.5700280000000  0.5445270000000 1.0
C      1  0.5392350000000  0.5023980000000  0.4016410000000 1.0
C      1  0.4963610000000  0.4158710000000  0.5299220000000 1.0
C      1  0.5698480000000  0.5903930000000  0.5218380000000 1.0
C      1  0.5011780000000  0.6131360000000  0.5253870000000 1.0
C      1  0.5120180000000  0.5146960000000  0.3966420000000 1.0
C      1  0.5548160000000  0.4680880000000  0.5521150000000 1.0
C      1  0.4355690000000  0.4776130000000  0.4619930000000 1.0
C      1  0.4540850000000  0.5775500000000  0.4654780000000 1.0
C      1  0.4778330000000  0.5522030000000  0.5017180000000 1.0
C      1  0.5770890000000  0.5728590000000  0.4865020000000 1.0
C      1  0.5365000000000  0.4522490000000  0.4658570000000 1.0
C      1  0.5859310000000  0.4330870000000  0.5147130000000 1.0
C      1  0.4647520000000  0.5113500000000  0.4502230000000 1.0
C      1  0.5140500000000  0.5038160000000  0.4517450000000 1.0
C      1  0.5167090000000  0.5644660000000  0.4487160000000 1.0
C      1  0.5011970000000  0.3935240000000  0.4690710000000 1.0
C      1  0.4656290000000  0.4365260000000  0.5679560000000 1.0
C      1  0.5126950000000  0.5381730000000  0.5315690000000 1.0
C      1  0.4937770000000  0.5775990000000  0.4356640000000 1.0
C      1  0.4552590000000  0.5981590000000  0.5324510000000 1.0
C      1  0.5041530000000  0.5255880000000  0.5981850000000 1.0
C      1  0.5834680000000  0.4745530000000  0.4543400000000 1.0
C      1  0.5096740000000  0.4911950000000  0.5580760000000 1.0
C      1  0.4212510000000  0.4451640000000  0.5446740000000 1.0
C      1  0.4471440000000  0.4687580000000  0.5221630000000 1.0
END
