TITL C-883734-4173-171 16.230198924081 125000 -20659.947814537 0 0 138 (C1) n - 1
REM
REM in /home/nfs/bkarasulu/CARBON/AIRSS/Generating-Clusters/ReaxFF-fromJPCA2015/Units_Real/with-SteepDescent/Only-C1/SD-CG/Try1-3A/FIRE-CG
REM
REM
REM
REM
REM
REM ./C.cell (11c1c37f851c82e70ff6c80c92926a4b)
REM
REM compiler GCC version 9.2.1 20190827 (Red Hat 9.2.1-1)
REM options -cpp -mtune=generic -march=x86-64 -g -O0 -fpre-include=/usr/include/finclude/math-vector-fortran.h
REM seed 1046348306 8401085 -1656943057 1295678921 -293580089 -1234577715 1637006759 683197820 4010910 -2029762424 2115814542 -2084798249 -125443504 -1608037380 1838444835 -2046353992 -749981163 1804870168 1771639326 -502922205 -952470188 462719169 296186927 1329453924 1029956316 -1025851024 -191062530 2141095677 1525140526 -686546618 -1504227626 1752324776 -508276300
REM
CELL 1.54180   50.00000   50.00000   50.00000   90.00000   90.00000   90.00000
LATT -1
SFAC C  
C      1  0.5745120000000  0.4714470000000  0.5726580000000 1.0
C      1  0.4807430000000  0.5838090000000  0.4594140000000 1.0
C      1  0.5058070000000  0.4850700000000  0.4743500000000 1.0
C      1  0.4591400000000  0.5820420000000  0.5228060000000 1.0
C      1  0.5692810000000  0.5110310000000  0.5509680000000 1.0
C      1  0.4225650000000  0.4968210000000  0.4236360000000 1.0
C      1  0.4987240000000  0.4414270000000  0.5834660000000 1.0
C      1  0.4808830000000  0.4340230000000  0.5417930000000 1.0
C      1  0.4693140000000  0.5577920000000  0.4572910000000 1.0
C      1  0.4372230000000  0.4964500000000  0.5605950000000 1.0
C      1  0.4257120000000  0.4532870000000  0.5374030000000 1.0
C      1  0.4864990000000  0.5402100000000  0.5291620000000 1.0
C      1  0.4809880000000  0.4908500000000  0.5178190000000 1.0
C      1  0.4802160000000  0.5688550000000  0.5355180000000 1.0
C      1  0.4524130000000  0.5797770000000  0.4961400000000 1.0
C      1  0.4702800000000  0.5796210000000  0.5614500000000 1.0
C      1  0.5748930000000  0.5603140000000  0.5744140000000 1.0
C      1  0.4166840000000  0.5387570000000  0.5371320000000 1.0
C      1  0.4745990000000  0.4568790000000  0.5916150000000 1.0
C      1  0.5473540000000  0.4411200000000  0.5506090000000 1.0
C      1  0.5101330000000  0.5247580000000  0.5328590000000 1.0
C      1  0.4497630000000  0.5262350000000  0.4119100000000 1.0
C      1  0.4793530000000  0.5873150000000  0.4878090000000 1.0
C      1  0.4574320000000  0.5536110000000  0.5678530000000 1.0
C      1  0.5087860000000  0.4157730000000  0.5716860000000 1.0
C      1  0.5422590000000  0.5670360000000  0.4224200000000 1.0
C      1  0.5718900000000  0.5508820000000  0.4624520000000 1.0
C      1  0.5361330000000  0.4830460000000  0.5157190000000 1.0
C      1  0.4335680000000  0.4675990000000  0.5614900000000 1.0
C      1  0.4590140000000  0.4191650000000  0.4618450000000 1.0
C      1  0.5937030000000  0.4866500000000  0.4847220000000 1.0
C      1  0.4020620000000  0.4772490000000  0.4669610000000 1.0
C      1  0.5044280000000  0.5978380000000  0.4465760000000 1.0
C      1  0.5429010000000  0.5315040000000  0.6058510000000 1.0
C      1  0.5013250000000  0.5394140000000  0.5831610000000 1.0
C      1  0.4621610000000  0.5251720000000  0.5249700000000 1.0
C      1  0.5345840000000  0.5258810000000  0.4496690000000 1.0
C      1  0.5146370000000  0.5002720000000  0.3938070000000 1.0
C      1  0.5520540000000  0.4884150000000  0.4934220000000 1.0
C      1  0.5602910000000  0.4972540000000  0.5755380000000 1.0
C      1  0.4707640000000  0.4121220000000  0.4886620000000 1.0
C      1  0.5091810000000  0.4925910000000  0.5934100000000 1.0
C      1  0.5036690000000  0.4973990000000  0.5336010000000 1.0
C      1  0.4558710000000  0.4281440000000  0.5573420000000 1.0
C      1  0.4454070000000  0.5405440000000  0.5441330000000 1.0
C      1  0.4486790000000  0.5019020000000  0.4828770000000 1.0
C      1  0.4191500000000  0.4721070000000  0.5151570000000 1.0
C      1  0.5571580000000  0.4254650000000  0.4667180000000 1.0
C      1  0.4807300000000  0.4853840000000  0.5882440000000 1.0
C      1  0.4481350000000  0.4146000000000  0.5080020000000 1.0
C      1  0.5087330000000  0.5936740000000  0.5018570000000 1.0
C      1  0.4499560000000  0.5277650000000  0.4964720000000 1.0
C      1  0.5345450000000  0.4142700000000  0.5569230000000 1.0
C      1  0.5568640000000  0.4392240000000  0.4418660000000 1.0
C      1  0.5021680000000  0.4476990000000  0.5053140000000 1.0
C      1  0.5801010000000  0.4949470000000  0.4349540000000 1.0
C      1  0.5143400000000  0.5251280000000  0.4294130000000 1.0
C      1  0.4454990000000  0.4679950000000  0.4466780000000 1.0
C      1  0.5650990000000  0.4669650000000  0.4334570000000 1.0
C      1  0.4007370000000  0.4991490000000  0.4873700000000 1.0
C      1  0.4878020000000  0.4891170000000  0.4492810000000 1.0
C      1  0.4940490000000  0.5007370000000  0.4944460000000 1.0
C      1  0.5182870000000  0.4441820000000  0.4335480000000 1.0
C      1  0.4669730000000  0.4745500000000  0.4056390000000 1.0
C      1  0.5558440000000  0.5752160000000  0.5106480000000 1.0
C      1  0.5586900000000  0.5351690000000  0.5374150000000 1.0
C      1  0.4173570000000  0.5093900000000  0.5407690000000 1.0
C      1  0.4315330000000  0.4287750000000  0.4648350000000 1.0
C      1  0.5178340000000  0.5941440000000  0.4741740000000 1.0
C      1  0.4773680000000  0.5366360000000  0.4074890000000 1.0
C      1  0.4959090000000  0.4780230000000  0.4021170000000 1.0
C      1  0.4968010000000  0.4535200000000  0.5571210000000 1.0
C      1  0.5630010000000  0.5143070000000  0.4206270000000 1.0
C      1  0.5187480000000  0.5405010000000  0.4753660000000 1.0
C      1  0.5770140000000  0.5533750000000  0.5217600000000 1.0
C      1  0.5864340000000  0.4674310000000  0.5456990000000 1.0
C      1  0.4453630000000  0.4968200000000  0.4074140000000 1.0
C      1  0.4588000000000  0.4538650000000  0.4245490000000 1.0
C      1  0.5724350000000  0.4672620000000  0.4901970000000 1.0
C      1  0.4983620000000  0.5920870000000  0.5658120000000 1.0
C      1  0.4328860000000  0.4349370000000  0.4936080000000 1.0
C      1  0.4982380000000  0.4277360000000  0.4313020000000 1.0
C      1  0.4906910000000  0.5166370000000  0.4398000000000 1.0
C      1  0.4213940000000  0.4559400000000  0.4591810000000 1.0
C      1  0.5371280000000  0.5432140000000  0.4957050000000 1.0
C      1  0.5232850000000  0.5831360000000  0.4320320000000 1.0
C      1  0.5405080000000  0.5062150000000  0.4052040000000 1.0
C      1  0.4731980000000  0.5317700000000  0.5777640000000 1.0
C      1  0.4029320000000  0.4973420000000  0.4447880000000 1.0
C      1  0.4383560000000  0.4266440000000  0.5342320000000 1.0
C      1  0.5449530000000  0.4773920000000  0.4477730000000 1.0
C      1  0.4944330000000  0.5271690000000  0.4855590000000 1.0
C      1  0.5130400000000  0.4751910000000  0.5482320000000 1.0
C      1  0.4594430000000  0.4893590000000  0.4587520000000 1.0
C      1  0.5352000000000  0.4823780000000  0.5833810000000 1.0
C      1  0.4398150000000  0.4799580000000  0.4974790000000 1.0
C      1  0.4616510000000  0.5043470000000  0.5756800000000 1.0
C      1  0.4986700000000  0.4187050000000  0.4965310000000 1.0
C      1  0.4216820000000  0.5413680000000  0.4604290000000 1.0
C      1  0.4043430000000  0.4971000000000  0.5171620000000 1.0
C      1  0.5958460000000  0.5051180000000  0.5088090000000 1.0
C      1  0.5211270000000  0.4024720000000  0.5335550000000 1.0
C      1  0.5895530000000  0.5309990000000  0.4732520000000 1.0
C      1  0.5088420000000  0.4576310000000  0.4798020000000 1.0
C      1  0.4355450000000  0.5359000000000  0.4364450000000 1.0
C      1  0.5897660000000  0.5612970000000  0.5500570000000 1.0
C      1  0.5269360000000  0.4585060000000  0.5279410000000 1.0
C      1  0.4029330000000  0.5192750000000  0.4656730000000 1.0
C      1  0.5563460000000  0.5618040000000  0.4850690000000 1.0
C      1  0.5493160000000  0.4573060000000  0.5768840000000 1.0
C      1  0.4533770000000  0.4579600000000  0.4976590000000 1.0
C      1  0.4765050000000  0.4611820000000  0.5148700000000 1.0
C      1  0.5579290000000  0.5417700000000  0.4372940000000 1.0
C      1  0.5913770000000  0.5322360000000  0.5021480000000 1.0
C      1  0.5343480000000  0.5343930000000  0.5220550000000 1.0
C      1  0.5287540000000  0.5831670000000  0.5205840000000 1.0
C      1  0.5204960000000  0.5794840000000  0.5510430000000 1.0
C      1  0.5474880000000  0.5524220000000  0.5854030000000 1.0
C      1  0.4705980000000  0.4289610000000  0.4362260000000 1.0
C      1  0.5149320000000  0.5204810000000  0.6004940000000 1.0
C      1  0.5220150000000  0.5568390000000  0.5709950000000 1.0
C      1  0.5047510000000  0.5268670000000  0.4017100000000 1.0
C      1  0.4307820000000  0.5553210000000  0.4887990000000 1.0
C      1  0.4505810000000  0.4488010000000  0.5771180000000 1.0
C      1  0.5360810000000  0.4972050000000  0.4661070000000 1.0
C      1  0.5909220000000  0.5034130000000  0.4607800000000 1.0
C      1  0.5726140000000  0.4449660000000  0.5337680000000 1.0
C      1  0.5878140000000  0.4950400000000  0.5354530000000 1.0
C      1  0.5510550000000  0.4203240000000  0.4941590000000 1.0
C      1  0.4113620000000  0.5522510000000  0.5109080000000 1.0
C      1  0.4951500000000  0.4077610000000  0.5468450000000 1.0
C      1  0.5693530000000  0.4413880000000  0.5051750000000 1.0
C      1  0.4695220000000  0.5364320000000  0.4779740000000 1.0
C      1  0.5248420000000  0.4089320000000  0.5048240000000 1.0
C      1  0.5210990000000  0.4407050000000  0.4601230000000 1.0
C      1  0.5024880000000  0.4682050000000  0.4284750000000 1.0
C      1  0.4782640000000  0.5416090000000  0.4358720000000 1.0
C      1  0.5177470000000  0.5682100000000  0.4707430000000 1.0
END
