TITL C-884129-4740-317 -5.94423361984859e-08 125000 -4071.86276439312 0 0 29 (C1) n - 1
REM
REM in /home/nfs/bkarasulu/CARBON/AIRSS/Generating-Clusters/ReaxFF-fromJPCA2015/Units_Real/with-SteepDescent/Only-C1/SD-CG/Try1-3A/FIRE-CG
REM
REM
REM
REM
REM
REM ./C.cell (11c1c37f851c82e70ff6c80c92926a4b)
REM
REM compiler GCC version 9.2.1 20190827 (Red Hat 9.2.1-1)
REM options -cpp -mtune=generic -march=x86-64 -g -O0 -fpre-include=/usr/include/finclude/math-vector-fortran.h
REM seed -2113646114 18700704 -1594245984 1171478790 -2047570705 -1785284254 1977194866 609300677 647859608 793169796 933355496 1040884088 797484029 1663595038 689321909 2028327672 -8663075 -1939833853 -93637558 1985186321 721985788 1494804447 1624185247 -723952797 -1692876800 -978043204 1588591390 612962756 87535659 -1227557585 -2112450097 2055593592 -1985488984
REM
CELL 1.54180   50.00000   50.00000   50.00000   90.00000   90.00000   90.00000
LATT -1
SFAC C  
C      1  0.5129970000000  0.4540470000000  0.5528060000000 1.0
C      1  0.5020560000000  0.5634740000000  0.5028080000000 1.0
C      1  0.5031710000000  0.4822250000000  0.5634110000000 1.0
C      1  0.4839980000000  0.5494030000000  0.4902630000000 1.0
C      1  0.5345360000000  0.4879480000000  0.4647410000000 1.0
C      1  0.4886930000000  0.4959410000000  0.4482780000000 1.0
C      1  0.4745700000000  0.4536250000000  0.4786900000000 1.0
C      1  0.4992450000000  0.5448030000000  0.4392820000000 1.0
C      1  0.4529300000000  0.5044010000000  0.5129290000000 1.0
C      1  0.4807290000000  0.5247620000000  0.4496400000000 1.0
C      1  0.5407740000000  0.4576670000000  0.5403730000000 1.0
C      1  0.4543320000000  0.5190730000000  0.4953220000000 1.0
C      1  0.5108080000000  0.5557080000000  0.5331470000000 1.0
C      1  0.4712560000000  0.4329970000000  0.4916530000000 1.0
C      1  0.5418910000000  0.4735820000000  0.5156490000000 1.0
C      1  0.5150470000000  0.4906120000000  0.4390810000000 1.0
C      1  0.5115390000000  0.4775960000000  0.5865610000000 1.0
C      1  0.5261360000000  0.4875630000000  0.4950410000000 1.0
C      1  0.4972310000000  0.4890900000000  0.4976700000000 1.0
C      1  0.5029760000000  0.5308190000000  0.5422500000000 1.0
C      1  0.4973980000000  0.4437620000000  0.5331880000000 1.0
C      1  0.5158510000000  0.5670880000000  0.4505670000000 1.0
C      1  0.4926780000000  0.5068380000000  0.5456520000000 1.0
C      1  0.4826590000000  0.4790950000000  0.4740330000000 1.0
C      1  0.5180390000000  0.5738910000000  0.4793600000000 1.0
C      1  0.4826680000000  0.4343750000000  0.5140550000000 1.0
C      1  0.5591960000000  0.4874950000000  0.4690360000000 1.0
C      1  0.4798740000000  0.4967430000000  0.5205890000000 1.0
C      1  0.4667230000000  0.5353760000000  0.4739270000000 1.0
END
