TITL C-884129-4740-341 65.8549403673975 125000 -20988.6616066651 0 0 143 (C1) n - 1
REM
REM in /home/nfs/bkarasulu/CARBON/AIRSS/Generating-Clusters/ReaxFF-fromJPCA2015/Units_Real/with-SteepDescent/Only-C1/SD-CG/Try1-3A/FIRE-CG
REM
REM
REM
REM
REM
REM ./C.cell (11c1c37f851c82e70ff6c80c92926a4b)
REM
REM compiler GCC version 9.2.1 20190827 (Red Hat 9.2.1-1)
REM options -cpp -mtune=generic -march=x86-64 -g -O0 -fpre-include=/usr/include/finclude/math-vector-fortran.h
REM seed -769134610 534740799 3277694 -1399314831 -1183996615 620004310 182519316 393309146 920245848 -1536561335 -1144165100 -1849343331 -1304232079 537051796 1903490089 -1463289247 1376377247 -1306759916 304941236 -493140743 -1477509209 1661899425 -1562567855 2028269969 -2029223611 -22436691 496011541 502246730 1844846650 442359765 -1627149906 1687563905 -216204170
REM
CELL 1.54180   50.00000   50.00000   50.00000   90.00000   90.00000   90.00000
LATT -1
SFAC C  
C      1  0.5730110000000  0.5518330000000  0.5460020000000 1.0
C      1  0.4881930000000  0.4800800000000  0.5236010000000 1.0
C      1  0.4948320000000  0.4043180000000  0.4605680000000 1.0
C      1  0.4547180000000  0.5037010000000  0.4008650000000 1.0
C      1  0.4436800000000  0.4914790000000  0.4982860000000 1.0
C      1  0.4892720000000  0.4596790000000  0.5757550000000 1.0
C      1  0.5097070000000  0.5890660000000  0.5287560000000 1.0
C      1  0.5742310000000  0.4760450000000  0.4843360000000 1.0
C      1  0.4529360000000  0.4647310000000  0.4993740000000 1.0
C      1  0.5204230000000  0.5019280000000  0.5304710000000 1.0
C      1  0.4140430000000  0.5235080000000  0.5309640000000 1.0
C      1  0.4239100000000  0.4766330000000  0.5626540000000 1.0
C      1  0.4289780000000  0.4393290000000  0.4338920000000 1.0
C      1  0.5037730000000  0.4345550000000  0.5799200000000 1.0
C      1  0.4179260000000  0.4740720000000  0.5344660000000 1.0
C      1  0.4236930000000  0.5393660000000  0.5087530000000 1.0
C      1  0.4295760000000  0.4280410000000  0.4612200000000 1.0
C      1  0.4689480000000  0.5974850000000  0.5047020000000 1.0
C      1  0.4152890000000  0.4973980000000  0.4905300000000 1.0
C      1  0.5722470000000  0.5237800000000  0.5573920000000 1.0
C      1  0.4396300000000  0.4526930000000  0.5692610000000 1.0
C      1  0.4927320000000  0.5279320000000  0.4504130000000 1.0
C      1  0.4310760000000  0.5030400000000  0.5749210000000 1.0
C      1  0.5970730000000  0.5213290000000  0.4945780000000 1.0
C      1  0.5522150000000  0.4188120000000  0.5381930000000 1.0
C      1  0.5039080000000  0.3981400000000  0.5369970000000 1.0
C      1  0.5386190000000  0.4845770000000  0.5206140000000 1.0
C      1  0.4872520000000  0.5066920000000  0.5144010000000 1.0
C      1  0.5305840000000  0.5041330000000  0.5840290000000 1.0
C      1  0.5329550000000  0.5214710000000  0.4653140000000 1.0
C      1  0.4387730000000  0.4553420000000  0.5227500000000 1.0
C      1  0.5166940000000  0.4320800000000  0.5044340000000 1.0
C      1  0.5702660000000  0.5918940000000  0.4858760000000 1.0
C      1  0.5017530000000  0.5091670000000  0.3933510000000 1.0
C      1  0.5387120000000  0.5875510000000  0.5329740000000 1.0
C      1  0.4878350000000  0.5855280000000  0.5490520000000 1.0
C      1  0.5662830000000  0.4708570000000  0.4359880000000 1.0
C      1  0.4650820000000  0.5947650000000  0.5334800000000 1.0
C      1  0.5451020000000  0.5578500000000  0.4276830000000 1.0
C      1  0.4450790000000  0.5734950000000  0.5385710000000 1.0
C      1  0.4529810000000  0.4425050000000  0.5443430000000 1.0
C      1  0.5499140000000  0.5243710000000  0.5745600000000 1.0
C      1  0.4485890000000  0.5571220000000  0.5617890000000 1.0
C      1  0.5477660000000  0.4966730000000  0.4090330000000 1.0
C      1  0.5177720000000  0.4946300000000  0.5584270000000 1.0
C      1  0.5751300000000  0.4289650000000  0.5217860000000 1.0
C      1  0.4115790000000  0.4818800000000  0.4587760000000 1.0
C      1  0.5063320000000  0.4442430000000  0.5281490000000 1.0
C      1  0.5250370000000  0.5167800000000  0.4097710000000 1.0
C      1  0.5306310000000  0.5792580000000  0.4397250000000 1.0
C      1  0.4271270000000  0.5768190000000  0.4724740000000 1.0
C      1  0.4435360000000  0.4801460000000  0.4141670000000 1.0
C      1  0.4840070000000  0.4671870000000  0.4973930000000 1.0
C      1  0.5117180000000  0.5550530000000  0.5844130000000 1.0
C      1  0.4757260000000  0.5653120000000  0.5676890000000 1.0
C      1  0.4770110000000  0.4699800000000  0.6010390000000 1.0
C      1  0.5272570000000  0.4503960000000  0.5916450000000 1.0
C      1  0.4453410000000  0.5514270000000  0.4471480000000 1.0
C      1  0.4969490000000  0.4434090000000  0.4634210000000 1.0
C      1  0.5232860000000  0.5459960000000  0.4157160000000 1.0
C      1  0.4474510000000  0.5582410000000  0.5118310000000 1.0
C      1  0.5559920000000  0.5124530000000  0.4806450000000 1.0
C      1  0.4811640000000  0.4332800000000  0.5414300000000 1.0
C      1  0.5436210000000  0.4743620000000  0.5886150000000 1.0
C      1  0.4516500000000  0.4550290000000  0.5966010000000 1.0
C      1  0.4951310000000  0.4151040000000  0.5596660000000 1.0
C      1  0.4231590000000  0.5255050000000  0.4838800000000 1.0
C      1  0.5871590000000  0.4560410000000  0.5277670000000 1.0
C      1  0.4554080000000  0.4144530000000  0.4672140000000 1.0
C      1  0.4844400000000  0.5483840000000  0.4769450000000 1.0
C      1  0.4826110000000  0.3970650000000  0.5155860000000 1.0
C      1  0.5170480000000  0.5107060000000  0.4428330000000 1.0
C      1  0.5152910000000  0.4605240000000  0.4300140000000 1.0
C      1  0.5188360000000  0.4356850000000  0.4456040000000 1.0
C      1  0.4945720000000  0.5440010000000  0.5312500000000 1.0
C      1  0.4434560000000  0.5288950000000  0.4627620000000 1.0
C      1  0.5933980000000  0.4739700000000  0.5060410000000 1.0
C      1  0.4616760000000  0.4850590000000  0.4553660000000 1.0
C      1  0.5316640000000  0.4008740000000  0.5266570000000 1.0
C      1  0.5857860000000  0.5010510000000  0.5434800000000 1.0
C      1  0.5630450000000  0.5853770000000  0.5132650000000 1.0
C      1  0.5282000000000  0.4617420000000  0.5372360000000 1.0
C      1  0.5408240000000  0.4189480000000  0.4547210000000 1.0
C      1  0.5457680000000  0.4434080000000  0.5522500000000 1.0
C      1  0.4770690000000  0.4597220000000  0.4512110000000 1.0
C      1  0.5115780000000  0.5874410000000  0.4761720000000 1.0
C      1  0.5413580000000  0.4696380000000  0.4189390000000 1.0
C      1  0.4130140000000  0.4513960000000  0.4548170000000 1.0
C      1  0.5028390000000  0.5879810000000  0.4475850000000 1.0
C      1  0.4976410000000  0.5928490000000  0.5018740000000 1.0
C      1  0.5743800000000  0.4219760000000  0.4933770000000 1.0
C      1  0.4788240000000  0.5453120000000  0.5051030000000 1.0
C      1  0.5513820000000  0.4878870000000  0.4953020000000 1.0
C      1  0.5530100000000  0.5722750000000  0.5528200000000 1.0
C      1  0.5656420000000  0.4306120000000  0.4664040000000 1.0
C      1  0.4776830000000  0.5230740000000  0.3999740000000 1.0
C      1  0.5294240000000  0.4070790000000  0.4983750000000 1.0
C      1  0.4692120000000  0.5651970000000  0.4576940000000 1.0
C      1  0.5799360000000  0.5229170000000  0.4427460000000 1.0
C      1  0.4795160000000  0.4928990000000  0.3994950000000 1.0
C      1  0.5730560000000  0.5573720000000  0.5181020000000 1.0
C      1  0.4439060000000  0.5835700000000  0.4940960000000 1.0
C      1  0.4305180000000  0.5285370000000  0.5562230000000 1.0
C      1  0.5659160000000  0.5487010000000  0.4443410000000 1.0
C      1  0.5946070000000  0.5169770000000  0.4667250000000 1.0
C      1  0.5110690000000  0.5121190000000  0.4825170000000 1.0
C      1  0.4676080000000  0.4040610000000  0.4926200000000 1.0
C      1  0.5349310000000  0.5249870000000  0.5241810000000 1.0
C      1  0.4551550000000  0.5223520000000  0.5411130000000 1.0
C      1  0.5222400000000  0.4015290000000  0.4693120000000 1.0
C      1  0.4683490000000  0.5131370000000  0.4593600000000 1.0
C      1  0.4080780000000  0.4973530000000  0.5204840000000 1.0
C      1  0.4774810000000  0.4429970000000  0.4277440000000 1.0
C      1  0.4840350000000  0.5710250000000  0.4334720000000 1.0
C      1  0.4751960000000  0.4163890000000  0.4451170000000 1.0
C      1  0.5013320000000  0.5176120000000  0.5957370000000 1.0
C      1  0.4187510000000  0.5600310000000  0.4512090000000 1.0
C      1  0.5817530000000  0.4730230000000  0.5507240000000 1.0
C      1  0.5341580000000  0.5504710000000  0.5673720000000 1.0
C      1  0.5719650000000  0.4587810000000  0.4616130000000 1.0
C      1  0.4940130000000  0.5448610000000  0.4235500000000 1.0
C      1  0.4356000000000  0.4882690000000  0.4421020000000 1.0
C      1  0.5706310000000  0.4988140000000  0.4267630000000 1.0
C      1  0.3980960000000  0.5073660000000  0.4447770000000 1.0
C      1  0.5018040000000  0.4850450000000  0.4766700000000 1.0
C      1  0.4809810000000  0.5274650000000  0.5524610000000 1.0
C      1  0.4786380000000  0.5010420000000  0.6024620000000 1.0
C      1  0.5188470000000  0.5305050000000  0.5017250000000 1.0
C      1  0.5374430000000  0.5760070000000  0.4686700000000 1.0
C      1  0.5971170000000  0.5006940000000  0.5164700000000 1.0
C      1  0.5222130000000  0.5463920000000  0.5388050000000 1.0
C      1  0.5644500000000  0.5616810000000  0.4707300000000 1.0
C      1  0.4963990000000  0.4428020000000  0.4895660000000 1.0
C      1  0.4539830000000  0.5028190000000  0.5896450000000 1.0
C      1  0.4815460000000  0.4757440000000  0.5516910000000 1.0
C      1  0.4588120000000  0.5099400000000  0.5152330000000 1.0
C      1  0.5720550000000  0.5392920000000  0.4937310000000 1.0
C      1  0.4904020000000  0.5016940000000  0.5601430000000 1.0
C      1  0.5115590000000  0.4824910000000  0.4506470000000 1.0
C      1  0.4924990000000  0.5427180000000  0.5876960000000 1.0
C      1  0.5618980000000  0.4614360000000  0.5695500000000 1.0
C      1  0.4512190000000  0.4516000000000  0.4180200000000 1.0
C      1  0.4011350000000  0.5353630000000  0.4464300000000 1.0
END
