TITL C-884128-4793-227 3.54398793081857 125000 -16988.6772340249 0 0 114 (C1) n - 1
REM
REM in /home/nfs/bkarasulu/CARBON/AIRSS/Generating-Clusters/ReaxFF-fromJPCA2015/Units_Real/with-SteepDescent/Only-C1/SD-CG/Try1-3A/FIRE-CG
REM
REM
REM
REM
REM
REM ./C.cell (11c1c37f851c82e70ff6c80c92926a4b)
REM
REM compiler GCC version 9.2.1 20190827 (Red Hat 9.2.1-1)
REM options -cpp -mtune=generic -march=x86-64 -g -O0 -fpre-include=/usr/include/finclude/math-vector-fortran.h
REM seed -663052944 255715179 -1352272183 1545592433 821654229 -530824333 -1568901638 -266832155 1429911988 653473499 -1504064636 -680091469 -335075582 -740154874 -252792426 -508124603 378437100 721261148 406235679 -1256073091 -969870356 -2128271706 -443820895 -624002635 995186416 -26938272 1626781890 658392904 -1917151463 -1943984563 -995555391 -945302723 890271686
REM
CELL 1.54180   50.00000   50.00000   50.00000   90.00000   90.00000   90.00000
LATT -1
SFAC C  
C      1  0.5195750000000  0.4980390000000  0.5912210000000 1.0
C      1  0.5622360000000  0.5342810000000  0.5443200000000 1.0
C      1  0.5587570000000  0.5092150000000  0.5597540000000 1.0
C      1  0.5722990000000  0.4312520000000  0.5408330000000 1.0
C      1  0.4229520000000  0.4999980000000  0.4355680000000 1.0
C      1  0.4648310000000  0.5764280000000  0.5467540000000 1.0
C      1  0.4560210000000  0.5141140000000  0.5224750000000 1.0
C      1  0.5712170000000  0.5027910000000  0.4401070000000 1.0
C      1  0.4398890000000  0.5599120000000  0.4500030000000 1.0
C      1  0.5463600000000  0.4374910000000  0.5272370000000 1.0
C      1  0.5653620000000  0.4810620000000  0.5494500000000 1.0
C      1  0.5418150000000  0.5262310000000  0.4058670000000 1.0
C      1  0.4307680000000  0.4731990000000  0.4423170000000 1.0
C      1  0.4279190000000  0.4279880000000  0.5131250000000 1.0
C      1  0.5026180000000  0.4781840000000  0.4635270000000 1.0
C      1  0.4277860000000  0.4695500000000  0.4843390000000 1.0
C      1  0.4914040000000  0.4921110000000  0.5842710000000 1.0
C      1  0.5057890000000  0.5229390000000  0.5036920000000 1.0
C      1  0.4532850000000  0.5452070000000  0.4287200000000 1.0
C      1  0.4562970000000  0.5812140000000  0.4621260000000 1.0
C      1  0.5856710000000  0.4361340000000  0.4687930000000 1.0
C      1  0.5861620000000  0.5461530000000  0.4836530000000 1.0
C      1  0.4766750000000  0.4713560000000  0.4729280000000 1.0
C      1  0.5268180000000  0.5775160000000  0.4887540000000 1.0
C      1  0.5593030000000  0.5033610000000  0.4134890000000 1.0
C      1  0.5258680000000  0.5448980000000  0.5668400000000 1.0
C      1  0.5070100000000  0.4871080000000  0.4124850000000 1.0
C      1  0.5305870000000  0.5077480000000  0.5165040000000 1.0
C      1  0.4208790000000  0.4566730000000  0.5090070000000 1.0
C      1  0.4717110000000  0.4844420000000  0.4987540000000 1.0
C      1  0.4867470000000  0.4688080000000  0.5672100000000 1.0
C      1  0.4330090000000  0.5752590000000  0.5058330000000 1.0
C      1  0.4767320000000  0.5222130000000  0.4735080000000 1.0
C      1  0.5427760000000  0.4657710000000  0.5263570000000 1.0
C      1  0.5049620000000  0.4099690000000  0.4540680000000 1.0
C      1  0.5331290000000  0.5726670000000  0.5189650000000 1.0
C      1  0.5111400000000  0.5800540000000  0.5287980000000 1.0
C      1  0.4786720000000  0.5404240000000  0.5834940000000 1.0
C      1  0.4923990000000  0.3980920000000  0.4767780000000 1.0
C      1  0.5848140000000  0.4745640000000  0.5268120000000 1.0
C      1  0.5474790000000  0.4198300000000  0.5464470000000 1.0
C      1  0.5911070000000  0.4928860000000  0.5037030000000 1.0
C      1  0.4795270000000  0.5546560000000  0.4218190000000 1.0
C      1  0.5427470000000  0.4339830000000  0.5701840000000 1.0
C      1  0.4417380000000  0.5217750000000  0.5510800000000 1.0
C      1  0.4978430000000  0.5317120000000  0.4292660000000 1.0
C      1  0.4978690000000  0.5743130000000  0.4340850000000 1.0
C      1  0.5546960000000  0.4618280000000  0.5722920000000 1.0
C      1  0.5269740000000  0.5678110000000  0.4382840000000 1.0
C      1  0.5148050000000  0.4318590000000  0.5052410000000 1.0
C      1  0.4502460000000  0.4177700000000  0.4971670000000 1.0
C      1  0.4160160000000  0.5556960000000  0.4925450000000 1.0
C      1  0.5490680000000  0.4344890000000  0.4426670000000 1.0
C      1  0.4849400000000  0.5901590000000  0.5298510000000 1.0
C      1  0.4713680000000  0.4775690000000  0.5463750000000 1.0
C      1  0.5825130000000  0.5232760000000  0.5030790000000 1.0
C      1  0.4473730000000  0.4578650000000  0.4641000000000 1.0
C      1  0.4316590000000  0.5148740000000  0.5066240000000 1.0
C      1  0.5322680000000  0.4983240000000  0.4033990000000 1.0
C      1  0.4238970000000  0.4598840000000  0.5398330000000 1.0
C      1  0.4791800000000  0.5949100000000  0.5013310000000 1.0
C      1  0.4854920000000  0.5038570000000  0.4217020000000 1.0
C      1  0.4129620000000  0.5170100000000  0.4587870000000 1.0
C      1  0.5253930000000  0.5451230000000  0.4204800000000 1.0
C      1  0.5410570000000  0.5550200000000  0.5443710000000 1.0
C      1  0.5720700000000  0.4493600000000  0.4456450000000 1.0
C      1  0.4143230000000  0.5367120000000  0.5148950000000 1.0
C      1  0.5175230000000  0.4701890000000  0.5403780000000 1.0
C      1  0.5015140000000  0.5557230000000  0.5790160000000 1.0
C      1  0.4258460000000  0.5448930000000  0.5405910000000 1.0
C      1  0.5166870000000  0.5332330000000  0.4783150000000 1.0
C      1  0.5831810000000  0.4471900000000  0.5181890000000 1.0
C      1  0.5643470000000  0.4786020000000  0.4572800000000 1.0
C      1  0.4396120000000  0.5695140000000  0.5341960000000 1.0
C      1  0.4764270000000  0.5141370000000  0.5725620000000 1.0
C      1  0.4754780000000  0.4129260000000  0.4568220000000 1.0
C      1  0.4513850000000  0.5149980000000  0.4318190000000 1.0
C      1  0.5327690000000  0.4844010000000  0.4744090000000 1.0
C      1  0.4379420000000  0.4333040000000  0.5406550000000 1.0
C      1  0.4662990000000  0.4262130000000  0.5444210000000 1.0
C      1  0.4767890000000  0.4669460000000  0.5212690000000 1.0
C      1  0.5155240000000  0.4988250000000  0.5396290000000 1.0
C      1  0.4862800000000  0.4384180000000  0.5652250000000 1.0
C      1  0.5004360000000  0.5891070000000  0.4824850000000 1.0
C      1  0.5681410000000  0.4374060000000  0.4933940000000 1.0
C      1  0.4528970000000  0.5891540000000  0.4898900000000 1.0
C      1  0.5581630000000  0.5249010000000  0.4543430000000 1.0
C      1  0.4936910000000  0.4804790000000  0.4367250000000 1.0
C      1  0.5304750000000  0.4247150000000  0.4604260000000 1.0
C      1  0.5809810000000  0.4887240000000  0.4786350000000 1.0
C      1  0.4285160000000  0.4974620000000  0.5541570000000 1.0
C      1  0.4817240000000  0.5271740000000  0.5225120000000 1.0
C      1  0.4966280000000  0.5360970000000  0.4594170000000 1.0
C      1  0.5374040000000  0.4777810000000  0.5852050000000 1.0
C      1  0.4908830000000  0.5129010000000  0.5460430000000 1.0
C      1  0.4433800000000  0.4749630000000  0.5560940000000 1.0
C      1  0.5573170000000  0.5265590000000  0.5171110000000 1.0
C      1  0.5371710000000  0.4833780000000  0.5031260000000 1.0
C      1  0.5130340000000  0.4309030000000  0.5726280000000 1.0
C      1  0.4754630000000  0.5654010000000  0.5713300000000 1.0
C      1  0.4542970000000  0.4270620000000  0.4701330000000 1.0
C      1  0.4190910000000  0.5452750000000  0.4649620000000 1.0
C      1  0.5365480000000  0.5185220000000  0.5759580000000 1.0
C      1  0.5394270000000  0.4315310000000  0.4881700000000 1.0
C      1  0.4279220000000  0.5009650000000  0.4798820000000 1.0
C      1  0.4961370000000  0.4089060000000  0.5038520000000 1.0
C      1  0.4714830000000  0.4139310000000  0.5184090000000 1.0
C      1  0.5656340000000  0.5525330000000  0.4634490000000 1.0
C      1  0.5023420000000  0.4538020000000  0.5215320000000 1.0
C      1  0.5410200000000  0.5697550000000  0.4646120000000 1.0
C      1  0.5359550000000  0.5138410000000  0.4686770000000 1.0
C      1  0.4543310000000  0.5106520000000  0.4605780000000 1.0
C      1  0.4848510000000  0.5856760000000  0.4576360000000 1.0
C      1  0.4902000000000  0.5039620000000  0.4898610000000 1.0
END
