TITL C-883739-1268-326 -8.16937463014026 125000 -7323.83289740225 0 0 49 (C1) n - 1
REM
REM in /home/nfs/bkarasulu/CARBON/AIRSS/Generating-Clusters/ReaxFF-fromJPCA2015/Units_Real/with-SteepDescent/Only-C1/SD-CG/Try1-3A/FIRE-CG
REM
REM
REM
REM
REM
REM ./C.cell (11c1c37f851c82e70ff6c80c92926a4b)
REM
REM compiler GCC version 9.2.1 20190827 (Red Hat 9.2.1-1)
REM options -cpp -mtune=generic -march=x86-64 -g -O0 -fpre-include=/usr/include/finclude/math-vector-fortran.h
REM seed -1118865042 -673819428 807719048 487898207 1849357330 969200066 -143362005 -1471380385 -911366077 725864096 1023827024 -204007224 -22319456 1457092116 435395505 1515962556 -899544287 -1796365038 -1403468771 1698717174 -961946372 1704492488 1883882817 -1148769503 -680565022 -1207201277 -1726230317 -88539839 -2036852252 -1367468305 -1492099685 -1725819647 945032402
REM
CELL 1.54180   50.00000   50.00000   50.00000   90.00000   90.00000   90.00000
LATT -1
SFAC C  
C      1  0.4865400000000  0.5533020000000  0.5190690000000 1.0
C      1  0.4843160000000  0.4862220000000  0.5709980000000 1.0
C      1  0.4345190000000  0.4744970000000  0.5301300000000 1.0
C      1  0.5126400000000  0.5490850000000  0.4772890000000 1.0
C      1  0.5539890000000  0.4812360000000  0.4672180000000 1.0
C      1  0.5483350000000  0.5055250000000  0.4338620000000 1.0
C      1  0.5118860000000  0.5576110000000  0.5050360000000 1.0
C      1  0.4892320000000  0.4684510000000  0.4392740000000 1.0
C      1  0.4752950000000  0.4506860000000  0.4582010000000 1.0
C      1  0.4937320000000  0.4972640000000  0.4354400000000 1.0
C      1  0.5386310000000  0.5335060000000  0.5413490000000 1.0
C      1  0.5271120000000  0.4510210000000  0.5223790000000 1.0
C      1  0.4619800000000  0.5209410000000  0.5446730000000 1.0
C      1  0.5342140000000  0.5312950000000  0.4345080000000 1.0
C      1  0.4700510000000  0.4531540000000  0.5368440000000 1.0
C      1  0.4650420000000  0.4540940000000  0.4856620000000 1.0
C      1  0.5574870000000  0.5316770000000  0.4758210000000 1.0
C      1  0.4812210000000  0.5178070000000  0.4527410000000 1.0
C      1  0.4319980000000  0.5094210000000  0.5097630000000 1.0
C      1  0.5202270000000  0.4446960000000  0.4771900000000 1.0
C      1  0.5019770000000  0.5076490000000  0.5678050000000 1.0
C      1  0.4561200000000  0.4818880000000  0.4912420000000 1.0
C      1  0.5554240000000  0.4887820000000  0.5193340000000 1.0
C      1  0.5628390000000  0.5059780000000  0.4599300000000 1.0
C      1  0.4586630000000  0.5379400000000  0.4517910000000 1.0
C      1  0.5038420000000  0.4465840000000  0.4531930000000 1.0
C      1  0.4790230000000  0.4955070000000  0.5026370000000 1.0
C      1  0.4585540000000  0.4946490000000  0.5577900000000 1.0
C      1  0.4915790000000  0.4628030000000  0.5541300000000 1.0
C      1  0.4323150000000  0.4850570000000  0.5063430000000 1.0
C      1  0.4983790000000  0.5235930000000  0.4753340000000 1.0
C      1  0.5517870000000  0.4629200000000  0.5110240000000 1.0
C      1  0.4497100000000  0.4693800000000  0.5485820000000 1.0
C      1  0.5584230000000  0.5151860000000  0.5271190000000 1.0
C      1  0.5367520000000  0.5450150000000  0.4606520000000 1.0
C      1  0.4859480000000  0.5373050000000  0.5436120000000 1.0
C      1  0.5075670000000  0.4403850000000  0.5032480000000 1.0
C      1  0.4452800000000  0.5301310000000  0.5224200000000 1.0
C      1  0.5377250000000  0.5514110000000  0.5185730000000 1.0
C      1  0.4550080000000  0.5521030000000  0.4776990000000 1.0
C      1  0.5032020000000  0.5010770000000  0.4918770000000 1.0
C      1  0.4790450000000  0.4449220000000  0.5091840000000 1.0
C      1  0.5585430000000  0.5359040000000  0.5043040000000 1.0
C      1  0.5464710000000  0.4587360000000  0.4804850000000 1.0
C      1  0.5123820000000  0.4718540000000  0.5362430000000 1.0
C      1  0.4602680000000  0.5505820000000  0.5064320000000 1.0
C      1  0.5129830000000  0.5300200000000  0.5566950000000 1.0
C      1  0.5020820000000  0.4937730000000  0.5189270000000 1.0
C      1  0.5196610000000  0.5073760000000  0.4259430000000 1.0
END
