TITL C-884134-5972-20 1352534.99255191 125000 -13758.4436762492 0 0 92 (C1) n - 1
REM
REM in /home/nfs/bkarasulu/CARBON/AIRSS/Generating-Clusters/ReaxFF-fromJPCA2015/Units_Real/with-SteepDescent/Only-C1/SD-CG/Try1-3A/FIRE-CG
REM
REM
REM
REM
REM
REM ./C.cell (11c1c37f851c82e70ff6c80c92926a4b)
REM
REM compiler GCC version 9.2.1 20190827 (Red Hat 9.2.1-1)
REM options -cpp -mtune=generic -march=x86-64 -g -O0 -fpre-include=/usr/include/finclude/math-vector-fortran.h
REM seed -1085349217 -4421619 706536382 1056017629 -1102618247 942113346 696545421 -318200196 1299165822 -1481464688 1851169819 -1944861872 -505042227 1075647466 1961330243 -1113849040 -1577491495 657259046 1619161688 949688450 494426979 1245843867 776469181 -679023164 -1138104581 -588273461 1098988939 1636305624 -696832098 130790670 1471270150 1735567693 5855543
REM
CELL 1.54180   50.00000   50.00000   50.00000   90.00000   90.00000   90.00000
LATT -1
SFAC C  
C      1  0.4769320000000  0.4201570000000  0.5176570000000 1.0
C      1  0.4595020000000  0.5676920000000  0.4756970000000 1.0
C      1  0.4174850000000  0.5030330000000  0.4780810000000 1.0
C      1  0.5147840000000  0.4928850000000  0.5250700000000 1.0
C      1  0.4672860000000  0.4327700000000  0.5408660000000 1.0
C      1  0.5467460000000  0.5421340000000  0.4554500000000 1.0
C      1  0.5380780000000  0.4826350000000  0.4271160000000 1.0
C      1  0.4368490000000  0.5641670000000  0.5203800000000 1.0
C      1  0.4456900000000  0.5389560000000  0.4710960000000 1.0
C      1  0.5342950000000  0.4313640000000  0.4379410000000 1.0
C      1  0.4557480000000  0.4318180000000  0.5001020000000 1.0
C      1  0.5064800000000  0.5234310000000  0.4270790000000 1.0
C      1  0.4831650000000  0.5705510000000  0.4614950000000 1.0
C      1  0.5016550000000  0.5288550000000  0.4691700000000 1.0
C      1  0.4990870000000  0.4366270000000  0.4570630000000 1.0
C      1  0.5025360000000  0.4575170000000  0.4763180000000 1.0
C      1  0.5297640000000  0.4260830000000  0.4869720000000 1.0
C      1  0.4835030000000  0.4490310000000  0.4351810000000 1.0
C      1  0.4867830000000  0.5009830000000  0.5526930000000 1.0
C      1  0.4751240000000  0.5302900000000  0.5128790000000 1.0
C      1  0.4254700000000  0.4752010000000  0.5336320000000 1.0
C      1  0.5129040000000  0.5105700000000  0.5463880000000 1.0
C      1  0.4459480000000  0.4428110000000  0.4738100000000 1.0
C      1  0.5598650000000  0.4922310000000  0.4449690000000 1.0
C      1  0.5543020000000  0.4784990000000  0.5544010000000 1.0
C      1  0.5324270000000  0.4144190000000  0.5133900000000 1.0
C      1  0.4590430000000  0.4831230000000  0.4195760000000 1.0
C      1  0.4843180000000  0.5305250000000  0.4451830000000 1.0
C      1  0.4876540000000  0.4763120000000  0.4237640000000 1.0
C      1  0.5182010000000  0.5412570000000  0.5461370000000 1.0
C      1  0.5247600000000  0.4667110000000  0.5197990000000 1.0
C      1  0.5384800000000  0.4517140000000  0.5416820000000 1.0
C      1  0.4872050000000  0.4420360000000  0.5622430000000 1.0
C      1  0.5755740000000  0.4721000000000  0.4608080000000 1.0
C      1  0.4594210000000  0.5202830000000  0.4910230000000 1.0
C      1  0.4440100000000  0.5020910000000  0.4356070000000 1.0
C      1  0.4843330000000  0.5336690000000  0.5778740000000 1.0
C      1  0.4679540000000  0.4908080000000  0.4886520000000 1.0
C      1  0.5373790000000  0.4998590000000  0.4861250000000 1.0
C      1  0.5068300000000  0.5843800000000  0.5159540000000 1.0
C      1  0.4932220000000  0.5545910000000  0.5614710000000 1.0
C      1  0.5108460000000  0.4942610000000  0.4237480000000 1.0
C      1  0.4241110000000  0.5261430000000  0.5413560000000 1.0
C      1  0.5208210000000  0.5114710000000  0.5068380000000 1.0
C      1  0.4552200000000  0.5262690000000  0.4451210000000 1.0
C      1  0.5708410000000  0.5156050000000  0.5188930000000 1.0
C      1  0.5624540000000  0.4967560000000  0.5369690000000 1.0
C      1  0.5064290000000  0.4185600000000  0.5276650000000 1.0
C      1  0.4208750000000  0.5402920000000  0.5157880000000 1.0
C      1  0.5221370000000  0.4182880000000  0.4597100000000 1.0
C      1  0.4471180000000  0.4503280000000  0.5235440000000 1.0
C      1  0.5467830000000  0.5617970000000  0.4777310000000 1.0
C      1  0.5380260000000  0.4547190000000  0.4300660000000 1.0
C      1  0.4994440000000  0.5148170000000  0.5921030000000 1.0
C      1  0.4795640000000  0.5848430000000  0.5211430000000 1.0
C      1  0.4834560000000  0.4666900000000  0.5752410000000 1.0
C      1  0.5254050000000  0.5812490000000  0.4716350000000 1.0
C      1  0.5020870000000  0.5338090000000  0.4998500000000 1.0
C      1  0.4234480000000  0.4885760000000  0.4552210000000 1.0
C      1  0.5232070000000  0.5459170000000  0.4376130000000 1.0
C      1  0.4556650000000  0.4423590000000  0.4435820000000 1.0
C      1  0.4477460000000  0.5608990000000  0.5479630000000 1.0
C      1  0.5086680000000  0.5700950000000  0.4495250000000 1.0
C      1  0.5506250000000  0.5247980000000  0.5764730000000 1.0
C      1  0.4746760000000  0.5720850000000  0.5475780000000 1.0
C      1  0.5869080000000  0.4838980000000  0.4852730000000 1.0
C      1  0.5673690000000  0.5078630000000  0.4880610000000 1.0
C      1  0.5098970000000  0.5895770000000  0.4934890000000 1.0
C      1  0.5472290000000  0.5418690000000  0.5532270000000 1.0
C      1  0.5148080000000  0.5026210000000  0.4674600000000 1.0
C      1  0.4312190000000  0.4659930000000  0.4703050000000 1.0
C      1  0.5701740000000  0.4461050000000  0.4745500000000 1.0
C      1  0.4690040000000  0.5191700000000  0.5394880000000 1.0
C      1  0.5628020000000  0.5178800000000  0.4582950000000 1.0
C      1  0.4488710000000  0.5326970000000  0.5567210000000 1.0
C      1  0.4427810000000  0.4570020000000  0.4211320000000 1.0
C      1  0.5495890000000  0.4947210000000  0.5781710000000 1.0
C      1  0.5196960000000  0.5570400000000  0.5171000000000 1.0
C      1  0.5217170000000  0.4524900000000  0.4954000000000 1.0
C      1  0.4800140000000  0.4929920000000  0.5822780000000 1.0
C      1  0.5532470000000  0.4315840000000  0.5240140000000 1.0
C      1  0.5918340000000  0.4651580000000  0.5080650000000 1.0
C      1  0.5477400000000  0.5571160000000  0.5065390000000 1.0
C      1  0.5616650000000  0.5419630000000  0.5273950000000 1.0
C      1  0.5291150000000  0.5118000000000  0.5914400000000 1.0
C      1  0.4208490000000  0.4966310000000  0.5386500000000 1.0
C      1  0.5129860000000  0.4348860000000  0.5498160000000 1.0
C      1  0.4571860000000  0.5761850000000  0.5034990000000 1.0
C      1  0.4581340000000  0.4733990000000  0.5082710000000 1.0
C      1  0.4927050000000  0.4843940000000  0.4725480000000 1.0
C      1  0.5733710000000  0.4411650000000  0.5045740000000 1.0
C      1  0.4186420000000  0.5290010000000  0.4880910000000 1.0
END
