TITL C-883737-113-188 80.6549988912582 125000 -25962.9327551777 0 0 173 (C1) n - 1
REM
REM in /home/nfs/bkarasulu/CARBON/AIRSS/Generating-Clusters/ReaxFF-fromJPCA2015/Units_Real/with-SteepDescent/Only-C1/SD-CG/Try1-3A/FIRE-CG
REM
REM
REM
REM
REM
REM ./C.cell (11c1c37f851c82e70ff6c80c92926a4b)
REM
REM compiler GCC version 9.2.1 20190827 (Red Hat 9.2.1-1)
REM options -cpp -mtune=generic -march=x86-64 -g -O0 -fpre-include=/usr/include/finclude/math-vector-fortran.h
REM seed -1363103713 1244123246 1380975566 -431185700 -143515697 -662824496 -1176298421 -1459168382 -335317022 648752959 -1873765683 -883656049 -1550837164 249913224 2088073827 242991724 -705423081 -962540503 -384835801 -1710542433 1050772577 1834649811 -1216714209 -1517247656 -23310561 -1471275711 -230272052 -1974304063 1260903654 -592030646 -702492825 -87609986 -94012703
REM
CELL 1.54180   50.00000   50.00000   50.00000   90.00000   90.00000   90.00000
LATT -1
SFAC C  
C      1  0.4600570000000  0.3986980000000  0.4987960000000 1.0
C      1  0.4841150000000  0.4182340000000  0.5747500000000 1.0
C      1  0.4759380000000  0.4423080000000  0.5346820000000 1.0
C      1  0.4329960000000  0.3950730000000  0.5072110000000 1.0
C      1  0.5762970000000  0.4185800000000  0.5371160000000 1.0
C      1  0.5120940000000  0.4164830000000  0.5787180000000 1.0
C      1  0.5545230000000  0.4780180000000  0.5451640000000 1.0
C      1  0.4424020000000  0.5860800000000  0.4932700000000 1.0
C      1  0.5716680000000  0.4382540000000  0.4872270000000 1.0
C      1  0.5022360000000  0.4266690000000  0.4899830000000 1.0
C      1  0.4567020000000  0.4968160000000  0.5445650000000 1.0
C      1  0.5662960000000  0.4136990000000  0.5628290000000 1.0
C      1  0.3917540000000  0.5220140000000  0.5496740000000 1.0
C      1  0.4949060000000  0.5494090000000  0.5903250000000 1.0
C      1  0.5468580000000  0.5264010000000  0.4639470000000 1.0
C      1  0.4122310000000  0.4527340000000  0.4639690000000 1.0
C      1  0.4646230000000  0.4102040000000  0.4454180000000 1.0
C      1  0.3979070000000  0.4749750000000  0.5317390000000 1.0
C      1  0.5652520000000  0.4215860000000  0.4429900000000 1.0
C      1  0.4372860000000  0.4943260000000  0.5996640000000 1.0
C      1  0.5501630000000  0.4792560000000  0.4880750000000 1.0
C      1  0.4354550000000  0.5328020000000  0.5820930000000 1.0
C      1  0.5901540000000  0.4572020000000  0.5074970000000 1.0
C      1  0.4157920000000  0.5173970000000  0.4401560000000 1.0
C      1  0.5733350000000  0.5341370000000  0.4735440000000 1.0
C      1  0.6013000000000  0.4900730000000  0.4675580000000 1.0
C      1  0.5701300000000  0.4624000000000  0.5633460000000 1.0
C      1  0.5723480000000  0.4829120000000  0.5242850000000 1.0
C      1  0.4143860000000  0.5510440000000  0.4705020000000 1.0
C      1  0.5055060000000  0.5490460000000  0.5252500000000 1.0
C      1  0.4304500000000  0.4462190000000  0.5130820000000 1.0
C      1  0.5572070000000  0.4898950000000  0.5975750000000 1.0
C      1  0.5975820000000  0.5176920000000  0.4761300000000 1.0
C      1  0.6073630000000  0.5223530000000  0.5033650000000 1.0
C      1  0.5437140000000  0.5966030000000  0.4862160000000 1.0
C      1  0.4668590000000  0.4549810000000  0.4598080000000 1.0
C      1  0.5191120000000  0.5962610000000  0.4705500000000 1.0
C      1  0.4382130000000  0.5838730000000  0.4455340000000 1.0
C      1  0.5915480000000  0.5432860000000  0.5172870000000 1.0
C      1  0.4673630000000  0.5213350000000  0.5060930000000 1.0
C      1  0.5227730000000  0.5747120000000  0.4177610000000 1.0
C      1  0.5470250000000  0.5651430000000  0.4041510000000 1.0
C      1  0.4940940000000  0.5661820000000  0.4865930000000 1.0
C      1  0.4206240000000  0.5203200000000  0.5409380000000 1.0
C      1  0.5256420000000  0.5562480000000  0.5930270000000 1.0
C      1  0.5735140000000  0.5796760000000  0.4604010000000 1.0
C      1  0.4138390000000  0.4513530000000  0.5375420000000 1.0
C      1  0.5239770000000  0.4446710000000  0.4814100000000 1.0
C      1  0.4351070000000  0.5080040000000  0.5605610000000 1.0
C      1  0.4655850000000  0.4383130000000  0.4356730000000 1.0
C      1  0.5090880000000  0.5033470000000  0.3928020000000 1.0
C      1  0.5184070000000  0.4551210000000  0.4302210000000 1.0
C      1  0.5314250000000  0.4940500000000  0.5525400000000 1.0
C      1  0.4341630000000  0.5614490000000  0.4272170000000 1.0
C      1  0.5308610000000  0.4993020000000  0.6044420000000 1.0
C      1  0.5693800000000  0.5544940000000  0.4177330000000 1.0
C      1  0.3984410000000  0.5005200000000  0.4561030000000 1.0
C      1  0.5554220000000  0.4065500000000  0.5163520000000 1.0
C      1  0.6077510000000  0.4770020000000  0.4936810000000 1.0
C      1  0.5892290000000  0.4812900000000  0.4422280000000 1.0
C      1  0.4896770000000  0.4792900000000  0.3845170000000 1.0
C      1  0.5474290000000  0.4060530000000  0.4619520000000 1.0
C      1  0.5992230000000  0.4913240000000  0.5407940000000 1.0
C      1  0.4787350000000  0.4620080000000  0.4050240000000 1.0
C      1  0.5110740000000  0.4259760000000  0.4317230000000 1.0
C      1  0.5703350000000  0.5833220000000  0.4873710000000 1.0
C      1  0.4612060000000  0.4811010000000  0.6043260000000 1.0
C      1  0.4848840000000  0.4667720000000  0.6022550000000 1.0
C      1  0.5065140000000  0.4913670000000  0.5396560000000 1.0
C      1  0.4558030000000  0.5484140000000  0.4131590000000 1.0
C      1  0.5728180000000  0.4468720000000  0.4567170000000 1.0
C      1  0.5130610000000  0.5891470000000  0.4419490000000 1.0
C      1  0.5280520000000  0.4593300000000  0.4576480000000 1.0
C      1  0.5040030000000  0.4514040000000  0.5355070000000 1.0
C      1  0.4785600000000  0.4001460000000  0.5229980000000 1.0
C      1  0.4997170000000  0.5043610000000  0.4840910000000 1.0
C      1  0.4597830000000  0.5176720000000  0.4136310000000 1.0
C      1  0.4722880000000  0.5698830000000  0.5782110000000 1.0
C      1  0.5971630000000  0.4631210000000  0.5522300000000 1.0
C      1  0.4146350000000  0.5459480000000  0.4428440000000 1.0
C      1  0.4733640000000  0.4791420000000  0.4503630000000 1.0
C      1  0.5529700000000  0.5181450000000  0.4111880000000 1.0
C      1  0.4265080000000  0.4174990000000  0.5159640000000 1.0
C      1  0.4130890000000  0.4539380000000  0.4394410000000 1.0
C      1  0.3960500000000  0.4804150000000  0.5017700000000 1.0
C      1  0.5228720000000  0.5235950000000  0.4864330000000 1.0
C      1  0.5755640000000  0.5101640000000  0.5836640000000 1.0
C      1  0.5135480000000  0.5993420000000  0.5273720000000 1.0
C      1  0.4782660000000  0.4538630000000  0.4878610000000 1.0
C      1  0.4017450000000  0.4783340000000  0.4327730000000 1.0
C      1  0.4992570000000  0.4059360000000  0.4719930000000 1.0
C      1  0.4696840000000  0.5801310000000  0.5514540000000 1.0
C      1  0.5626080000000  0.5647290000000  0.5533370000000 1.0
C      1  0.4879400000000  0.5091000000000  0.5790010000000 1.0
C      1  0.4239480000000  0.4565330000000  0.5649820000000 1.0
C      1  0.5558420000000  0.4623210000000  0.5888640000000 1.0
C      1  0.5210520000000  0.5901360000000  0.5545170000000 1.0
C      1  0.4094550000000  0.4577580000000  0.4901600000000 1.0
C      1  0.5541470000000  0.4713230000000  0.4606220000000 1.0
C      1  0.4749400000000  0.5178310000000  0.4784810000000 1.0
C      1  0.5950370000000  0.4424270000000  0.5325300000000 1.0
C      1  0.5393030000000  0.5227750000000  0.4377180000000 1.0
C      1  0.5298620000000  0.4043580000000  0.5283970000000 1.0
C      1  0.5194550000000  0.4079520000000  0.4526040000000 1.0
C      1  0.4443810000000  0.5116410000000  0.4382720000000 1.0
C      1  0.6134450000000  0.4962720000000  0.5142830000000 1.0
C      1  0.5879120000000  0.5165020000000  0.5580760000000 1.0
C      1  0.4676420000000  0.5976920000000  0.4817850000000 1.0
C      1  0.5371780000000  0.5705550000000  0.5694660000000 1.0
C      1  0.5091280000000  0.5252880000000  0.4325210000000 1.0
C      1  0.5430420000000  0.4692210000000  0.4143760000000 1.0
C      1  0.5557790000000  0.5306890000000  0.5812130000000 1.0
C      1  0.5604180000000  0.4100440000000  0.4882970000000 1.0
C      1  0.3960010000000  0.5034890000000  0.4839690000000 1.0
C      1  0.4564580000000  0.5624670000000  0.5319560000000 1.0
C      1  0.4612090000000  0.4499220000000  0.5115470000000 1.0
C      1  0.5044480000000  0.5294840000000  0.5704750000000 1.0
C      1  0.4842580000000  0.4198420000000  0.4274610000000 1.0
C      1  0.5717020000000  0.5672130000000  0.4392250000000 1.0
C      1  0.5427370000000  0.5385970000000  0.3913500000000 1.0
C      1  0.4775990000000  0.5251350000000  0.6004730000000 1.0
C      1  0.4222030000000  0.4823080000000  0.4133610000000 1.0
C      1  0.4640410000000  0.5951220000000  0.4526310000000 1.0
C      1  0.5332760000000  0.4160990000000  0.5582860000000 1.0
C      1  0.4102540000000  0.5314130000000  0.4928130000000 1.0
C      1  0.4067880000000  0.5557950000000  0.5133340000000 1.0
C      1  0.5052080000000  0.4073180000000  0.5144230000000 1.0
C      1  0.4706370000000  0.4422910000000  0.5891840000000 1.0
C      1  0.5146780000000  0.5497940000000  0.4978870000000 1.0
C      1  0.4788440000000  0.5654640000000  0.4132880000000 1.0
C      1  0.4911930000000  0.4777070000000  0.4282540000000 1.0
C      1  0.5388080000000  0.4940880000000  0.4018520000000 1.0
C      1  0.4486190000000  0.5208960000000  0.6054950000000 1.0
C      1  0.5307650000000  0.5227720000000  0.5590480000000 1.0
C      1  0.4595530000000  0.5003850000000  0.4597030000000 1.0
C      1  0.5143160000000  0.5333410000000  0.3884220000000 1.0
C      1  0.4852260000000  0.5867140000000  0.4342110000000 1.0
C      1  0.4421240000000  0.4952780000000  0.3989720000000 1.0
C      1  0.4755380000000  0.5425490000000  0.5233160000000 1.0
C      1  0.3951870000000  0.4925540000000  0.5546080000000 1.0
C      1  0.4961910000000  0.5955680000000  0.4902160000000 1.0
C      1  0.5128850000000  0.4763170000000  0.5985280000000 1.0
C      1  0.4271480000000  0.5176590000000  0.5143540000000 1.0
C      1  0.5071720000000  0.4740310000000  0.5192670000000 1.0
C      1  0.4259070000000  0.5770310000000  0.4710620000000 1.0
C      1  0.5043540000000  0.5569490000000  0.4024620000000 1.0
C      1  0.4950420000000  0.5375910000000  0.4497980000000 1.0
C      1  0.4803620000000  0.5488710000000  0.4668460000000 1.0
C      1  0.5559290000000  0.5818750000000  0.5334170000000 1.0
C      1  0.4473830000000  0.4478930000000  0.5766230000000 1.0
C      1  0.4918780000000  0.5058110000000  0.4171700000000 1.0
C      1  0.4961400000000  0.4785440000000  0.4944160000000 1.0
C      1  0.5395020000000  0.5198710000000  0.5105660000000 1.0
C      1  0.4727910000000  0.4158030000000  0.5470320000000 1.0
C      1  0.4497830000000  0.5554280000000  0.5764300000000 1.0
C      1  0.4722260000000  0.4000060000000  0.4712460000000 1.0
C      1  0.4991500000000  0.5781040000000  0.5405640000000 1.0
C      1  0.5820280000000  0.5412820000000  0.5448250000000 1.0
C      1  0.5589300000000  0.4995460000000  0.5062190000000 1.0
C      1  0.4611900000000  0.4766400000000  0.3856520000000 1.0
C      1  0.5357370000000  0.5299580000000  0.6019090000000 1.0
C      1  0.5242100000000  0.4466620000000  0.5560130000000 1.0
C      1  0.5464490000000  0.4524550000000  0.4964880000000 1.0
C      1  0.4327650000000  0.5708410000000  0.5159420000000 1.0
C      1  0.4165460000000  0.4851480000000  0.5741070000000 1.0
C      1  0.5403110000000  0.5980750000000  0.5161990000000 1.0
C      1  0.5273400000000  0.4544810000000  0.5845710000000 1.0
C      1  0.4502280000000  0.5019380000000  0.5170540000000 1.0
C      1  0.5290530000000  0.5340060000000  0.5325660000000 1.0
C      1  0.4824740000000  0.4940560000000  0.5547620000000 1.0
C      1  0.3900420000000  0.5441150000000  0.5326870000000 1.0
C      1  0.5764820000000  0.5549760000000  0.4946510000000 1.0
C      1  0.5698440000000  0.4741900000000  0.4230770000000 1.0
END
