TITL C-884135-4325-272 7.94539356408026 125000 -8291.65728239631 0 0 57 (C1) n - 1
REM
REM in /home/nfs/bkarasulu/CARBON/AIRSS/Generating-Clusters/ReaxFF-fromJPCA2015/Units_Real/with-SteepDescent/Only-C1/SD-CG/Try1-3A/FIRE-CG
REM
REM
REM
REM
REM
REM ./C.cell (11c1c37f851c82e70ff6c80c92926a4b)
REM
REM compiler GCC version 9.2.1 20190827 (Red Hat 9.2.1-1)
REM options -cpp -mtune=generic -march=x86-64 -g -O0 -fpre-include=/usr/include/finclude/math-vector-fortran.h
REM seed 2035810741 -508242697 -631647448 870927415 -1041341028 -1692956163 -375149627 -1147403522 -1062536985 1084422642 589405785 -2079335551 -1559215614 1201622280 -1660215072 1472432707 826181653 230160293 -897627917 -236527617 -1512826738 317531093 1114239535 -1457823902 928436221 -1439517657 -1940038525 -1396528646 -1029078287 497446681 86875189 -1621058406 -1258372474
REM
CELL 1.54180   50.00000   50.00000   50.00000   90.00000   90.00000   90.00000
LATT -1
SFAC C  
C      1  0.5226520000000  0.5127150000000  0.5223870000000 1.0
C      1  0.4771350000000  0.4933380000000  0.5188000000000 1.0
C      1  0.4401290000000  0.5208420000000  0.5388300000000 1.0
C      1  0.4619040000000  0.5226210000000  0.4494610000000 1.0
C      1  0.5311250000000  0.5321810000000  0.4730710000000 1.0
C      1  0.4492080000000  0.5033120000000  0.5628090000000 1.0
C      1  0.4920100000000  0.5768120000000  0.5166280000000 1.0
C      1  0.5121130000000  0.4544980000000  0.4712630000000 1.0
C      1  0.5698150000000  0.5029380000000  0.4682260000000 1.0
C      1  0.5188180000000  0.4800520000000  0.4241480000000 1.0
C      1  0.5736100000000  0.5001520000000  0.5169790000000 1.0
C      1  0.4288520000000  0.5106640000000  0.5146580000000 1.0
C      1  0.5003630000000  0.4864620000000  0.5751320000000 1.0
C      1  0.4661060000000  0.4539300000000  0.5619780000000 1.0
C      1  0.4851900000000  0.5571830000000  0.5378390000000 1.0
C      1  0.5150120000000  0.5073650000000  0.4736520000000 1.0
C      1  0.4849320000000  0.4423580000000  0.5018980000000 1.0
C      1  0.5689500000000  0.5284730000000  0.5087660000000 1.0
C      1  0.4496200000000  0.5016900000000  0.4667540000000 1.0
C      1  0.5561510000000  0.4838250000000  0.5350610000000 1.0
C      1  0.5049560000000  0.5406600000000  0.4305000000000 1.0
C      1  0.4810250000000  0.5211890000000  0.5187390000000 1.0
C      1  0.5516990000000  0.4873390000000  0.4513450000000 1.0
C      1  0.4895750000000  0.5620810000000  0.4705830000000 1.0
C      1  0.5289330000000  0.5272090000000  0.4224020000000 1.0
C      1  0.5390780000000  0.4659410000000  0.4677770000000 1.0
C      1  0.5167490000000  0.5568590000000  0.4803060000000 1.0
C      1  0.5416930000000  0.4994670000000  0.4258200000000 1.0
C      1  0.4423330000000  0.4669500000000  0.4990770000000 1.0
C      1  0.5766990000000  0.4862580000000  0.4910540000000 1.0
C      1  0.4617460000000  0.5409490000000  0.5283690000000 1.0
C      1  0.4822190000000  0.4598890000000  0.4643250000000 1.0
C      1  0.5077900000000  0.4566070000000  0.5365140000000 1.0
C      1  0.4636220000000  0.4508460000000  0.4847610000000 1.0
C      1  0.4568270000000  0.5581660000000  0.5083430000000 1.0
C      1  0.5057950000000  0.5360920000000  0.5254730000000 1.0
C      1  0.5506340000000  0.4597150000000  0.5184230000000 1.0
C      1  0.4652790000000  0.4809270000000  0.4522570000000 1.0
C      1  0.5362600000000  0.5011590000000  0.5443920000000 1.0
C      1  0.5238100000000  0.4892860000000  0.5603360000000 1.0
C      1  0.4520620000000  0.4786510000000  0.5214800000000 1.0
C      1  0.4752980000000  0.4997520000000  0.5707850000000 1.0
C      1  0.4738320000000  0.5736830000000  0.4927990000000 1.0
C      1  0.5049540000000  0.4963180000000  0.4462950000000 1.0
C      1  0.5151400000000  0.5610440000000  0.5088000000000 1.0
C      1  0.5275670000000  0.4424740000000  0.5209950000000 1.0
C      1  0.4813730000000  0.5449650000000  0.4486420000000 1.0
C      1  0.5596300000000  0.5280880000000  0.4800040000000 1.0
C      1  0.5124190000000  0.4375740000000  0.4951720000000 1.0
C      1  0.4473780000000  0.4582690000000  0.5392470000000 1.0
C      1  0.5142940000000  0.4961470000000  0.5001450000000 1.0
C      1  0.4951720000000  0.4588600000000  0.5627260000000 1.0
C      1  0.4775380000000  0.5017290000000  0.4356350000000 1.0
C      1  0.4972550000000  0.4726450000000  0.5128300000000 1.0
C      1  0.5580110000000  0.4638340000000  0.4904690000000 1.0
C      1  0.4445600000000  0.4732980000000  0.5649430000000 1.0
C      1  0.4331020000000  0.4936690000000  0.4898970000000 1.0
END
