TITL C-884132-5695-49 2629730.17912536 125000 -24651.7963576243 0 0 166 (C1) n - 1
REM
REM in /home/nfs/bkarasulu/CARBON/AIRSS/Generating-Clusters/ReaxFF-fromJPCA2015/Units_Real/with-SteepDescent/Only-C1/SD-CG/Try1-3A/FIRE-CG
REM
REM
REM
REM
REM
REM ./C.cell (11c1c37f851c82e70ff6c80c92926a4b)
REM
REM compiler GCC version 9.2.1 20190827 (Red Hat 9.2.1-1)
REM options -cpp -mtune=generic -march=x86-64 -g -O0 -fpre-include=/usr/include/finclude/math-vector-fortran.h
REM seed -1157654292 -1893345056 -743033910 -1945052814 856452801 1806332130 -955221894 226877538 788778689 -587546398 1102522004 -818728952 -1683391086 261545468 1453646369 -1845318046 -266933262 -78530362 -441880317 470376716 613270945 1053316043 449432029 1231035501 16125171 -550006044 1376399540 -2030338343 816561616 -474822778 1723990493 2079808701 -179199821
REM
CELL 1.54180   50.00000   50.00000   50.00000   90.00000   90.00000   90.00000
LATT -1
SFAC C  
C      1  0.5536710000000  0.5185520000000  0.4412070000000 1.0
C      1  0.5826740000000  0.5500430000000  0.5367470000000 1.0
C      1  0.4625510000000  0.5452240000000  0.5827660000000 1.0
C      1  0.5358310000000  0.5157580000000  0.5585570000000 1.0
C      1  0.5800380000000  0.4521890000000  0.5114160000000 1.0
C      1  0.4968530000000  0.4672740000000  0.4543390000000 1.0
C      1  0.5368460000000  0.4992940000000  0.4648730000000 1.0
C      1  0.6101960000000  0.4865810000000  0.4828890000000 1.0
C      1  0.4855230000000  0.4656970000000  0.6059940000000 1.0
C      1  0.5947020000000  0.4916060000000  0.4592510000000 1.0
C      1  0.4313910000000  0.5575100000000  0.4443930000000 1.0
C      1  0.4413740000000  0.5749640000000  0.4859990000000 1.0
C      1  0.5613230000000  0.5682400000000  0.5449310000000 1.0
C      1  0.4184440000000  0.5321580000000  0.4363940000000 1.0
C      1  0.5496610000000  0.5462350000000  0.4339230000000 1.0
C      1  0.5488600000000  0.4177170000000  0.5439040000000 1.0
C      1  0.5064060000000  0.4558770000000  0.4803010000000 1.0
C      1  0.4282400000000  0.5088400000000  0.4218620000000 1.0
C      1  0.5356050000000  0.4545270000000  0.4827020000000 1.0
C      1  0.5643980000000  0.4017260000000  0.4692260000000 1.0
C      1  0.5375850000000  0.3953780000000  0.4668940000000 1.0
C      1  0.5820890000000  0.4813180000000  0.5503920000000 1.0
C      1  0.5077100000000  0.5854110000000  0.5640450000000 1.0
C      1  0.5275290000000  0.4289520000000  0.5593910000000 1.0
C      1  0.4047820000000  0.4809060000000  0.5435480000000 1.0
C      1  0.5798870000000  0.5207060000000  0.5347930000000 1.0
C      1  0.5966870000000  0.5463230000000  0.4429690000000 1.0
C      1  0.4576150000000  0.5605480000000  0.5052690000000 1.0
C      1  0.4283960000000  0.5368600000000  0.4612800000000 1.0
C      1  0.5112400000000  0.4686720000000  0.4043860000000 1.0
C      1  0.4197480000000  0.4845970000000  0.5682020000000 1.0
C      1  0.4020900000000  0.4520500000000  0.4675110000000 1.0
C      1  0.5330890000000  0.5450580000000  0.5120640000000 1.0
C      1  0.5697200000000  0.5071980000000  0.5578100000000 1.0
C      1  0.4370820000000  0.5314040000000  0.5396200000000 1.0
C      1  0.5582310000000  0.5356000000000  0.5878610000000 1.0
C      1  0.4410290000000  0.4413630000000  0.5540360000000 1.0
C      1  0.4295520000000  0.4903770000000  0.4751430000000 1.0
C      1  0.5514650000000  0.5603370000000  0.5715410000000 1.0
C      1  0.4047200000000  0.4933110000000  0.4893900000000 1.0
C      1  0.5703440000000  0.4435870000000  0.4434300000000 1.0
C      1  0.4972780000000  0.5529450000000  0.4522130000000 1.0
C      1  0.4974850000000  0.4689920000000  0.5043710000000 1.0
C      1  0.5262600000000  0.5317410000000  0.5370380000000 1.0
C      1  0.4782820000000  0.5942760000000  0.5610610000000 1.0
C      1  0.4950950000000  0.4917450000000  0.3977140000000 1.0
C      1  0.3981810000000  0.4655590000000  0.4948290000000 1.0
C      1  0.5929780000000  0.4778800000000  0.5244570000000 1.0
C      1  0.5692510000000  0.4632190000000  0.5676850000000 1.0
C      1  0.4723410000000  0.4848840000000  0.4494580000000 1.0
C      1  0.4008210000000  0.5437160000000  0.5036230000000 1.0
C      1  0.3947070000000  0.5151360000000  0.5083360000000 1.0
C      1  0.4432580000000  0.5178630000000  0.5027050000000 1.0
C      1  0.4605350000000  0.5459270000000  0.4090410000000 1.0
C      1  0.4533370000000  0.6034600000000  0.5140610000000 1.0
C      1  0.4583080000000  0.4522350000000  0.4867590000000 1.0
C      1  0.4687650000000  0.4265310000000  0.5875640000000 1.0
C      1  0.4967090000000  0.5477770000000  0.4794230000000 1.0
C      1  0.5568160000000  0.4807980000000  0.5872540000000 1.0
C      1  0.5173420000000  0.4868650000000  0.4496400000000 1.0
C      1  0.5023440000000  0.5878660000000  0.5057490000000 1.0
C      1  0.5949250000000  0.4379540000000  0.4857190000000 1.0
C      1  0.4833810000000  0.5241270000000  0.5173370000000 1.0
C      1  0.4725250000000  0.5698230000000  0.4234690000000 1.0
C      1  0.4270890000000  0.4068520000000  0.4850230000000 1.0
C      1  0.5685610000000  0.5081340000000  0.5858980000000 1.0
C      1  0.5767250000000  0.5313710000000  0.4817970000000 1.0
C      1  0.5794290000000  0.4256660000000  0.4640020000000 1.0
C      1  0.5232790000000  0.5975100000000  0.4533590000000 1.0
C      1  0.4096810000000  0.5662490000000  0.5206730000000 1.0
C      1  0.5093570000000  0.5446630000000  0.4008370000000 1.0
C      1  0.3933640000000  0.5072540000000  0.5365110000000 1.0
C      1  0.5505370000000  0.3951000000000  0.4926850000000 1.0
C      1  0.5736100000000  0.5623870000000  0.4462160000000 1.0
C      1  0.5263110000000  0.5577080000000  0.4202570000000 1.0
C      1  0.4639010000000  0.4191060000000  0.5112260000000 1.0
C      1  0.4944000000000  0.4394890000000  0.5956360000000 1.0
C      1  0.4866000000000  0.5331660000000  0.5928350000000 1.0
C      1  0.4881640000000  0.5022760000000  0.5843360000000 1.0
C      1  0.5257640000000  0.5703120000000  0.5826560000000 1.0
C      1  0.5097300000000  0.5171390000000  0.3889960000000 1.0
C      1  0.5540060000000  0.5833420000000  0.5192550000000 1.0
C      1  0.5733230000000  0.5754100000000  0.4990060000000 1.0
C      1  0.5000330000000  0.5607090000000  0.5534640000000 1.0
C      1  0.4679980000000  0.4437230000000  0.4184340000000 1.0
C      1  0.4840070000000  0.4752750000000  0.5474430000000 1.0
C      1  0.4759250000000  0.5990010000000  0.4953280000000 1.0
C      1  0.4266850000000  0.4780410000000  0.4239800000000 1.0
C      1  0.5307320000000  0.5250960000000  0.5862100000000 1.0
C      1  0.5806530000000  0.4393350000000  0.5326730000000 1.0
C      1  0.5115330000000  0.5608870000000  0.4997050000000 1.0
C      1  0.4458310000000  0.4686870000000  0.4634400000000 1.0
C      1  0.5195040000000  0.4299470000000  0.4359400000000 1.0
C      1  0.4964080000000  0.4571180000000  0.5310870000000 1.0
C      1  0.5509940000000  0.4598000000000  0.5066990000000 1.0
C      1  0.4619560000000  0.5903130000000  0.4710670000000 1.0
C      1  0.4443000000000  0.4405130000000  0.5954430000000 1.0
C      1  0.5701730000000  0.5809760000000  0.4705430000000 1.0
C      1  0.4611100000000  0.4215300000000  0.5583340000000 1.0
C      1  0.4429510000000  0.4674560000000  0.5765120000000 1.0
C      1  0.5932190000000  0.5550320000000  0.5099540000000 1.0
C      1  0.4733650000000  0.5094560000000  0.4648300000000 1.0
C      1  0.4247570000000  0.4382870000000  0.5303270000000 1.0
C      1  0.4263660000000  0.5872110000000  0.5088480000000 1.0
C      1  0.4169270000000  0.5128310000000  0.5770990000000 1.0
C      1  0.4565970000000  0.5121180000000  0.5272600000000 1.0
C      1  0.5041260000000  0.4286790000000  0.5364880000000 1.0
C      1  0.6169870000000  0.4563950000000  0.4829950000000 1.0
C      1  0.4671230000000  0.4745530000000  0.5023410000000 1.0
C      1  0.4996960000000  0.4149960000000  0.4843250000000 1.0
C      1  0.5438020000000  0.4849540000000  0.5175660000000 1.0
C      1  0.5020630000000  0.5275530000000  0.4413370000000 1.0
C      1  0.4529960000000  0.5179520000000  0.4119840000000 1.0
C      1  0.5462380000000  0.4973750000000  0.4160950000000 1.0
C      1  0.5526030000000  0.5296900000000  0.4968360000000 1.0
C      1  0.5303550000000  0.4703090000000  0.5930790000000 1.0
C      1  0.4839200000000  0.5566370000000  0.4008940000000 1.0
C      1  0.5443310000000  0.4433040000000  0.4291390000000 1.0
C      1  0.5338300000000  0.5026640000000  0.3908780000000 1.0
C      1  0.5104690000000  0.5760340000000  0.4379840000000 1.0
C      1  0.4220230000000  0.4600470000000  0.4463930000000 1.0
C      1  0.4755300000000  0.4040330000000  0.4535190000000 1.0
C      1  0.4664220000000  0.4227290000000  0.4357370000000 1.0
C      1  0.5815490000000  0.5193370000000  0.4561620000000 1.0
C      1  0.5296550000000  0.6087530000000  0.4806480000000 1.0
C      1  0.4249860000000  0.5349020000000  0.4896180000000 1.0
C      1  0.5134840000000  0.4102620000000  0.4580480000000 1.0
C      1  0.5745650000000  0.4713650000000  0.4526650000000 1.0
C      1  0.4920360000000  0.5203170000000  0.4844130000000 1.0
C      1  0.6030160000000  0.5009400000000  0.5081420000000 1.0
C      1  0.4517820000000  0.4679420000000  0.4132830000000 1.0
C      1  0.5069730000000  0.4847450000000  0.6024710000000 1.0
C      1  0.4399180000000  0.5289700000000  0.5826790000000 1.0
C      1  0.4696410000000  0.4924690000000  0.4154060000000 1.0
C      1  0.4632670000000  0.4811230000000  0.5303160000000 1.0
C      1  0.5168320000000  0.4920670000000  0.5096790000000 1.0
C      1  0.4734650000000  0.5512020000000  0.5248280000000 1.0
C      1  0.5052640000000  0.5120230000000  0.5328260000000 1.0
C      1  0.5977260000000  0.5285940000000  0.4986610000000 1.0
C      1  0.5506430000000  0.4749440000000  0.4685500000000 1.0
C      1  0.4067070000000  0.4600580000000  0.5227020000000 1.0
C      1  0.4675600000000  0.6010780000000  0.5365160000000 1.0
C      1  0.5394590000000  0.4087880000000  0.5155710000000 1.0
C      1  0.5207770000000  0.4429610000000  0.5839240000000 1.0
C      1  0.4761180000000  0.4305770000000  0.4878930000000 1.0
C      1  0.5512330000000  0.6013750000000  0.4621470000000 1.0
C      1  0.5668440000000  0.4367280000000  0.5544240000000 1.0
C      1  0.5600750000000  0.5093890000000  0.5163680000000 1.0
C      1  0.4158610000000  0.5492900000000  0.5452170000000 1.0
C      1  0.4109000000000  0.4284750000000  0.4789000000000 1.0
C      1  0.5117010000000  0.5460850000000  0.5941340000000 1.0
C      1  0.4996170000000  0.4960420000000  0.5570390000000 1.0
C      1  0.4713930000000  0.5633680000000  0.5570400000000 1.0
C      1  0.4664540000000  0.4809320000000  0.5906130000000 1.0
C      1  0.4567700000000  0.5726860000000  0.4478180000000 1.0
C      1  0.5170510000000  0.5053550000000  0.4846100000000 1.0
C      1  0.4540270000000  0.5004360000000  0.4848060000000 1.0
C      1  0.3995180000000  0.5270910000000  0.5572390000000 1.0
C      1  0.5390480000000  0.4673900000000  0.4120570000000 1.0
C      1  0.5123610000000  0.4134240000000  0.5109510000000 1.0
C      1  0.4505170000000  0.3989760000000  0.4657290000000 1.0
C      1  0.5151960000000  0.5071510000000  0.4305990000000 1.0
C      1  0.4785690000000  0.4139380000000  0.5360500000000 1.0
C      1  0.4984210000000  0.4482580000000  0.4251320000000 1.0
C      1  0.5301410000000  0.5977630000000  0.5081840000000 1.0
C      1  0.4344130000000  0.4167610000000  0.5117720000000 1.0
END
