TITL C-884130-5973-471 3.43686357128374 125000 -11674.7674048232 0 0 79 (C1) n - 1
REM
REM in /home/nfs/bkarasulu/CARBON/AIRSS/Generating-Clusters/ReaxFF-fromJPCA2015/Units_Real/with-SteepDescent/Only-C1/SD-CG/Try1-3A/FIRE-CG
REM
REM
REM
REM
REM
REM ./C.cell (11c1c37f851c82e70ff6c80c92926a4b)
REM
REM compiler GCC version 9.2.1 20190827 (Red Hat 9.2.1-1)
REM options -cpp -mtune=generic -march=x86-64 -g -O0 -fpre-include=/usr/include/finclude/math-vector-fortran.h
REM seed 1944583405 -942574162 1990168367 1902896087 -2121879825 -182297345 -2009557593 -698656015 575015838 713651674 1527233225 1719843334 -1506524096 -424123917 -1512927542 263411180 592038401 554136937 -857756058 -73286148 1843091071 -1115015290 86035814 -13119789 -1756853987 -925116109 905339966 255951800 1112540025 -402647751 -1300348457 380072101 580288992
REM
CELL 1.54180   50.00000   50.00000   50.00000   90.00000   90.00000   90.00000
LATT -1
SFAC C  
C      1  0.5517460000000  0.5163430000000  0.5549530000000 1.0
C      1  0.4290320000000  0.4430980000000  0.4823090000000 1.0
C      1  0.5865140000000  0.4815340000000  0.5037370000000 1.0
C      1  0.4604200000000  0.4831710000000  0.5143190000000 1.0
C      1  0.4341020000000  0.5562300000000  0.5178410000000 1.0
C      1  0.5234500000000  0.5664300000000  0.5207860000000 1.0
C      1  0.5745540000000  0.4563720000000  0.4990420000000 1.0
C      1  0.4944310000000  0.5552430000000  0.5633290000000 1.0
C      1  0.5166210000000  0.4765980000000  0.4844510000000 1.0
C      1  0.5463700000000  0.4972790000000  0.4461470000000 1.0
C      1  0.5054370000000  0.5493900000000  0.4520250000000 1.0
C      1  0.5680920000000  0.5331600000000  0.5129930000000 1.0
C      1  0.4189600000000  0.4622180000000  0.4991910000000 1.0
C      1  0.5361780000000  0.4318630000000  0.5266000000000 1.0
C      1  0.5049730000000  0.4824270000000  0.5664720000000 1.0
C      1  0.4849990000000  0.5150310000000  0.4785690000000 1.0
C      1  0.5125310000000  0.4189660000000  0.5310000000000 1.0
C      1  0.4807500000000  0.4296810000000  0.4815990000000 1.0
C      1  0.4868520000000  0.5039640000000  0.5755050000000 1.0
C      1  0.5018320000000  0.5072740000000  0.5233310000000 1.0
C      1  0.5184450000000  0.5576840000000  0.5483220000000 1.0
C      1  0.4325540000000  0.4634590000000  0.4604530000000 1.0
C      1  0.4334930000000  0.5122750000000  0.4794150000000 1.0
C      1  0.5011130000000  0.5730120000000  0.5022170000000 1.0
C      1  0.5745730000000  0.5151690000000  0.5384510000000 1.0
C      1  0.4200760000000  0.4814770000000  0.5185780000000 1.0
C      1  0.4944320000000  0.4492360000000  0.4987300000000 1.0
C      1  0.4800760000000  0.5829660000000  0.5206340000000 1.0
C      1  0.5489200000000  0.5357940000000  0.4682650000000 1.0
C      1  0.5019050000000  0.4834160000000  0.4349400000000 1.0
C      1  0.5509930000000  0.5565060000000  0.5234380000000 1.0
C      1  0.5087460000000  0.5250040000000  0.4682180000000 1.0
C      1  0.4583670000000  0.5289010000000  0.4688490000000 1.0
C      1  0.5722750000000  0.5275320000000  0.4828130000000 1.0
C      1  0.5699150000000  0.4855800000000  0.4595050000000 1.0
C      1  0.5202040000000  0.4847390000000  0.5287240000000 1.0
C      1  0.4728130000000  0.5066200000000  0.5252560000000 1.0
C      1  0.4721460000000  0.4798050000000  0.4378940000000 1.0
C      1  0.5202680000000  0.5262560000000  0.5117360000000 1.0
C      1  0.4509740000000  0.5009350000000  0.4366750000000 1.0
C      1  0.5130250000000  0.5165710000000  0.4281580000000 1.0
C      1  0.4920630000000  0.5651850000000  0.4748410000000 1.0
C      1  0.4301780000000  0.4939430000000  0.4573500000000 1.0
C      1  0.4593540000000  0.4378470000000  0.5212480000000 1.0
C      1  0.5257070000000  0.5369670000000  0.4857020000000 1.0
C      1  0.4904290000000  0.5348290000000  0.4308550000000 1.0
C      1  0.4803540000000  0.5311100000000  0.5658710000000 1.0
C      1  0.4508680000000  0.5808400000000  0.5163800000000 1.0
C      1  0.4630890000000  0.5266130000000  0.4384000000000 1.0
C      1  0.5696050000000  0.4573590000000  0.4698110000000 1.0
C      1  0.4884220000000  0.4421200000000  0.5278740000000 1.0
C      1  0.5827530000000  0.5005550000000  0.4805390000000 1.0
C      1  0.5368760000000  0.4882440000000  0.5541180000000 1.0
C      1  0.5441390000000  0.5441620000000  0.5491450000000 1.0
C      1  0.5044000000000  0.4513500000000  0.4354750000000 1.0
C      1  0.5483640000000  0.4446820000000  0.4569480000000 1.0
C      1  0.4733570000000  0.4709840000000  0.4905690000000 1.0
C      1  0.4608190000000  0.4690610000000  0.5583750000000 1.0
C      1  0.5592720000000  0.4708190000000  0.5432530000000 1.0
C      1  0.4824690000000  0.5788040000000  0.5502710000000 1.0
C      1  0.5444020000000  0.5123040000000  0.5111960000000 1.0
C      1  0.4367900000000  0.5291150000000  0.5268170000000 1.0
C      1  0.4587050000000  0.5200720000000  0.5494690000000 1.0
C      1  0.4595980000000  0.4955250000000  0.5696180000000 1.0
C      1  0.4534240000000  0.4298390000000  0.4946120000000 1.0
C      1  0.4270420000000  0.5089430000000  0.5076400000000 1.0
C      1  0.4459590000000  0.4635240000000  0.5317900000000 1.0
C      1  0.4914420000000  0.4900040000000  0.4865960000000 1.0
C      1  0.5805640000000  0.4874900000000  0.5324470000000 1.0
C      1  0.5282280000000  0.4405250000000  0.4459890000000 1.0
C      1  0.4610590000000  0.4657320000000  0.4604440000000 1.0
C      1  0.4639870000000  0.5590350000000  0.4747680000000 1.0
C      1  0.4883750000000  0.4627510000000  0.5540540000000 1.0
C      1  0.5202310000000  0.4895550000000  0.4581270000000 1.0
C      1  0.5583470000000  0.4489410000000  0.5237940000000 1.0
C      1  0.5368500000000  0.4850570000000  0.5048160000000 1.0
C      1  0.5378250000000  0.5256490000000  0.4412300000000 1.0
C      1  0.4427260000000  0.5690110000000  0.4915780000000 1.0
C      1  0.4887700000000  0.4322410000000  0.4525220000000 1.0
END
