TITL C-884136-4169-160 9.29925925279625e-09 125000 -2135.18364605204 0 0 16 (Cs) n - 1
REM
REM in /home/nfs/bkarasulu/CARBON/AIRSS/Generating-Clusters/ReaxFF-fromJPCA2015/Units_Real/with-SteepDescent/Only-C1/SD-CG/Try1-3A/FIRE-CG
REM
REM
REM
REM
REM
REM ./C.cell (11c1c37f851c82e70ff6c80c92926a4b)
REM
REM compiler GCC version 9.2.1 20190827 (Red Hat 9.2.1-1)
REM options -cpp -mtune=generic -march=x86-64 -g -O0 -fpre-include=/usr/include/finclude/math-vector-fortran.h
REM seed 1317534890 1264009139 2061528692 1731970131 -1430273515 430058921 1406092012 -447561661 1465202634 686474240 -2078627402 -492810828 -113978165 -2143532044 -1886009327 1726493708 1862249323 -815064310 817416852 -299307269 606713794 -2066185876 762081236 899456970 510479870 311179047 -1106265 1477584158 -2045143561 -336398673 1519396512 -1926827719 -1189665592
REM
CELL 1.54180   50.00000   50.00000   50.00000   90.00000   90.00000   90.00000
LATT -1
SFAC C  
C      1  0.5233230000000  0.5186280000000  0.4658950000000 1.0
C      1  0.4928700000000  0.4862910000000  0.4885240000000 1.0
C      1  0.4813340000000  0.4797880000000  0.5128010000000 1.0
C      1  0.5099210000000  0.5100050000000  0.4911820000000 1.0
C      1  0.4907800000000  0.4730790000000  0.4600370000000 1.0
C      1  0.5237010000000  0.5090130000000  0.4382440000000 1.0
C      1  0.5042480000000  0.4728210000000  0.4102440000000 1.0
C      1  0.5037070000000  0.5381650000000  0.5907840000000 1.0
C      1  0.4983760000000  0.5240680000000  0.5716910000000 1.0
C      1  0.5124040000000  0.5231140000000  0.5179550000000 1.0
C      1  0.4754200000000  0.4548570000000  0.4662250000000 1.0
C      1  0.4962670000000  0.5118150000000  0.5458920000000 1.0
C      1  0.5273880000000  0.5436410000000  0.5194370000000 1.0
C      1  0.4803190000000  0.4930290000000  0.5526820000000 1.0
C      1  0.4736490000000  0.4777970000000  0.5353700000000 1.0
C      1  0.5062930000000  0.4838890000000  0.4330360000000 1.0
END
