TITL C-883731-9874-320 17.4732996453605 125000 -17300.8639696322 0 0 117 (C1) n - 1
REM
REM in /home/nfs/bkarasulu/CARBON/AIRSS/Generating-Clusters/ReaxFF-fromJPCA2015/Units_Real/with-SteepDescent/Only-C1/SD-CG/Try1-3A/FIRE-CG
REM
REM
REM
REM
REM
REM ./C.cell (11c1c37f851c82e70ff6c80c92926a4b)
REM
REM compiler GCC version 9.2.1 20190827 (Red Hat 9.2.1-1)
REM options -cpp -mtune=generic -march=x86-64 -g -O0 -fpre-include=/usr/include/finclude/math-vector-fortran.h
REM seed 883202434 -1735704767 -618745136 -253112275 -450010412 -350188005 -290761558 869448005 -1434627733 153045265 2022885404 -153883840 -562273464 2015303214 1488525798 -1422641908 2021834612 1872416597 476615797 -2014235259 548631076 1334691013 1086322436 -1686105553 -1271634585 -105919294 1119677248 -988986894 408975153 -2112530071 -1402281012 1749927948 1016220484
REM
CELL 1.54180   50.00000   50.00000   50.00000   90.00000   90.00000   90.00000
LATT -1
SFAC C  
C      1  0.5182680000000  0.4986510000000  0.5992830000000 1.0
C      1  0.4897990000000  0.5528130000000  0.5057050000000 1.0
C      1  0.5742950000000  0.4503560000000  0.4946250000000 1.0
C      1  0.4768270000000  0.5939710000000  0.4969820000000 1.0
C      1  0.5456100000000  0.4322050000000  0.5020730000000 1.0
C      1  0.4499270000000  0.4613270000000  0.4109790000000 1.0
C      1  0.5239130000000  0.5847330000000  0.5222460000000 1.0
C      1  0.4599330000000  0.5662020000000  0.4283850000000 1.0
C      1  0.5722510000000  0.5124050000000  0.5045040000000 1.0
C      1  0.4786900000000  0.5210310000000  0.4467470000000 1.0
C      1  0.4636860000000  0.4316410000000  0.5349990000000 1.0
C      1  0.5644320000000  0.5762440000000  0.4899160000000 1.0
C      1  0.4264130000000  0.4668370000000  0.5355700000000 1.0
C      1  0.5120830000000  0.5608640000000  0.4433380000000 1.0
C      1  0.5164210000000  0.3993070000000  0.5345450000000 1.0
C      1  0.4801830000000  0.4769290000000  0.4755800000000 1.0
C      1  0.5397770000000  0.4977070000000  0.4777550000000 1.0
C      1  0.4660470000000  0.5417950000000  0.4141430000000 1.0
C      1  0.4937850000000  0.4942440000000  0.5601960000000 1.0
C      1  0.5200060000000  0.4981260000000  0.4551980000000 1.0
C      1  0.4636470000000  0.5835200000000  0.4503810000000 1.0
C      1  0.5424130000000  0.5332020000000  0.4289720000000 1.0
C      1  0.5331440000000  0.5781370000000  0.4912860000000 1.0
C      1  0.4725490000000  0.4135730000000  0.4821390000000 1.0
C      1  0.5001950000000  0.5151910000000  0.5420590000000 1.0
C      1  0.5785970000000  0.5284590000000  0.4619750000000 1.0
C      1  0.4106820000000  0.4755350000000  0.4733260000000 1.0
C      1  0.4621870000000  0.5459710000000  0.5634820000000 1.0
C      1  0.5795940000000  0.4700490000000  0.4741800000000 1.0
C      1  0.4325050000000  0.5086720000000  0.5669970000000 1.0
C      1  0.4834040000000  0.5493280000000  0.4785440000000 1.0
C      1  0.5395500000000  0.5739630000000  0.5450090000000 1.0
C      1  0.5320630000000  0.4300510000000  0.4475510000000 1.0
C      1  0.5669650000000  0.5289650000000  0.5492450000000 1.0
C      1  0.5504350000000  0.4926960000000  0.4137590000000 1.0
C      1  0.4683090000000  0.5411230000000  0.5201700000000 1.0
C      1  0.5347620000000  0.5490370000000  0.4976860000000 1.0
C      1  0.5138340000000  0.5671080000000  0.5589160000000 1.0
C      1  0.5269540000000  0.5227930000000  0.5839350000000 1.0
C      1  0.4780400000000  0.5064860000000  0.5826110000000 1.0
C      1  0.5754170000000  0.5072800000000  0.4182060000000 1.0
C      1  0.4924670000000  0.5232370000000  0.4700160000000 1.0
C      1  0.4068570000000  0.4917750000000  0.4973470000000 1.0
C      1  0.5869920000000  0.4825380000000  0.5372270000000 1.0
C      1  0.5650730000000  0.5578080000000  0.5416350000000 1.0
C      1  0.4960220000000  0.4557470000000  0.4327290000000 1.0
C      1  0.5705800000000  0.5007550000000  0.4773830000000 1.0
C      1  0.5353520000000  0.5533030000000  0.4425520000000 1.0
C      1  0.4495330000000  0.5227510000000  0.4517510000000 1.0
C      1  0.4146370000000  0.4469740000000  0.4748820000000 1.0
C      1  0.4382400000000  0.4413100000000  0.5266730000000 1.0
C      1  0.5546370000000  0.4864910000000  0.5737560000000 1.0
C      1  0.4502020000000  0.4965440000000  0.5856990000000 1.0
C      1  0.5098720000000  0.5114440000000  0.5150700000000 1.0
C      1  0.4809070000000  0.5357360000000  0.5841760000000 1.0
C      1  0.4460420000000  0.4191420000000  0.4723790000000 1.0
C      1  0.4908510000000  0.5398910000000  0.4287420000000 1.0
C      1  0.4766330000000  0.4200030000000  0.5115590000000 1.0
C      1  0.4980180000000  0.4389440000000  0.5071340000000 1.0
C      1  0.4333150000000  0.5064290000000  0.4342110000000 1.0
C      1  0.4330650000000  0.4576500000000  0.4351240000000 1.0
C      1  0.4868250000000  0.4411860000000  0.5571060000000 1.0
C      1  0.4294570000000  0.4343520000000  0.4531820000000 1.0
C      1  0.5421780000000  0.4143280000000  0.5272600000000 1.0
C      1  0.5134510000000  0.5799700000000  0.4649540000000 1.0
C      1  0.4156650000000  0.4916700000000  0.5241920000000 1.0
C      1  0.5301970000000  0.5070340000000  0.4289180000000 1.0
C      1  0.4806820000000  0.5357760000000  0.5440300000000 1.0
C      1  0.4999030000000  0.4760190000000  0.4533840000000 1.0
C      1  0.4990800000000  0.5813450000000  0.5364290000000 1.0
C      1  0.5789300000000  0.5521040000000  0.4789350000000 1.0
C      1  0.4366000000000  0.5418270000000  0.4701510000000 1.0
C      1  0.5197570000000  0.4727660000000  0.5024840000000 1.0
C      1  0.4390740000000  0.4420830000000  0.4934960000000 1.0
C      1  0.4609020000000  0.4605480000000  0.4839440000000 1.0
C      1  0.5796460000000  0.5102000000000  0.5309210000000 1.0
C      1  0.5751180000000  0.4605910000000  0.4469430000000 1.0
C      1  0.5054590000000  0.4715480000000  0.5962380000000 1.0
C      1  0.4579270000000  0.5626550000000  0.4699800000000 1.0
C      1  0.5816300000000  0.4640990000000  0.5168680000000 1.0
C      1  0.4134190000000  0.5170400000000  0.4921810000000 1.0
C      1  0.4980160000000  0.4680240000000  0.5481930000000 1.0
C      1  0.4368870000000  0.5441740000000  0.5471510000000 1.0
C      1  0.4872910000000  0.5925730000000  0.4693370000000 1.0
C      1  0.4935000000000  0.4689820000000  0.5185670000000 1.0
C      1  0.5176260000000  0.4314070000000  0.4870840000000 1.0
C      1  0.5524820000000  0.4445340000000  0.4472620000000 1.0
C      1  0.4476770000000  0.5624380000000  0.5275370000000 1.0
C      1  0.4598620000000  0.5106430000000  0.5069470000000 1.0
C      1  0.5747190000000  0.4789310000000  0.4228380000000 1.0
C      1  0.5044750000000  0.4285060000000  0.4419080000000 1.0
C      1  0.5137100000000  0.5390730000000  0.5124860000000 1.0
C      1  0.4354800000000  0.5251730000000  0.4919150000000 1.0
C      1  0.4991450000000  0.4169720000000  0.4688810000000 1.0
C      1  0.5697790000000  0.5320470000000  0.4344460000000 1.0
C      1  0.5345860000000  0.4758580000000  0.5928840000000 1.0
C      1  0.4512290000000  0.5122100000000  0.4118380000000 1.0
C      1  0.5603440000000  0.5368600000000  0.4962360000000 1.0
C      1  0.4225610000000  0.4815030000000  0.4471410000000 1.0
C      1  0.5085680000000  0.5447280000000  0.5776970000000 1.0
C      1  0.5514250000000  0.5154760000000  0.5696040000000 1.0
C      1  0.4618040000000  0.4871250000000  0.4021090000000 1.0
C      1  0.4855060000000  0.5053300000000  0.4911970000000 1.0
C      1  0.5457270000000  0.4577590000000  0.5451260000000 1.0
C      1  0.4218680000000  0.5157280000000  0.5431170000000 1.0
C      1  0.4786070000000  0.4630640000000  0.4102120000000 1.0
C      1  0.4702660000000  0.5830470000000  0.5231780000000 1.0
C      1  0.5705260000000  0.5697430000000  0.5165370000000 1.0
C      1  0.4525220000000  0.4754950000000  0.5457350000000 1.0
C      1  0.5396700000000  0.4298090000000  0.5522990000000 1.0
C      1  0.4581000000000  0.4700340000000  0.5757830000000 1.0
C      1  0.5401490000000  0.4581950000000  0.5162510000000 1.0
C      1  0.4665730000000  0.4863630000000  0.5225030000000 1.0
C      1  0.5692600000000  0.4700710000000  0.5553580000000 1.0
C      1  0.5115220000000  0.4208710000000  0.5553600000000 1.0
C      1  0.4825140000000  0.4562790000000  0.5843440000000 1.0
C      1  0.5332340000000  0.4968350000000  0.5060990000000 1.0
END
