TITL C-884137-4758-409 -1.22255607478641 125000 -9727.22939601805 0 0 66 (C1) n - 1
REM
REM in /home/nfs/bkarasulu/CARBON/AIRSS/Generating-Clusters/ReaxFF-fromJPCA2015/Units_Real/with-SteepDescent/Only-C1/SD-CG/Try1-3A/FIRE-CG
REM
REM
REM
REM
REM
REM ./C.cell (11c1c37f851c82e70ff6c80c92926a4b)
REM
REM compiler GCC version 9.2.1 20190827 (Red Hat 9.2.1-1)
REM options -cpp -mtune=generic -march=x86-64 -g -O0 -fpre-include=/usr/include/finclude/math-vector-fortran.h
REM seed 743941013 -1222626857 599302868 1980472845 417545807 2044095639 -747481115 171709044 315732396 1472040442 -1455997702 -1908026966 -1741369754 -239139847 -361271227 -1955274954 1408685915 -1789602006 702494688 -1376492614 1934579749 -454921588 -571100656 -1362106239 333348885 -1168896576 -1976874245 535967219 -249255479 -320823516 -1881129057 -812353557 -1362327151
REM
CELL 1.54180   50.00000   50.00000   50.00000   90.00000   90.00000   90.00000
LATT -1
SFAC C  
C      1  0.5526980000000  0.4408840000000  0.4989330000000 1.0
C      1  0.4979690000000  0.4220390000000  0.4851260000000 1.0
C      1  0.5669880000000  0.5380870000000  0.5231970000000 1.0
C      1  0.4496830000000  0.4744210000000  0.4660990000000 1.0
C      1  0.4906860000000  0.5390400000000  0.5652840000000 1.0
C      1  0.5157080000000  0.4904040000000  0.4912920000000 1.0
C      1  0.5216260000000  0.5598380000000  0.5163920000000 1.0
C      1  0.5410880000000  0.4425810000000  0.5457490000000 1.0
C      1  0.4429750000000  0.5227200000000  0.5536570000000 1.0
C      1  0.4817110000000  0.4478650000000  0.5492250000000 1.0
C      1  0.5570920000000  0.4657760000000  0.4650550000000 1.0
C      1  0.4704670000000  0.4328150000000  0.4792760000000 1.0
C      1  0.5027200000000  0.4590550000000  0.4542200000000 1.0
C      1  0.4772700000000  0.4638570000000  0.5651080000000 1.0
C      1  0.4848080000000  0.4382940000000  0.5220610000000 1.0
C      1  0.5279880000000  0.5583610000000  0.4484580000000 1.0
C      1  0.4866580000000  0.5121100000000  0.5774550000000 1.0
C      1  0.5354570000000  0.4298890000000  0.5198460000000 1.0
C      1  0.5098840000000  0.4755360000000  0.5175470000000 1.0
C      1  0.4760370000000  0.5120720000000  0.5049750000000 1.0
C      1  0.5167390000000  0.4803790000000  0.4403560000000 1.0
C      1  0.4809450000000  0.5185790000000  0.4346050000000 1.0
C      1  0.4499370000000  0.5473450000000  0.5424950000000 1.0
C      1  0.4694730000000  0.4885170000000  0.5760700000000 1.0
C      1  0.5033970000000  0.5514730000000  0.4627020000000 1.0
C      1  0.5156020000000  0.4360120000000  0.4654200000000 1.0
C      1  0.4918310000000  0.5040230000000  0.4815420000000 1.0
C      1  0.5445330000000  0.4394070000000  0.4705890000000 1.0
C      1  0.4335490000000  0.4663850000000  0.4893940000000 1.0
C      1  0.5018550000000  0.5005420000000  0.4229850000000 1.0
C      1  0.5442760000000  0.4862950000000  0.4484430000000 1.0
C      1  0.4924690000000  0.5688060000000  0.5220580000000 1.0
C      1  0.4368210000000  0.5546370000000  0.5155390000000 1.0
C      1  0.4975790000000  0.5224410000000  0.4585560000000 1.0
C      1  0.4544140000000  0.5741600000000  0.5060440000000 1.0
C      1  0.4345700000000  0.4868520000000  0.5369090000000 1.0
C      1  0.4785900000000  0.5557860000000  0.5444350000000 1.0
C      1  0.4980510000000  0.5199940000000  0.5236020000000 1.0
C      1  0.4549610000000  0.5460930000000  0.4688400000000 1.0
C      1  0.5223760000000  0.5204490000000  0.4139200000000 1.0
C      1  0.5623700000000  0.5098260000000  0.5308230000000 1.0
C      1  0.5400970000000  0.5345310000000  0.4331910000000 1.0
C      1  0.5402690000000  0.4988270000000  0.5479840000000 1.0
C      1  0.5198830000000  0.5319360000000  0.5075400000000 1.0
C      1  0.4781050000000  0.5756310000000  0.4994980000000 1.0
C      1  0.4862880000000  0.4627340000000  0.5052550000000 1.0
C      1  0.5676560000000  0.5258010000000  0.4706500000000 1.0
C      1  0.5723800000000  0.5341610000000  0.4951010000000 1.0
C      1  0.4421060000000  0.4959750000000  0.5627560000000 1.0
C      1  0.5366640000000  0.5111600000000  0.4935020000000 1.0
C      1  0.5557000000000  0.5136780000000  0.4478950000000 1.0
C      1  0.4789030000000  0.4613960000000  0.4741890000000 1.0
C      1  0.4546860000000  0.5254130000000  0.4475090000000 1.0
C      1  0.5642100000000  0.4682620000000  0.4938570000000 1.0
C      1  0.4470490000000  0.5156490000000  0.5046790000000 1.0
C      1  0.4440230000000  0.4388340000000  0.4927780000000 1.0
C      1  0.5241690000000  0.4619360000000  0.5467580000000 1.0
C      1  0.4776400000000  0.5633040000000  0.4739400000000 1.0
C      1  0.4325370000000  0.4895270000000  0.5101450000000 1.0
C      1  0.5123410000000  0.4994110000000  0.5380700000000 1.0
C      1  0.5081130000000  0.4223030000000  0.5123320000000 1.0
C      1  0.4387580000000  0.5395450000000  0.4912600000000 1.0
C      1  0.5476760000000  0.5608650000000  0.5298880000000 1.0
C      1  0.4504480000000  0.4993010000000  0.4558360000000 1.0
C      1  0.5465040000000  0.4710020000000  0.5557590000000 1.0
C      1  0.5599390000000  0.4951660000000  0.5053460000000 1.0
END
