TITL C-884134-5972-178 9.25843484553394 125000 -22559.4860713059 0 0 150 (C1) n - 1
REM
REM in /home/nfs/bkarasulu/CARBON/AIRSS/Generating-Clusters/ReaxFF-fromJPCA2015/Units_Real/with-SteepDescent/Only-C1/SD-CG/Try1-3A/FIRE-CG
REM
REM
REM
REM
REM
REM ./C.cell (11c1c37f851c82e70ff6c80c92926a4b)
REM
REM compiler GCC version 9.2.1 20190827 (Red Hat 9.2.1-1)
REM options -cpp -mtune=generic -march=x86-64 -g -O0 -fpre-include=/usr/include/finclude/math-vector-fortran.h
REM seed -2005853780 554254368 1506568779 -1293055165 976351567 768593738 -1575040777 -1247009145 2043861852 -1997015003 -305407624 2048660743 134311637 103994379 -1264795333 -1389702828 -1708961520 -1433908441 1582857437 1967420138 -369878050 379415592 1263818482 -542482313 551721411 632428008 -625918555 1518607941 1748803768 -832972977 1922151764 51000708 -142935644
REM
CELL 1.54180   50.00000   50.00000   50.00000   90.00000   90.00000   90.00000
LATT -1
SFAC C  
C      1  0.4366890000000  0.5030660000000  0.4796000000000 1.0
C      1  0.5646460000000  0.5514130000000  0.4439640000000 1.0
C      1  0.4993930000000  0.4138030000000  0.4791950000000 1.0
C      1  0.5292360000000  0.5148140000000  0.5467920000000 1.0
C      1  0.5127150000000  0.5089520000000  0.5036620000000 1.0
C      1  0.4079290000000  0.5288810000000  0.5507030000000 1.0
C      1  0.4845450000000  0.4764480000000  0.4827290000000 1.0
C      1  0.5810950000000  0.5283670000000  0.5520500000000 1.0
C      1  0.4612190000000  0.5195150000000  0.5609520000000 1.0
C      1  0.3978820000000  0.5002300000000  0.5490190000000 1.0
C      1  0.5031370000000  0.4248820000000  0.4113290000000 1.0
C      1  0.4702060000000  0.5417520000000  0.5795340000000 1.0
C      1  0.5002150000000  0.5708260000000  0.4815440000000 1.0
C      1  0.5127580000000  0.5972160000000  0.4769910000000 1.0
C      1  0.4928160000000  0.4895290000000  0.4573540000000 1.0
C      1  0.5531500000000  0.5732870000000  0.4608660000000 1.0
C      1  0.4345760000000  0.5753300000000  0.4972300000000 1.0
C      1  0.4178550000000  0.5002810000000  0.4362460000000 1.0
C      1  0.5274240000000  0.5845080000000  0.4544900000000 1.0
C      1  0.5787220000000  0.5529850000000  0.5390330000000 1.0
C      1  0.5941100000000  0.5138640000000  0.4485210000000 1.0
C      1  0.4536960000000  0.4941690000000  0.4572620000000 1.0
C      1  0.4038060000000  0.4892780000000  0.5020210000000 1.0
C      1  0.5613270000000  0.5011610000000  0.5921190000000 1.0
C      1  0.5193280000000  0.5540810000000  0.5863640000000 1.0
C      1  0.5723630000000  0.5172590000000  0.4930080000000 1.0
C      1  0.5055120000000  0.5492230000000  0.4199790000000 1.0
C      1  0.5264510000000  0.4843080000000  0.4205010000000 1.0
C      1  0.4336490000000  0.4789110000000  0.5058260000000 1.0
C      1  0.5313290000000  0.4668650000000  0.5291950000000 1.0
C      1  0.4866510000000  0.4686170000000  0.5248540000000 1.0
C      1  0.5533730000000  0.5274970000000  0.4310950000000 1.0
C      1  0.4315010000000  0.5543640000000  0.4752670000000 1.0
C      1  0.4115570000000  0.5098320000000  0.4635810000000 1.0
C      1  0.4465150000000  0.5570830000000  0.5713540000000 1.0
C      1  0.4236360000000  0.4722980000000  0.4291990000000 1.0
C      1  0.4516470000000  0.4645200000000  0.4594350000000 1.0
C      1  0.4725180000000  0.5196480000000  0.5319720000000 1.0
C      1  0.4843620000000  0.4133950000000  0.5338400000000 1.0
C      1  0.6037840000000  0.4383240000000  0.4968300000000 1.0
C      1  0.5668030000000  0.5025890000000  0.4434030000000 1.0
C      1  0.4452500000000  0.4698730000000  0.4095590000000 1.0
C      1  0.5362070000000  0.4172610000000  0.5446460000000 1.0
C      1  0.3925330000000  0.5410290000000  0.5069730000000 1.0
C      1  0.4453870000000  0.5620330000000  0.4487100000000 1.0
C      1  0.5513610000000  0.5722690000000  0.5117790000000 1.0
C      1  0.6171610000000  0.5235730000000  0.4890950000000 1.0
C      1  0.6075030000000  0.4650320000000  0.5052000000000 1.0
C      1  0.5419440000000  0.4159150000000  0.5161840000000 1.0
C      1  0.4882970000000  0.4929290000000  0.5074380000000 1.0
C      1  0.4274160000000  0.4491590000000  0.5022090000000 1.0
C      1  0.4982630000000  0.5862910000000  0.5490290000000 1.0
C      1  0.3888240000000  0.4887380000000  0.5250160000000 1.0
C      1  0.6164520000000  0.5147280000000  0.5170410000000 1.0
C      1  0.5180250000000  0.4273420000000  0.4992370000000 1.0
C      1  0.4468830000000  0.5738140000000  0.5466400000000 1.0
C      1  0.5243130000000  0.4661620000000  0.6021540000000 1.0
C      1  0.5013720000000  0.5159850000000  0.6081930000000 1.0
C      1  0.3859670000000  0.5333460000000  0.4857930000000 1.0
C      1  0.4637120000000  0.4136910000000  0.5152020000000 1.0
C      1  0.5177260000000  0.5500500000000  0.4883320000000 1.0
C      1  0.5070590000000  0.4750010000000  0.5665760000000 1.0
C      1  0.5283490000000  0.5304290000000  0.4163630000000 1.0
C      1  0.5893000000000  0.5417240000000  0.4555660000000 1.0
C      1  0.4703010000000  0.4847840000000  0.3995550000000 1.0
C      1  0.5452810000000  0.5236000000000  0.5913610000000 1.0
C      1  0.4847530000000  0.5615270000000  0.4597930000000 1.0
C      1  0.4710500000000  0.4206740000000  0.4841860000000 1.0
C      1  0.5097940000000  0.4518280000000  0.5201710000000 1.0
C      1  0.5488450000000  0.4500950000000  0.4326430000000 1.0
C      1  0.4055810000000  0.5383490000000  0.4669460000000 1.0
C      1  0.5809570000000  0.4775500000000  0.5547620000000 1.0
C      1  0.5400640000000  0.5855280000000  0.5522420000000 1.0
C      1  0.5195310000000  0.4809460000000  0.4490030000000 1.0
C      1  0.5047140000000  0.4137210000000  0.5524260000000 1.0
C      1  0.4593490000000  0.4443440000000  0.4039350000000 1.0
C      1  0.5319310000000  0.4333040000000  0.4516000000000 1.0
C      1  0.4400690000000  0.4226640000000  0.4441130000000 1.0
C      1  0.4793200000000  0.5359660000000  0.4149810000000 1.0
C      1  0.5061690000000  0.5692050000000  0.4404990000000 1.0
C      1  0.4488060000000  0.4067620000000  0.4659710000000 1.0
C      1  0.6058340000000  0.4748940000000  0.4773680000000 1.0
C      1  0.4945950000000  0.5414190000000  0.5972130000000 1.0
C      1  0.5201870000000  0.5906390000000  0.5296050000000 1.0
C      1  0.4449180000000  0.5117560000000  0.4342300000000 1.0
C      1  0.5799780000000  0.5037120000000  0.5663920000000 1.0
C      1  0.5848060000000  0.4575150000000  0.4640960000000 1.0
C      1  0.4315530000000  0.5328070000000  0.5660840000000 1.0
C      1  0.4435140000000  0.4290250000000  0.5480920000000 1.0
C      1  0.5569980000000  0.4610960000000  0.5129070000000 1.0
C      1  0.5384280000000  0.4839520000000  0.4714480000000 1.0
C      1  0.4586050000000  0.5325990000000  0.5126370000000 1.0
C      1  0.5175480000000  0.5786990000000  0.5705460000000 1.0
C      1  0.5081560000000  0.6048540000000  0.5054220000000 1.0
C      1  0.4543650000000  0.5392160000000  0.4297150000000 1.0
C      1  0.5085850000000  0.4152010000000  0.4521350000000 1.0
C      1  0.5508580000000  0.4366690000000  0.5578270000000 1.0
C      1  0.5326110000000  0.5507480000000  0.5121780000000 1.0
C      1  0.4885960000000  0.4103100000000  0.4291900000000 1.0
C      1  0.5796120000000  0.5641940000000  0.5075470000000 1.0
C      1  0.4206130000000  0.4812100000000  0.5568970000000 1.0
C      1  0.5118790000000  0.4493250000000  0.5808010000000 1.0
C      1  0.4523440000000  0.5296180000000  0.4850360000000 1.0
C      1  0.4616670000000  0.4226480000000  0.4239140000000 1.0
C      1  0.5185120000000  0.5223390000000  0.4788780000000 1.0
C      1  0.6115190000000  0.5022910000000  0.4688660000000 1.0
C      1  0.5650750000000  0.4304900000000  0.5074210000000 1.0
C      1  0.4427840000000  0.4524250000000  0.5786390000000 1.0
C      1  0.5631180000000  0.5787680000000  0.4878480000000 1.0
C      1  0.5845420000000  0.4757910000000  0.5245500000000 1.0
C      1  0.5872460000000  0.5044070000000  0.5141280000000 1.0
C      1  0.5378720000000  0.5375750000000  0.5672330000000 1.0
C      1  0.5508960000000  0.4731580000000  0.5929240000000 1.0
C      1  0.4857790000000  0.5095420000000  0.4036150000000 1.0
C      1  0.4608040000000  0.4408920000000  0.5637150000000 1.0
C      1  0.4054170000000  0.5500390000000  0.5301610000000 1.0
C      1  0.5907960000000  0.5407410000000  0.4860370000000 1.0
C      1  0.4966630000000  0.5171220000000  0.4619140000000 1.0
C      1  0.5036840000000  0.4882600000000  0.6093890000000 1.0
C      1  0.5645130000000  0.4584460000000  0.5703710000000 1.0
C      1  0.5343460000000  0.4589580000000  0.4085410000000 1.0
C      1  0.4754860000000  0.5349370000000  0.4662720000000 1.0
C      1  0.4826450000000  0.4590590000000  0.3928670000000 1.0
C      1  0.5805330000000  0.4324460000000  0.4821210000000 1.0
C      1  0.5463960000000  0.4628760000000  0.4865470000000 1.0
C      1  0.4653570000000  0.4695000000000  0.5457210000000 1.0
C      1  0.4538280000000  0.5889190000000  0.4568410000000 1.0
C      1  0.4545160000000  0.5944670000000  0.4870320000000 1.0
C      1  0.5276920000000  0.5239030000000  0.5218930000000 1.0
C      1  0.5522180000000  0.5097760000000  0.4728700000000 1.0
C      1  0.4918190000000  0.4305710000000  0.5715680000000 1.0
C      1  0.4381650000000  0.4276100000000  0.5208120000000 1.0
C      1  0.4689000000000  0.4530500000000  0.4778760000000 1.0
C      1  0.4373090000000  0.4793620000000  0.5811160000000 1.0
C      1  0.5336450000000  0.4407350000000  0.4780750000000 1.0
C      1  0.3909680000000  0.4660640000000  0.4929340000000 1.0
C      1  0.4791140000000  0.6046700000000  0.5008930000000 1.0
C      1  0.4793900000000  0.5468950000000  0.5241460000000 1.0
C      1  0.4399410000000  0.4796770000000  0.5349480000000 1.0
C      1  0.4891970000000  0.4864370000000  0.5836940000000 1.0
C      1  0.4254590000000  0.4507340000000  0.4512980000000 1.0
C      1  0.4637420000000  0.4916510000000  0.5726260000000 1.0
C      1  0.5104850000000  0.4465900000000  0.3956000000000 1.0
C      1  0.5148330000000  0.5071050000000  0.4054870000000 1.0
C      1  0.4277320000000  0.5694130000000  0.5249300000000 1.0
C      1  0.4088310000000  0.4486600000000  0.4795460000000 1.0
C      1  0.5253700000000  0.4871460000000  0.5496190000000 1.0
C      1  0.5576640000000  0.5626600000000  0.5550520000000 1.0
C      1  0.5682240000000  0.4691220000000  0.4438300000000 1.0
C      1  0.4747840000000  0.5720240000000  0.5382430000000 1.0
END
