TITL C-884130-5973-363 -13.3213774590509 125000 -10728.5049140923 0 0 71 (C1) n - 1
REM
REM in /home/nfs/bkarasulu/CARBON/AIRSS/Generating-Clusters/ReaxFF-fromJPCA2015/Units_Real/with-SteepDescent/Only-C1/SD-CG/Try1-3A/FIRE-CG
REM
REM
REM
REM
REM
REM ./C.cell (11c1c37f851c82e70ff6c80c92926a4b)
REM
REM compiler GCC version 9.2.1 20190827 (Red Hat 9.2.1-1)
REM options -cpp -mtune=generic -march=x86-64 -g -O0 -fpre-include=/usr/include/finclude/math-vector-fortran.h
REM seed 1554952527 -1309925652 1735866741 1499079819 2048268988 -635146134 -1880859612 929925606 1464092961 -1055712860 -1381667042 1444768795 -1696409552 470898563 1467988926 1836258887 1585665261 -2123100224 1560149303 -1847857214 1646596881 -2021241010 -1166168844 783541479 -1210139217 1265197892 -760749441 1435596797 -1852990618 -1893044258 -40286215 -139573141 -2096169934
REM
CELL 1.54180   50.00000   50.00000   50.00000   90.00000   90.00000   90.00000
LATT -1
SFAC C  
C      1  0.4666490000000  0.5017270000000  0.4748700000000 1.0
C      1  0.4303310000000  0.5152240000000  0.5055440000000 1.0
C      1  0.5310760000000  0.5234600000000  0.4925180000000 1.0
C      1  0.5316810000000  0.5258650000000  0.4320300000000 1.0
C      1  0.4503070000000  0.4295190000000  0.5211500000000 1.0
C      1  0.5724840000000  0.4902160000000  0.5229800000000 1.0
C      1  0.5220590000000  0.4755910000000  0.5129080000000 1.0
C      1  0.4396530000000  0.4484510000000  0.5012540000000 1.0
C      1  0.5152120000000  0.4628610000000  0.4611470000000 1.0
C      1  0.5187690000000  0.5610210000000  0.4621150000000 1.0
C      1  0.4087680000000  0.4815790000000  0.4840080000000 1.0
C      1  0.4670560000000  0.4744070000000  0.5475370000000 1.0
C      1  0.4295910000000  0.4943190000000  0.5259520000000 1.0
C      1  0.5092820000000  0.5095350000000  0.4825990000000 1.0
C      1  0.5324930000000  0.5334560000000  0.5175460000000 1.0
C      1  0.4707800000000  0.5595570000000  0.4501890000000 1.0
C      1  0.5610430000000  0.4713550000000  0.5386650000000 1.0
C      1  0.5228660000000  0.4347550000000  0.5352680000000 1.0
C      1  0.5024270000000  0.4214800000000  0.5211570000000 1.0
C      1  0.4460880000000  0.4943680000000  0.5507470000000 1.0
C      1  0.5662580000000  0.5471180000000  0.5424930000000 1.0
C      1  0.5010510000000  0.5613300000000  0.4865660000000 1.0
C      1  0.5117570000000  0.4815690000000  0.4872860000000 1.0
C      1  0.5460890000000  0.4820390000000  0.5622580000000 1.0
C      1  0.5488420000000  0.4518420000000  0.4894020000000 1.0
C      1  0.4920690000000  0.5574850000000  0.5398070000000 1.0
C      1  0.4180950000000  0.4948770000000  0.4586590000000 1.0
C      1  0.5408290000000  0.4773020000000  0.4506540000000 1.0
C      1  0.5293170000000  0.4963790000000  0.4327410000000 1.0
C      1  0.5180600000000  0.4743690000000  0.5619900000000 1.0
C      1  0.5260190000000  0.4389370000000  0.4778580000000 1.0
C      1  0.4569110000000  0.5185610000000  0.4955040000000 1.0
C      1  0.4651320000000  0.4757530000000  0.4593270000000 1.0
C      1  0.4818980000000  0.4917330000000  0.5287380000000 1.0
C      1  0.4880630000000  0.5206270000000  0.5704640000000 1.0
C      1  0.5099440000000  0.4873530000000  0.5360170000000 1.0
C      1  0.4120920000000  0.5102930000000  0.4834140000000 1.0
C      1  0.4690780000000  0.5386990000000  0.5385450000000 1.0
C      1  0.4778400000000  0.5464710000000  0.4760000000000 1.0
C      1  0.4583720000000  0.4498760000000  0.4776510000000 1.0
C      1  0.4223240000000  0.4719970000000  0.5081020000000 1.0
C      1  0.5401590000000  0.5634950000000  0.5447250000000 1.0
C      1  0.4870550000000  0.5192800000000  0.4666740000000 1.0
C      1  0.4620270000000  0.5191550000000  0.5602250000000 1.0
C      1  0.5083360000000  0.4464860000000  0.5581150000000 1.0
C      1  0.5038340000000  0.4243770000000  0.4910170000000 1.0
C      1  0.5836710000000  0.5094980000000  0.5074880000000 1.0
C      1  0.4910140000000  0.4705430000000  0.4458390000000 1.0
C      1  0.5305060000000  0.5635070000000  0.5169550000000 1.0
C      1  0.4869450000000  0.5141860000000  0.4310990000000 1.0
C      1  0.5153910000000  0.5268580000000  0.5725070000000 1.0
C      1  0.5014470000000  0.4900660000000  0.4301010000000 1.0
C      1  0.4733530000000  0.5181510000000  0.5183730000000 1.0
C      1  0.4803920000000  0.4374890000000  0.4841460000000 1.0
C      1  0.4761580000000  0.4264090000000  0.5355740000000 1.0
C      1  0.5577670000000  0.4766190000000  0.4737750000000 1.0
C      1  0.5435130000000  0.4527700000000  0.5200030000000 1.0
C      1  0.4995070000000  0.5604270000000  0.4404220000000 1.0
C      1  0.5152030000000  0.5526710000000  0.5574290000000 1.0
C      1  0.5497120000000  0.5226490000000  0.5391190000000 1.0
C      1  0.5695720000000  0.5027940000000  0.4818890000000 1.0
C      1  0.5019670000000  0.5696880000000  0.5148500000000 1.0
C      1  0.4551590000000  0.5147620000000  0.4292080000000 1.0
C      1  0.5532970000000  0.5267430000000  0.4763300000000 1.0
C      1  0.5400170000000  0.5416510000000  0.4550810000000 1.0
C      1  0.5397900000000  0.5104660000000  0.5639950000000 1.0
C      1  0.4541450000000  0.5413970000000  0.4366320000000 1.0
C      1  0.4425080000000  0.4919800000000  0.4434070000000 1.0
C      1  0.5057870000000  0.5367270000000  0.4249710000000 1.0
C      1  0.5841150000000  0.5376080000000  0.5214220000000 1.0
C      1  0.4789970000000  0.4481920000000  0.5549690000000 1.0
END
