TITL C-883730-8503-129 -3.65672898124073 125000 -18112.1276713873 0 0 121 (C1) n - 1
REM
REM in /home/nfs/bkarasulu/CARBON/AIRSS/Generating-Clusters/ReaxFF-fromJPCA2015/Units_Real/with-SteepDescent/Only-C1/SD-CG/Try1-3A/FIRE-CG
REM
REM
REM
REM
REM
REM ./C.cell (11c1c37f851c82e70ff6c80c92926a4b)
REM
REM compiler GCC version 9.2.1 20190827 (Red Hat 9.2.1-1)
REM options -cpp -mtune=generic -march=x86-64 -g -O0 -fpre-include=/usr/include/finclude/math-vector-fortran.h
REM seed 305348752 -2026135911 1933681943 -1904375059 -1964516745 1459476998 -1541547672 788954431 651117763 -1063479494 555956360 1466193054 -1751754439 406046974 185345248 -1658884013 -1110498727 2024137389 694460004 -1279317688 -1435972225 -310218907 -74150297 1897297875 85254043 -1594069552 -838523495 -1051447512 1905469051 -948339429 -1308172831 1445137495 -1808257214
REM
CELL 1.54180   50.00000   50.00000   50.00000   90.00000   90.00000   90.00000
LATT -1
SFAC C  
C      1  0.4974020000000  0.4649650000000  0.4893540000000 1.0
C      1  0.4789970000000  0.4867990000000  0.5242880000000 1.0
C      1  0.5252640000000  0.5187920000000  0.4931750000000 1.0
C      1  0.5118930000000  0.4868250000000  0.4662360000000 1.0
C      1  0.4525720000000  0.4859580000000  0.4065750000000 1.0
C      1  0.4123970000000  0.4620600000000  0.4950390000000 1.0
C      1  0.4157330000000  0.4970360000000  0.4497130000000 1.0
C      1  0.5183100000000  0.4153110000000  0.4875940000000 1.0
C      1  0.4409710000000  0.5734410000000  0.4938570000000 1.0
C      1  0.5786290000000  0.4327450000000  0.5085430000000 1.0
C      1  0.4284290000000  0.5196540000000  0.5136200000000 1.0
C      1  0.5458960000000  0.5066030000000  0.4220670000000 1.0
C      1  0.5032760000000  0.5681450000000  0.4135550000000 1.0
C      1  0.5294460000000  0.4127560000000  0.5592790000000 1.0
C      1  0.5130800000000  0.4037200000000  0.5365670000000 1.0
C      1  0.5164860000000  0.5519920000000  0.5762420000000 1.0
C      1  0.4634710000000  0.5475030000000  0.5717610000000 1.0
C      1  0.4665790000000  0.5657830000000  0.5305820000000 1.0
C      1  0.5709340000000  0.5223090000000  0.5583770000000 1.0
C      1  0.4970560000000  0.4631410000000  0.4121050000000 1.0
C      1  0.4521860000000  0.5214220000000  0.4972140000000 1.0
C      1  0.5287210000000  0.5207410000000  0.5331510000000 1.0
C      1  0.5231970000000  0.5205190000000  0.4114860000000 1.0
C      1  0.5070530000000  0.5635510000000  0.4662350000000 1.0
C      1  0.4680130000000  0.4317720000000  0.5386430000000 1.0
C      1  0.5581750000000  0.5648830000000  0.5144290000000 1.0
C      1  0.4306580000000  0.5396600000000  0.5349340000000 1.0
C      1  0.5262570000000  0.4997280000000  0.5127020000000 1.0
C      1  0.4650490000000  0.4624640000000  0.4900900000000 1.0
C      1  0.5262670000000  0.4565370000000  0.4190340000000 1.0
C      1  0.5529470000000  0.4626800000000  0.4926150000000 1.0
C      1  0.4780510000000  0.4902160000000  0.5911710000000 1.0
C      1  0.5833650000000  0.5306480000000  0.4848300000000 1.0
C      1  0.4991510000000  0.4770740000000  0.6044560000000 1.0
C      1  0.5406950000000  0.5374520000000  0.5826240000000 1.0
C      1  0.4380970000000  0.5012700000000  0.5652990000000 1.0
C      1  0.4329470000000  0.5584800000000  0.4714550000000 1.0
C      1  0.5056190000000  0.4782710000000  0.5172890000000 1.0
C      1  0.4898070000000  0.5473990000000  0.5083970000000 1.0
C      1  0.4315690000000  0.4825620000000  0.4279250000000 1.0
C      1  0.5620360000000  0.4754590000000  0.4483510000000 1.0
C      1  0.4503040000000  0.5125110000000  0.4073450000000 1.0
C      1  0.5161160000000  0.4757420000000  0.5460730000000 1.0
C      1  0.5084210000000  0.5883500000000  0.5399290000000 1.0
C      1  0.5439510000000  0.5734520000000  0.4891490000000 1.0
C      1  0.4971170000000  0.5108600000000  0.5819320000000 1.0
C      1  0.5522470000000  0.5093170000000  0.5766370000000 1.0
C      1  0.4564110000000  0.4788630000000  0.5120860000000 1.0
C      1  0.5186940000000  0.5443010000000  0.4237290000000 1.0
C      1  0.5232980000000  0.5436180000000  0.4535720000000 1.0
C      1  0.4536760000000  0.4316750000000  0.4893160000000 1.0
C      1  0.5441250000000  0.4812120000000  0.5762320000000 1.0
C      1  0.4269230000000  0.4564040000000  0.5451110000000 1.0
C      1  0.4490930000000  0.4766370000000  0.4722570000000 1.0
C      1  0.4811090000000  0.5100950000000  0.5376810000000 1.0
C      1  0.5161890000000  0.5833110000000  0.4840700000000 1.0
C      1  0.4453490000000  0.4261580000000  0.5165990000000 1.0
C      1  0.4907580000000  0.5935450000000  0.4956740000000 1.0
C      1  0.5965460000000  0.4859690000000  0.5047520000000 1.0
C      1  0.4678660000000  0.5733640000000  0.5606790000000 1.0
C      1  0.5270660000000  0.4144370000000  0.4572730000000 1.0
C      1  0.4602040000000  0.4415440000000  0.4421920000000 1.0
C      1  0.5894420000000  0.4587540000000  0.5155700000000 1.0
C      1  0.4881940000000  0.4133770000000  0.5498520000000 1.0
C      1  0.4218810000000  0.5244450000000  0.4516340000000 1.0
C      1  0.5626400000000  0.4713760000000  0.5220790000000 1.0
C      1  0.4572210000000  0.4192380000000  0.4627250000000 1.0
C      1  0.5264980000000  0.4351760000000  0.4371060000000 1.0
C      1  0.5924300000000  0.5029360000000  0.4809970000000 1.0
C      1  0.4427540000000  0.5299870000000  0.5598740000000 1.0
C      1  0.5698130000000  0.5392830000000  0.4598340000000 1.0
C      1  0.5674690000000  0.5169630000000  0.4400220000000 1.0
C      1  0.4709650000000  0.5308490000000  0.4073730000000 1.0
C      1  0.5253170000000  0.5738730000000  0.5554200000000 1.0
C      1  0.5823700000000  0.4963130000000  0.4539870000000 1.0
C      1  0.5248270000000  0.4669340000000  0.5961740000000 1.0
C      1  0.5470000000000  0.4780470000000  0.4233390000000 1.0
C      1  0.4676670000000  0.5810500000000  0.4837620000000 1.0
C      1  0.4396290000000  0.5645320000000  0.5228660000000 1.0
C      1  0.4903660000000  0.6019840000000  0.5247860000000 1.0
C      1  0.4769280000000  0.5373640000000  0.4530590000000 1.0
C      1  0.5433080000000  0.4646870000000  0.5502470000000 1.0
C      1  0.5552440000000  0.4217800000000  0.5239500000000 1.0
C      1  0.4841720000000  0.4394150000000  0.5193840000000 1.0
C      1  0.4523890000000  0.4541940000000  0.5574400000000 1.0
C      1  0.4748090000000  0.5088430000000  0.4543750000000 1.0
C      1  0.4912240000000  0.4856450000000  0.4465070000000 1.0
C      1  0.5647540000000  0.5201900000000  0.5298210000000 1.0
C      1  0.4562080000000  0.4788740000000  0.5719410000000 1.0
C      1  0.5046200000000  0.4195340000000  0.5752820000000 1.0
C      1  0.5475660000000  0.4331380000000  0.5491230000000 1.0
C      1  0.4545110000000  0.5049110000000  0.4736320000000 1.0
C      1  0.4834650000000  0.4875240000000  0.4032430000000 1.0
C      1  0.5528180000000  0.4214030000000  0.4653790000000 1.0
C      1  0.4654030000000  0.5921980000000  0.5389120000000 1.0
C      1  0.4827430000000  0.5549880000000  0.4758290000000 1.0
C      1  0.5216770000000  0.5137060000000  0.4678100000000 1.0
C      1  0.5177650000000  0.5396660000000  0.5124700000000 1.0
C      1  0.5114400000000  0.4428340000000  0.5889430000000 1.0
C      1  0.5489050000000  0.5578700000000  0.4653800000000 1.0
C      1  0.5679110000000  0.4392090000000  0.4814350000000 1.0
C      1  0.4841230000000  0.4584470000000  0.4380470000000 1.0
C      1  0.5516310000000  0.5671650000000  0.5431430000000 1.0
C      1  0.4957780000000  0.5141160000000  0.4062070000000 1.0
C      1  0.4229510000000  0.4447200000000  0.5176230000000 1.0
C      1  0.4293960000000  0.4909570000000  0.5189340000000 1.0
C      1  0.4992920000000  0.4362440000000  0.4963310000000 1.0
C      1  0.4402850000000  0.4627790000000  0.4474920000000 1.0
C      1  0.4770570000000  0.5782110000000  0.4212870000000 1.0
C      1  0.4747950000000  0.5250320000000  0.5142150000000 1.0
C      1  0.5614070000000  0.5490780000000  0.5645820000000 1.0
C      1  0.5421950000000  0.4774250000000  0.4706770000000 1.0
C      1  0.4073110000000  0.4791510000000  0.4739060000000 1.0
C      1  0.5741650000000  0.5414150000000  0.5100240000000 1.0
C      1  0.5073200000000  0.5037190000000  0.5530090000000 1.0
C      1  0.5304890000000  0.4082120000000  0.5130160000000 1.0
C      1  0.4213410000000  0.4855650000000  0.5469900000000 1.0
C      1  0.4637880000000  0.5506890000000  0.4302090000000 1.0
C      1  0.5756400000000  0.4962340000000  0.5222210000000 1.0
C      1  0.4908460000000  0.5394060000000  0.5814450000000 1.0
C      1  0.4337000000000  0.5486610000000  0.4459280000000 1.0
END
