TITL C-884141-4321-339 4.27900534175061 125000 -6727.46888966786 0 0 46 (C1) n - 1
REM
REM in /home/nfs/bkarasulu/CARBON/AIRSS/Generating-Clusters/ReaxFF-fromJPCA2015/Units_Real/with-SteepDescent/Only-C1/SD-CG/Try1-3A/FIRE-CG
REM
REM
REM
REM
REM
REM ./C.cell (11c1c37f851c82e70ff6c80c92926a4b)
REM
REM compiler GCC version 9.2.1 20190827 (Red Hat 9.2.1-1)
REM options -cpp -mtune=generic -march=x86-64 -g -O0 -fpre-include=/usr/include/finclude/math-vector-fortran.h
REM seed 1165362352 -1941164093 1886232083 -1622030422 -1792132823 133765357 1646233205 47380683 -1766128010 -651613970 1890221785 1112522834 -669518322 9376518 1232138845 1640165385 -1146600982 -889549230 554936014 1034648499 1294817426 1417653535 -1201075559 -1187976044 -1333502434 840791502 1527451837 -866873513 -881692172 -884767824 507351580 -1896335431 -1720092864
REM
CELL 1.54180   50.00000   50.00000   50.00000   90.00000   90.00000   90.00000
LATT -1
SFAC C  
C      1  0.5122810000000  0.5292320000000  0.5643830000000 1.0
C      1  0.4610070000000  0.4811810000000  0.5329900000000 1.0
C      1  0.4630550000000  0.4561650000000  0.4852810000000 1.0
C      1  0.5081450000000  0.4798970000000  0.5146050000000 1.0
C      1  0.4840070000000  0.4347810000000  0.4849020000000 1.0
C      1  0.5070970000000  0.4347010000000  0.5036730000000 1.0
C      1  0.4761880000000  0.4577120000000  0.5398640000000 1.0
C      1  0.5479160000000  0.4616370000000  0.4845570000000 1.0
C      1  0.5116770000000  0.5137220000000  0.4745990000000 1.0
C      1  0.5356750000000  0.5397040000000  0.5307760000000 1.0
C      1  0.4951890000000  0.5022970000000  0.4974090000000 1.0
C      1  0.5053580000000  0.4884360000000  0.5701000000000 1.0
C      1  0.5333160000000  0.4797260000000  0.5298050000000 1.0
C      1  0.4575270000000  0.5272770000000  0.4681830000000 1.0
C      1  0.5531040000000  0.4844700000000  0.4690960000000 1.0
C      1  0.4960620000000  0.4556090000000  0.5175760000000 1.0
C      1  0.4561990000000  0.5439980000000  0.4934980000000 1.0
C      1  0.4900280000000  0.4633410000000  0.4467000000000 1.0
C      1  0.5562790000000  0.4763270000000  0.5100530000000 1.0
C      1  0.4907470000000  0.4631660000000  0.5657990000000 1.0
C      1  0.4990280000000  0.5179900000000  0.4511900000000 1.0
C      1  0.5083440000000  0.4813560000000  0.4363020000000 1.0
C      1  0.4716230000000  0.5106900000000  0.5398910000000 1.0
C      1  0.5026150000000  0.5645000000000  0.5045530000000 1.0
C      1  0.4609640000000  0.5060110000000  0.5021530000000 1.0
C      1  0.5318220000000  0.4936690000000  0.5554630000000 1.0
C      1  0.5157400000000  0.5591440000000  0.4797780000000 1.0
C      1  0.4888160000000  0.5136610000000  0.5655140000000 1.0
C      1  0.5476920000000  0.5305640000000  0.5043170000000 1.0
C      1  0.4656070000000  0.4735320000000  0.4622550000000 1.0
C      1  0.5251370000000  0.4430790000000  0.4816220000000 1.0
C      1  0.4956310000000  0.5186120000000  0.5227630000000 1.0
C      1  0.5027030000000  0.4413770000000  0.4630090000000 1.0
C      1  0.5381780000000  0.5229700000000  0.5549260000000 1.0
C      1  0.4505380000000  0.4988270000000  0.4647830000000 1.0
C      1  0.4894950000000  0.5614430000000  0.4659150000000 1.0
C      1  0.5577870000000  0.5042200000000  0.5058040000000 1.0
C      1  0.5214810000000  0.5058180000000  0.4358740000000 1.0
C      1  0.4388150000000  0.4906980000000  0.4907450000000 1.0
C      1  0.4767590000000  0.5654500000000  0.4921810000000 1.0
C      1  0.5491280000000  0.5080420000000  0.4530190000000 1.0
C      1  0.5078060000000  0.5452640000000  0.5246160000000 1.0
C      1  0.4541360000000  0.5284470000000  0.5182550000000 1.0
C      1  0.5310540000000  0.5341190000000  0.4798450000000 1.0
C      1  0.4785250000000  0.5382730000000  0.4520200000000 1.0
C      1  0.4497190000000  0.4688640000000  0.5093580000000 1.0
END
