TITL C-884127-5181-107 -21.6455103599669 125000 -17323.3429593743 0 0 116 (C1) n - 1
REM
REM in /home/nfs/bkarasulu/CARBON/AIRSS/Generating-Clusters/ReaxFF-fromJPCA2015/Units_Real/with-SteepDescent/Only-C1/SD-CG/Try1-3A/FIRE-CG
REM
REM
REM
REM
REM
REM ./C.cell (11c1c37f851c82e70ff6c80c92926a4b)
REM
REM compiler GCC version 9.2.1 20190827 (Red Hat 9.2.1-1)
REM options -cpp -mtune=generic -march=x86-64 -g -O0 -fpre-include=/usr/include/finclude/math-vector-fortran.h
REM seed -1906063545 -1431026949 1600109419 1058056334 -878345572 2101608525 -579097966 1140087312 1981742992 1430341712 -1803015906 -90082740 -1380544523 1223386613 -1046487323 1814448962 1193919080 -101009562 645169343 -2094591007 -378321026 997569669 -1496571258 51289595 -1845718860 981517911 -1127177613 -506937698 -2092941059 -771088964 1212287469 -647746803 -1066363995
REM
CELL 1.54180   50.00000   50.00000   50.00000   90.00000   90.00000   90.00000
LATT -1
SFAC C  
C      1  0.4931930000000  0.5891190000000  0.5275670000000 1.0
C      1  0.5521600000000  0.4387920000000  0.4986460000000 1.0
C      1  0.4721190000000  0.5105100000000  0.5832970000000 1.0
C      1  0.4182250000000  0.4482950000000  0.4928720000000 1.0
C      1  0.5185550000000  0.5835040000000  0.5125640000000 1.0
C      1  0.5624970000000  0.4795120000000  0.5207640000000 1.0
C      1  0.5112030000000  0.4231680000000  0.4910320000000 1.0
C      1  0.5703810000000  0.4624670000000  0.5446970000000 1.0
C      1  0.4845750000000  0.4154940000000  0.5565400000000 1.0
C      1  0.5082210000000  0.4756090000000  0.4114570000000 1.0
C      1  0.4218670000000  0.4890650000000  0.5287350000000 1.0
C      1  0.5006310000000  0.4261990000000  0.5793160000000 1.0
C      1  0.4119160000000  0.4620620000000  0.5350530000000 1.0
C      1  0.4998220000000  0.5163060000000  0.5901220000000 1.0
C      1  0.4614920000000  0.3922210000000  0.4926910000000 1.0
C      1  0.5365430000000  0.5335180000000  0.4700270000000 1.0
C      1  0.5268110000000  0.4281200000000  0.4660720000000 1.0
C      1  0.4032800000000  0.5018380000000  0.4945420000000 1.0
C      1  0.4568180000000  0.5713150000000  0.4459130000000 1.0
C      1  0.4770610000000  0.4860650000000  0.5409970000000 1.0
C      1  0.5754140000000  0.4785560000000  0.5665250000000 1.0
C      1  0.4575990000000  0.4319810000000  0.4602460000000 1.0
C      1  0.5668030000000  0.4845390000000  0.4449960000000 1.0
C      1  0.5179640000000  0.4809020000000  0.4623630000000 1.0
C      1  0.5195350000000  0.4647120000000  0.4372030000000 1.0
C      1  0.4751920000000  0.5762980000000  0.5083330000000 1.0
C      1  0.4381850000000  0.4875800000000  0.4463410000000 1.0
C      1  0.4697050000000  0.5872240000000  0.4657530000000 1.0
C      1  0.4618050000000  0.5240640000000  0.4623330000000 1.0
C      1  0.4414980000000  0.5340000000000  0.4330070000000 1.0
C      1  0.4566660000000  0.4875010000000  0.5684950000000 1.0
C      1  0.5086390000000  0.5240680000000  0.4710040000000 1.0
C      1  0.4880570000000  0.5202590000000  0.4524320000000 1.0
C      1  0.4600270000000  0.4339730000000  0.5554480000000 1.0
C      1  0.4632220000000  0.5354320000000  0.4885800000000 1.0
C      1  0.5047690000000  0.5753740000000  0.4365020000000 1.0
C      1  0.4804500000000  0.5425430000000  0.4083670000000 1.0
C      1  0.4082630000000  0.5302680000000  0.4954130000000 1.0
C      1  0.4848430000000  0.5509990000000  0.4976340000000 1.0
C      1  0.4443180000000  0.4945920000000  0.5043230000000 1.0
C      1  0.4782350000000  0.5158550000000  0.5335410000000 1.0
C      1  0.4063840000000  0.4752050000000  0.4830420000000 1.0
C      1  0.4591480000000  0.4861230000000  0.4281290000000 1.0
C      1  0.4545140000000  0.5896730000000  0.4914160000000 1.0
C      1  0.5708650000000  0.4617020000000  0.4594810000000 1.0
C      1  0.5562380000000  0.4449070000000  0.5514210000000 1.0
C      1  0.5028350000000  0.4459300000000  0.5080370000000 1.0
C      1  0.5425400000000  0.4205490000000  0.5211640000000 1.0
C      1  0.4474480000000  0.4253960000000  0.5312690000000 1.0
C      1  0.6197050000000  0.4570190000000  0.4768330000000 1.0
C      1  0.4202460000000  0.5529640000000  0.5139930000000 1.0
C      1  0.5637640000000  0.5085230000000  0.4317860000000 1.0
C      1  0.5319030000000  0.5088020000000  0.5867720000000 1.0
C      1  0.4960740000000  0.5442380000000  0.5833420000000 1.0
C      1  0.5339130000000  0.5412050000000  0.4082400000000 1.0
C      1  0.5891770000000  0.5280160000000  0.5519400000000 1.0
C      1  0.4599600000000  0.5189100000000  0.5113080000000 1.0
C      1  0.5501330000000  0.5158090000000  0.4884220000000 1.0
C      1  0.5959790000000  0.4678450000000  0.4803100000000 1.0
C      1  0.4315220000000  0.5255400000000  0.5509750000000 1.0
C      1  0.5907830000000  0.5263890000000  0.5222820000000 1.0
C      1  0.4579520000000  0.5583970000000  0.5570370000000 1.0
C      1  0.5507250000000  0.4867620000000  0.5825410000000 1.0
C      1  0.5062330000000  0.5322340000000  0.4982830000000 1.0
C      1  0.5290980000000  0.5670050000000  0.5330780000000 1.0
C      1  0.4623910000000  0.4580760000000  0.5725580000000 1.0
C      1  0.5528520000000  0.5509970000000  0.5307940000000 1.0
C      1  0.5539720000000  0.4393210000000  0.4696580000000 1.0
C      1  0.5310740000000  0.5640600000000  0.4266500000000 1.0
C      1  0.5733130000000  0.5372230000000  0.4423450000000 1.0
C      1  0.5344570000000  0.4334130000000  0.5440530000000 1.0
C      1  0.5536060000000  0.5621140000000  0.4455320000000 1.0
C      1  0.5645450000000  0.5322820000000  0.5100320000000 1.0
C      1  0.4348200000000  0.5722750000000  0.5011130000000 1.0
C      1  0.5090010000000  0.4381590000000  0.4449240000000 1.0
C      1  0.5209820000000  0.5811140000000  0.4826910000000 1.0
C      1  0.5467500000000  0.4672720000000  0.5001800000000 1.0
C      1  0.4318360000000  0.5530880000000  0.4510360000000 1.0
C      1  0.4597290000000  0.4089480000000  0.4769680000000 1.0
C      1  0.4821290000000  0.4469690000000  0.4527280000000 1.0
C      1  0.4907290000000  0.4712860000000  0.4677350000000 1.0
C      1  0.4928360000000  0.4033270000000  0.5307090000000 1.0
C      1  0.4304970000000  0.4989370000000  0.5557420000000 1.0
C      1  0.5123550000000  0.4505720000000  0.5352000000000 1.0
C      1  0.5055910000000  0.5561240000000  0.5550910000000 1.0
C      1  0.5899770000000  0.4825080000000  0.5058440000000 1.0
C      1  0.5016410000000  0.5309950000000  0.5394410000000 1.0
C      1  0.4911910000000  0.4552370000000  0.5780170000000 1.0
C      1  0.4237110000000  0.4385240000000  0.5199530000000 1.0
C      1  0.4811720000000  0.4897520000000  0.4124210000000 1.0
C      1  0.4216280000000  0.5301550000000  0.4698010000000 1.0
C      1  0.4787720000000  0.5668670000000  0.4260070000000 1.0
C      1  0.4850990000000  0.4663940000000  0.4966530000000 1.0
C      1  0.5288190000000  0.4907970000000  0.3975910000000 1.0
C      1  0.6031030000000  0.4987810000000  0.5252270000000 1.0
C      1  0.4992160000000  0.4688090000000  0.5529520000000 1.0
C      1  0.4996790000000  0.5857090000000  0.4629380000000 1.0
C      1  0.5416160000000  0.5632480000000  0.4718770000000 1.0
C      1  0.5172100000000  0.4063170000000  0.5139730000000 1.0
C      1  0.5937270000000  0.4992190000000  0.5541410000000 1.0
C      1  0.5226670000000  0.5230710000000  0.5209970000000 1.0
C      1  0.4320150000000  0.5508940000000  0.5422610000000 1.0
C      1  0.5450820000000  0.5136810000000  0.4093920000000 1.0
C      1  0.5637650000000  0.5427300000000  0.5577940000000 1.0
C      1  0.4817180000000  0.5737770000000  0.5500930000000 1.0
C      1  0.4673800000000  0.5402840000000  0.5790780000000 1.0
C      1  0.4181400000000  0.4682210000000  0.4562920000000 1.0
C      1  0.5468430000000  0.5271940000000  0.5732090000000 1.0
C      1  0.4405540000000  0.5062330000000  0.4708290000000 1.0
C      1  0.4653840000000  0.4769750000000  0.5140160000000 1.0
C      1  0.4881280000000  0.5176540000000  0.4229130000000 1.0
C      1  0.4656530000000  0.4038210000000  0.5190130000000 1.0
C      1  0.5407360000000  0.5019490000000  0.5269090000000 1.0
C      1  0.5968630000000  0.5391800000000  0.4518320000000 1.0
C      1  0.4310070000000  0.4441300000000  0.4670120000000 1.0
C      1  0.5383370000000  0.4882970000000  0.4829430000000 1.0
END
