TITL C-884137-4758-20 2274652.66781202 125000 -14201.345704627 0 0 96 (C1) n - 1
REM
REM in /home/nfs/bkarasulu/CARBON/AIRSS/Generating-Clusters/ReaxFF-fromJPCA2015/Units_Real/with-SteepDescent/Only-C1/SD-CG/Try1-3A/FIRE-CG
REM
REM
REM
REM
REM
REM ./C.cell (11c1c37f851c82e70ff6c80c92926a4b)
REM
REM compiler GCC version 9.2.1 20190827 (Red Hat 9.2.1-1)
REM options -cpp -mtune=generic -march=x86-64 -g -O0 -fpre-include=/usr/include/finclude/math-vector-fortran.h
REM seed -1115246962 -93492451 89507111 1522036310 -1109436763 -1638234697 1364390680 1573518844 -1816355008 1139355999 -857420852 -1106370869 1530031680 1787841680 153338745 161423250 845219308 -2059491979 1249127141 -500072627 521200758 -1739801732 -1063422724 -1403345986 -888039667 1604881805 -370842489 -39536315 -1791868152 1289679126 393465349 1039648694 -695432273
REM
CELL 1.54180   50.00000   50.00000   50.00000   90.00000   90.00000   90.00000
LATT -1
SFAC C  
C      1  0.4947800000000  0.5222440000000  0.5216140000000 1.0
C      1  0.5759800000000  0.4849300000000  0.4790110000000 1.0
C      1  0.4265840000000  0.4518330000000  0.4868820000000 1.0
C      1  0.5161480000000  0.5904860000000  0.5150380000000 1.0
C      1  0.4929350000000  0.4298040000000  0.4520940000000 1.0
C      1  0.5166440000000  0.4420760000000  0.4651970000000 1.0
C      1  0.4427310000000  0.5594110000000  0.5049740000000 1.0
C      1  0.5603240000000  0.5573510000000  0.4550090000000 1.0
C      1  0.4418230000000  0.4686960000000  0.4438660000000 1.0
C      1  0.4199600000000  0.4912520000000  0.5174910000000 1.0
C      1  0.4391350000000  0.4439820000000  0.4613130000000 1.0
C      1  0.5048400000000  0.5020140000000  0.4523990000000 1.0
C      1  0.4336760000000  0.4667500000000  0.5277510000000 1.0
C      1  0.5401860000000  0.4323680000000  0.5036580000000 1.0
C      1  0.5386270000000  0.5906290000000  0.4950760000000 1.0
C      1  0.4473920000000  0.5203570000000  0.4861490000000 1.0
C      1  0.5155330000000  0.4293370000000  0.5153120000000 1.0
C      1  0.4976700000000  0.5309740000000  0.4957170000000 1.0
C      1  0.5437660000000  0.4555480000000  0.5481150000000 1.0
C      1  0.5210450000000  0.4424970000000  0.5608320000000 1.0
C      1  0.4330380000000  0.5454670000000  0.4811460000000 1.0
C      1  0.4981170000000  0.4451940000000  0.4290960000000 1.0
C      1  0.5076960000000  0.4892580000000  0.4757560000000 1.0
C      1  0.4601950000000  0.4263950000000  0.5164760000000 1.0
C      1  0.5470310000000  0.5419100000000  0.5171470000000 1.0
C      1  0.4727810000000  0.4612340000000  0.4838750000000 1.0
C      1  0.5076130000000  0.4602070000000  0.5138100000000 1.0
C      1  0.5432610000000  0.5106310000000  0.4197420000000 1.0
C      1  0.4840120000000  0.4741710000000  0.5253720000000 1.0
C      1  0.4337850000000  0.4402400000000  0.5129070000000 1.0
C      1  0.4721840000000  0.4294610000000  0.4898360000000 1.0
C      1  0.5558830000000  0.5752720000000  0.4779240000000 1.0
C      1  0.4732980000000  0.5170570000000  0.4244960000000 1.0
C      1  0.4566980000000  0.5093420000000  0.5766200000000 1.0
C      1  0.4822570000000  0.5595650000000  0.5259200000000 1.0
C      1  0.4696830000000  0.5715830000000  0.4999760000000 1.0
C      1  0.4845870000000  0.4896230000000  0.4341340000000 1.0
C      1  0.4906800000000  0.5597160000000  0.4409450000000 1.0
C      1  0.5030330000000  0.4636740000000  0.4841730000000 1.0
C      1  0.4774280000000  0.4252910000000  0.5408590000000 1.0
C      1  0.4610190000000  0.4709010000000  0.5093950000000 1.0
C      1  0.4887840000000  0.5945830000000  0.5041360000000 1.0
C      1  0.5615140000000  0.4444060000000  0.4908540000000 1.0
C      1  0.5621560000000  0.5207860000000  0.5553390000000 1.0
C      1  0.4763380000000  0.4393230000000  0.5677230000000 1.0
C      1  0.5562640000000  0.4967760000000  0.5703880000000 1.0
C      1  0.4744250000000  0.5315270000000  0.4789420000000 1.0
C      1  0.4670380000000  0.5462040000000  0.5465840000000 1.0
C      1  0.4521380000000  0.4523940000000  0.5722310000000 1.0
C      1  0.4184890000000  0.4803970000000  0.4905580000000 1.0
C      1  0.5654220000000  0.4733740000000  0.5543720000000 1.0
C      1  0.5370720000000  0.4998180000000  0.5118200000000 1.0
C      1  0.5271800000000  0.4982900000000  0.5753450000000 1.0
C      1  0.5761150000000  0.4698330000000  0.5026610000000 1.0
C      1  0.5459290000000  0.4469840000000  0.4651440000000 1.0
C      1  0.4638380000000  0.4270290000000  0.4628190000000 1.0
C      1  0.5192710000000  0.5132110000000  0.5287430000000 1.0
C      1  0.4430510000000  0.5423220000000  0.5290840000000 1.0
C      1  0.4536910000000  0.5058270000000  0.5463830000000 1.0
C      1  0.5585400000000  0.4880670000000  0.4325370000000 1.0
C      1  0.5716290000000  0.5287980000000  0.5100440000000 1.0
C      1  0.5062340000000  0.4230850000000  0.5423420000000 1.0
C      1  0.4476610000000  0.5217460000000  0.4367670000000 1.0
C      1  0.5372000000000  0.5564600000000  0.4356910000000 1.0
C      1  0.5410410000000  0.5131400000000  0.4856630000000 1.0
C      1  0.4895050000000  0.5350080000000  0.5633310000000 1.0
C      1  0.5695510000000  0.5150600000000  0.4323970000000 1.0
C      1  0.5783730000000  0.5116500000000  0.5324480000000 1.0
C      1  0.5160500000000  0.5709030000000  0.4481050000000 1.0
C      1  0.5150550000000  0.5495640000000  0.5549740000000 1.0
C      1  0.4289490000000  0.5009990000000  0.4727820000000 1.0
C      1  0.4677920000000  0.4732990000000  0.4539380000000 1.0
C      1  0.5285600000000  0.4996400000000  0.4658970000000 1.0
C      1  0.5258520000000  0.5404790000000  0.4942650000000 1.0
C      1  0.4320780000000  0.4669630000000  0.5611120000000 1.0
C      1  0.5746380000000  0.5163630000000  0.4818770000000 1.0
C      1  0.5025090000000  0.4849960000000  0.5844130000000 1.0
C      1  0.4863090000000  0.5103370000000  0.5792680000000 1.0
C      1  0.5075080000000  0.5705210000000  0.5362550000000 1.0
C      1  0.4704440000000  0.5565880000000  0.4628140000000 1.0
C      1  0.4325660000000  0.4973710000000  0.4443270000000 1.0
C      1  0.4439980000000  0.5469580000000  0.4534800000000 1.0
C      1  0.5185160000000  0.4926000000000  0.5475490000000 1.0
C      1  0.4975020000000  0.4664760000000  0.4122360000000 1.0
C      1  0.4949520000000  0.5363860000000  0.4235520000000 1.0
C      1  0.4780680000000  0.5015600000000  0.5311330000000 1.0
C      1  0.5740720000000  0.5319340000000  0.4560840000000 1.0
C      1  0.5614470000000  0.4716350000000  0.4569630000000 1.0
C      1  0.5248470000000  0.5330330000000  0.4229220000000 1.0
C      1  0.4305500000000  0.5154800000000  0.5307590000000 1.0
C      1  0.5784470000000  0.4822210000000  0.5292180000000 1.0
C      1  0.5003970000000  0.4569510000000  0.5747790000000 1.0
C      1  0.5254990000000  0.5695770000000  0.4778050000000 1.0
C      1  0.5309790000000  0.4738670000000  0.5265200000000 1.0
C      1  0.5419150000000  0.5406490000000  0.5458210000000 1.0
C      1  0.4379930000000  0.4878240000000  0.5797060000000 1.0
END
