TITL C-884136-4169-229 0.894693685805061 125000 -7557.77271091749 0 0 51 (C1) n - 1
REM
REM in /home/nfs/bkarasulu/CARBON/AIRSS/Generating-Clusters/ReaxFF-fromJPCA2015/Units_Real/with-SteepDescent/Only-C1/SD-CG/Try1-3A/FIRE-CG
REM
REM
REM
REM
REM
REM ./C.cell (11c1c37f851c82e70ff6c80c92926a4b)
REM
REM compiler GCC version 9.2.1 20190827 (Red Hat 9.2.1-1)
REM options -cpp -mtune=generic -march=x86-64 -g -O0 -fpre-include=/usr/include/finclude/math-vector-fortran.h
REM seed 1622325435 -1665397630 -538177459 -1046959517 -2060175066 -1871534651 112073923 2053650091 -1743298609 -1402340871 -1240627423 1332391185 -519500437 -148578837 936103991 1591038261 1281939013 -2011904801 1331861883 22300351 -1171968782 -1031035589 -696364978 -369177398 337265790 1876688183 923283635 989107905 1943741849 630805674 -151253975 -6259979 -704186099
REM
CELL 1.54180   50.00000   50.00000   50.00000   90.00000   90.00000   90.00000
LATT -1
SFAC C  
C      1  0.4874540000000  0.5386170000000  0.4757690000000 1.0
C      1  0.4800170000000  0.5465280000000  0.5449530000000 1.0
C      1  0.5147210000000  0.5120240000000  0.5443660000000 1.0
C      1  0.4366440000000  0.5111180000000  0.4711330000000 1.0
C      1  0.4542690000000  0.4853180000000  0.5077680000000 1.0
C      1  0.4949050000000  0.4698300000000  0.5613600000000 1.0
C      1  0.5484000000000  0.5278070000000  0.5164720000000 1.0
C      1  0.5412040000000  0.5094570000000  0.5374940000000 1.0
C      1  0.5417780000000  0.5417300000000  0.4511510000000 1.0
C      1  0.5043330000000  0.4739190000000  0.4989150000000 1.0
C      1  0.5430570000000  0.5598620000000  0.4729920000000 1.0
C      1  0.4712830000000  0.5718910000000  0.4960230000000 1.0
C      1  0.4602550000000  0.4495820000000  0.5351620000000 1.0
C      1  0.4945470000000  0.4969950000000  0.5602180000000 1.0
C      1  0.5618760000000  0.4796910000000  0.5054320000000 1.0
C      1  0.4555700000000  0.4781010000000  0.5357580000000 1.0
C      1  0.5253370000000  0.4939230000000  0.4405930000000 1.0
C      1  0.5051080000000  0.4531190000000  0.4781750000000 1.0
C      1  0.4928210000000  0.5268140000000  0.4488840000000 1.0
C      1  0.4594370000000  0.5258800000000  0.5428270000000 1.0
C      1  0.4623190000000  0.4385590000000  0.5085750000000 1.0
C      1  0.5193240000000  0.4657360000000  0.5227390000000 1.0
C      1  0.4956050000000  0.5670710000000  0.4825610000000 1.0
C      1  0.4842940000000  0.4951170000000  0.4994990000000 1.0
C      1  0.5467770000000  0.4349750000000  0.5004470000000 1.0
C      1  0.5206570000000  0.5238400000000  0.4423160000000 1.0
C      1  0.4782320000000  0.5023730000000  0.4412160000000 1.0
C      1  0.4377590000000  0.5118320000000  0.5003810000000 1.0
C      1  0.4975880000000  0.4809900000000  0.4392540000000 1.0
C      1  0.5601950000000  0.5380450000000  0.4730700000000 1.0
C      1  0.4847970000000  0.4342480000000  0.5286680000000 1.0
C      1  0.4436180000000  0.5333750000000  0.5189100000000 1.0
C      1  0.5216020000000  0.4317370000000  0.4877480000000 1.0
C      1  0.5230420000000  0.4369320000000  0.5166560000000 1.0
C      1  0.4959930000000  0.4415050000000  0.5570380000000 1.0
C      1  0.5649240000000  0.4929630000000  0.4808710000000 1.0
C      1  0.5604550000000  0.4574620000000  0.4985320000000 1.0
C      1  0.4604170000000  0.4652990000000  0.4636610000000 1.0
C      1  0.4536690000000  0.4926040000000  0.4542610000000 1.0
C      1  0.5039920000000  0.5346970000000  0.5275340000000 1.0
C      1  0.5235870000000  0.5640950000000  0.4928640000000 1.0
C      1  0.5469300000000  0.4859420000000  0.4571820000000 1.0
C      1  0.4914230000000  0.5226010000000  0.4996600000000 1.0
C      1  0.4533650000000  0.4595680000000  0.4910290000000 1.0
C      1  0.5274390000000  0.5476780000000  0.5153910000000 1.0
C      1  0.5411790000000  0.4836410000000  0.5294080000000 1.0
C      1  0.5610670000000  0.5177950000000  0.4925640000000 1.0
C      1  0.4632470000000  0.5668470000000  0.5351050000000 1.0
C      1  0.4879720000000  0.4587160000000  0.4549370000000 1.0
C      1  0.4670850000000  0.4986930000000  0.5515340000000 1.0
C      1  0.4484320000000  0.5628580000000  0.5109440000000 1.0
END
