TITL C-883734-4173-154 9.10570834205669 125000 -24272.2855256646 0 0 162 (C1) n - 1
REM
REM in /home/nfs/bkarasulu/CARBON/AIRSS/Generating-Clusters/ReaxFF-fromJPCA2015/Units_Real/with-SteepDescent/Only-C1/SD-CG/Try1-3A/FIRE-CG
REM
REM
REM
REM
REM
REM ./C.cell (11c1c37f851c82e70ff6c80c92926a4b)
REM
REM compiler GCC version 9.2.1 20190827 (Red Hat 9.2.1-1)
REM options -cpp -mtune=generic -march=x86-64 -g -O0 -fpre-include=/usr/include/finclude/math-vector-fortran.h
REM seed -1415988198 -437294904 -1668308438 1308481249 -2124620938 768836716 1250248417 839133894 1924912311 -128786573 -1284796211 -1141448197 249573687 -890381566 2139257746 1604715231 -1347861768 534917467 290615380 1754712971 541333982 -101412216 -675146940 -1975827120 -936722650 -1299923406 -553108281 1668459317 24912144 1237944933 1183462110 1125970677 -1297733506
REM
CELL 1.54180   50.00000   50.00000   50.00000   90.00000   90.00000   90.00000
LATT -1
SFAC C  
C      1  0.4476280000000  0.4720380000000  0.4094130000000 1.0
C      1  0.5290900000000  0.4856370000000  0.5540150000000 1.0
C      1  0.4266120000000  0.4609380000000  0.4489920000000 1.0
C      1  0.4416740000000  0.4058510000000  0.5108580000000 1.0
C      1  0.5150440000000  0.4752780000000  0.5761710000000 1.0
C      1  0.4816500000000  0.5245250000000  0.5881760000000 1.0
C      1  0.5006560000000  0.5893170000000  0.6133140000000 1.0
C      1  0.4101460000000  0.4394860000000  0.5056770000000 1.0
C      1  0.5170560000000  0.4674710000000  0.3967600000000 1.0
C      1  0.4245400000000  0.5698990000000  0.5117200000000 1.0
C      1  0.4859140000000  0.5540210000000  0.5798380000000 1.0
C      1  0.6046080000000  0.4864190000000  0.5088980000000 1.0
C      1  0.5187310000000  0.5059230000000  0.4886870000000 1.0
C      1  0.4560190000000  0.5854510000000  0.5328730000000 1.0
C      1  0.5735000000000  0.5332600000000  0.5327610000000 1.0
C      1  0.4350550000000  0.5651480000000  0.5382050000000 1.0
C      1  0.5171160000000  0.5950610000000  0.4889050000000 1.0
C      1  0.4964560000000  0.3823310000000  0.4897910000000 1.0
C      1  0.4981960000000  0.5102870000000  0.3901570000000 1.0
C      1  0.6006520000000  0.4832030000000  0.4338240000000 1.0
C      1  0.4134260000000  0.5157850000000  0.4345360000000 1.0
C      1  0.5563510000000  0.4888530000000  0.4620210000000 1.0
C      1  0.5674790000000  0.5774210000000  0.4879610000000 1.0
C      1  0.4508270000000  0.5096330000000  0.5025590000000 1.0
C      1  0.5005780000000  0.5310820000000  0.4529800000000 1.0
C      1  0.5469940000000  0.4385070000000  0.4980940000000 1.0
C      1  0.5589240000000  0.5275950000000  0.4076850000000 1.0
C      1  0.5339680000000  0.4303730000000  0.5795280000000 1.0
C      1  0.5440340000000  0.4273270000000  0.4492680000000 1.0
C      1  0.5735300000000  0.5817680000000  0.5162980000000 1.0
C      1  0.5136440000000  0.5497810000000  0.4697110000000 1.0
C      1  0.5096680000000  0.5584160000000  0.4077720000000 1.0
C      1  0.4330390000000  0.4391190000000  0.5520500000000 1.0
C      1  0.4600780000000  0.4656420000000  0.5358910000000 1.0
C      1  0.4941230000000  0.5779980000000  0.4249690000000 1.0
C      1  0.6005610000000  0.4622420000000  0.4918580000000 1.0
C      1  0.5616140000000  0.4344730000000  0.4707270000000 1.0
C      1  0.5398180000000  0.5598900000000  0.5656900000000 1.0
C      1  0.4462610000000  0.5543730000000  0.4296050000000 1.0
C      1  0.5050350000000  0.5040670000000  0.4617040000000 1.0
C      1  0.5755650000000  0.5382760000000  0.4513770000000 1.0
C      1  0.5484200000000  0.4692020000000  0.5133150000000 1.0
C      1  0.4756280000000  0.4950190000000  0.5035090000000 1.0
C      1  0.5578580000000  0.4221600000000  0.5650560000000 1.0
C      1  0.5322140000000  0.3938690000000  0.5066760000000 1.0
C      1  0.5842580000000  0.5565090000000  0.4735120000000 1.0
C      1  0.5449930000000  0.5711820000000  0.4286540000000 1.0
C      1  0.5867770000000  0.4500720000000  0.4693780000000 1.0
C      1  0.4992010000000  0.6016920000000  0.4650740000000 1.0
C      1  0.5906020000000  0.4860820000000  0.5348260000000 1.0
C      1  0.5304410000000  0.5351630000000  0.4543440000000 1.0
C      1  0.5509560000000  0.4143640000000  0.5140370000000 1.0
C      1  0.5209030000000  0.4108600000000  0.4550000000000 1.0
C      1  0.5118790000000  0.4558890000000  0.4685550000000 1.0
C      1  0.5126940000000  0.4902290000000  0.4376930000000 1.0
C      1  0.4840510000000  0.5033080000000  0.5671970000000 1.0
C      1  0.4981240000000  0.4924780000000  0.6215050000000 1.0
C      1  0.5823230000000  0.5100260000000  0.5489870000000 1.0
C      1  0.5186740000000  0.4406970000000  0.4909230000000 1.0
C      1  0.5314980000000  0.5253950000000  0.6058060000000 1.0
C      1  0.4847260000000  0.5669720000000  0.4991010000000 1.0
C      1  0.5300760000000  0.6075290000000  0.5327390000000 1.0
C      1  0.4527640000000  0.5346130000000  0.4884610000000 1.0
C      1  0.4888070000000  0.4351790000000  0.4228090000000 1.0
C      1  0.4761930000000  0.5352990000000  0.5343640000000 1.0
C      1  0.4404430000000  0.4868040000000  0.4466990000000 1.0
C      1  0.4666120000000  0.5280110000000  0.4570370000000 1.0
C      1  0.4960830000000  0.4381490000000  0.5069670000000 1.0
C      1  0.5075570000000  0.4165650000000  0.5745470000000 1.0
C      1  0.4868750000000  0.4732840000000  0.5737480000000 1.0
C      1  0.4375210000000  0.4978050000000  0.5487590000000 1.0
C      1  0.5054480000000  0.6000380000000  0.5198260000000 1.0
C      1  0.4977860000000  0.5373380000000  0.3976390000000 1.0
C      1  0.4488590000000  0.5176390000000  0.5916290000000 1.0
C      1  0.5440070000000  0.5449340000000  0.5897540000000 1.0
C      1  0.4224250000000  0.5449610000000  0.5553740000000 1.0
C      1  0.4789510000000  0.4221870000000  0.5793930000000 1.0
C      1  0.5834330000000  0.5299590000000  0.4232330000000 1.0
C      1  0.4282880000000  0.4755610000000  0.5013000000000 1.0
C      1  0.5822620000000  0.4742680000000  0.4511520000000 1.0
C      1  0.4679000000000  0.5100010000000  0.5450900000000 1.0
C      1  0.4585110000000  0.3885820000000  0.5261220000000 1.0
C      1  0.3877180000000  0.5423970000000  0.4814640000000 1.0
C      1  0.4436590000000  0.5906780000000  0.5063620000000 1.0
C      1  0.4694200000000  0.4694960000000  0.6031710000000 1.0
C      1  0.5143980000000  0.4424990000000  0.4116010000000 1.0
C      1  0.5445290000000  0.5129720000000  0.4964750000000 1.0
C      1  0.5388320000000  0.4510380000000  0.4281900000000 1.0
C      1  0.5496870000000  0.4995130000000  0.3975210000000 1.0
C      1  0.5697970000000  0.4649990000000  0.5389430000000 1.0
C      1  0.4017890000000  0.4691420000000  0.4610200000000 1.0
C      1  0.5538630000000  0.5188330000000  0.4556930000000 1.0
C      1  0.5628210000000  0.5756750000000  0.5564790000000 1.0
C      1  0.4550470000000  0.4927420000000  0.5995480000000 1.0
C      1  0.5750670000000  0.4376690000000  0.5485600000000 1.0
C      1  0.5448700000000  0.4706720000000  0.4039890000000 1.0
C      1  0.4384840000000  0.5033580000000  0.4222050000000 1.0
C      1  0.5417550000000  0.5517000000000  0.4107920000000 1.0
C      1  0.5079380000000  0.4132480000000  0.5452740000000 1.0
C      1  0.4974860000000  0.4373960000000  0.5346040000000 1.0
C      1  0.4551530000000  0.3937270000000  0.5552620000000 1.0
C      1  0.4377190000000  0.4676740000000  0.5551100000000 1.0
C      1  0.5116080000000  0.3898160000000  0.5275150000000 1.0
C      1  0.5666230000000  0.5027880000000  0.5722870000000 1.0
C      1  0.4037440000000  0.4620250000000  0.4899360000000 1.0
C      1  0.4929970000000  0.4163690000000  0.4448320000000 1.0
C      1  0.5365650000000  0.4586720000000  0.5843140000000 1.0
C      1  0.4315300000000  0.5553780000000  0.4880900000000 1.0
C      1  0.4935680000000  0.5723480000000  0.5972200000000 1.0
C      1  0.4515560000000  0.4205900000000  0.5680860000000 1.0
C      1  0.5208230000000  0.5549060000000  0.5455200000000 1.0
C      1  0.4670190000000  0.5755260000000  0.4352600000000 1.0
C      1  0.4795050000000  0.4878730000000  0.4741670000000 1.0
C      1  0.3923080000000  0.5457960000000  0.5115210000000 1.0
C      1  0.3961730000000  0.4975530000000  0.4513310000000 1.0
C      1  0.4633100000000  0.4479950000000  0.4124160000000 1.0
C      1  0.4733280000000  0.4477930000000  0.4940590000000 1.0
C      1  0.4833060000000  0.4572110000000  0.5490970000000 1.0
C      1  0.4195230000000  0.5439990000000  0.4403880000000 1.0
C      1  0.4711650000000  0.4113910000000  0.4623640000000 1.0
C      1  0.5801060000000  0.5613250000000  0.5371570000000 1.0
C      1  0.5240250000000  0.4807280000000  0.5260550000000 1.0
C      1  0.5561410000000  0.4889560000000  0.4922800000000 1.0
C      1  0.4111480000000  0.5537710000000  0.4669480000000 1.0
C      1  0.3982370000000  0.5377350000000  0.5399970000000 1.0
C      1  0.4246710000000  0.4258910000000  0.5255840000000 1.0
C      1  0.4860830000000  0.4709570000000  0.6259750000000 1.0
C      1  0.5126480000000  0.5618300000000  0.4955890000000 1.0
C      1  0.5298510000000  0.4710830000000  0.4492560000000 1.0
C      1  0.6029900000000  0.5129980000000  0.4970030000000 1.0
C      1  0.5556760000000  0.5199980000000  0.5916870000000 1.0
C      1  0.4520200000000  0.4598420000000  0.5089830000000 1.0
C      1  0.4862670000000  0.3800690000000  0.5154050000000 1.0
C      1  0.4349700000000  0.4503310000000  0.4222910000000 1.0
C      1  0.5267800000000  0.5117670000000  0.3861940000000 1.0
C      1  0.4313630000000  0.5202200000000  0.5684030000000 1.0
C      1  0.5124260000000  0.5960580000000  0.4398550000000 1.0
C      1  0.5198890000000  0.3926060000000  0.4787550000000 1.0
C      1  0.4512960000000  0.4074830000000  0.4820790000000 1.0
C      1  0.4715640000000  0.5929510000000  0.4590910000000 1.0
C      1  0.3881110000000  0.5180920000000  0.4680540000000 1.0
C      1  0.4718680000000  0.5442840000000  0.5084480000000 1.0
C      1  0.4262270000000  0.5017960000000  0.5175820000000 1.0
C      1  0.5647050000000  0.4145010000000  0.5383460000000 1.0
C      1  0.5977030000000  0.5355670000000  0.4861780000000 1.0
C      1  0.5042650000000  0.5160830000000  0.6089670000000 1.0
C      1  0.5444380000000  0.5911000000000  0.4769080000000 1.0
C      1  0.5582440000000  0.5972330000000  0.5367730000000 1.0
C      1  0.4002620000000  0.5186830000000  0.5190030000000 1.0
C      1  0.5277260000000  0.5504270000000  0.5194000000000 1.0
C      1  0.5036320000000  0.4964550000000  0.5113290000000 1.0
C      1  0.5962090000000  0.5047940000000  0.4262060000000 1.0
C      1  0.4838160000000  0.4599930000000  0.4709870000000 1.0
C      1  0.4926200000000  0.5584020000000  0.5498380000000 1.0
C      1  0.5546780000000  0.4770690000000  0.5658290000000 1.0
C      1  0.4566420000000  0.5276850000000  0.4290940000000 1.0
C      1  0.4664580000000  0.5858910000000  0.4872470000000 1.0
C      1  0.5492250000000  0.5318810000000  0.5163690000000 1.0
C      1  0.5018690000000  0.4884620000000  0.4110750000000 1.0
C      1  0.5411960000000  0.5917510000000  0.4471440000000 1.0
C      1  0.4846330000000  0.5861430000000  0.5354880000000 1.0
C      1  0.4597600000000  0.4996190000000  0.4593740000000 1.0
END
