TITL C-883727-9645-209 48.3540139080451 125000 -18619.4555797823 0 0 128 (C1) n - 1
REM
REM in /home/nfs/bkarasulu/CARBON/AIRSS/Generating-Clusters/ReaxFF-fromJPCA2015/Units_Real/with-SteepDescent/Only-C1/SD-CG/Try1-3A/FIRE-CG
REM
REM
REM
REM
REM
REM ./C.cell (11c1c37f851c82e70ff6c80c92926a4b)
REM
REM compiler GCC version 9.2.1 20190827 (Red Hat 9.2.1-1)
REM options -cpp -mtune=generic -march=x86-64 -g -O0 -fpre-include=/usr/include/finclude/math-vector-fortran.h
REM seed -1583485510 -198676014 472426044 1297268317 -1936373431 -6894573 134714348 160566293 -1373603337 385605196 748424807 -240090764 -1008260392 494061019 2061726112 1957576670 -136700907 -1890960245 -1571016051 32632153 844316645 -1949910177 1330896748 178316850 -1044369167 1490475965 -317919120 2075802768 1190274084 -558391203 866145288 1066334450 285319011
REM
CELL 1.54180   50.00000   50.00000   50.00000   90.00000   90.00000   90.00000
LATT -1
SFAC C  
C      1  0.4796370000000  0.4910980000000  0.5471810000000 1.0
C      1  0.4254500000000  0.4839470000000  0.4884740000000 1.0
C      1  0.4743240000000  0.4728730000000  0.4152820000000 1.0
C      1  0.5450620000000  0.4243440000000  0.5365150000000 1.0
C      1  0.4579810000000  0.4222230000000  0.5170590000000 1.0
C      1  0.5294750000000  0.4776450000000  0.5674830000000 1.0
C      1  0.5763280000000  0.4879310000000  0.5380200000000 1.0
C      1  0.5698690000000  0.4519110000000  0.4783410000000 1.0
C      1  0.4647720000000  0.5590090000000  0.5096390000000 1.0
C      1  0.4315760000000  0.4996910000000  0.5557240000000 1.0
C      1  0.4544280000000  0.5424950000000  0.5686000000000 1.0
C      1  0.5036240000000  0.5362040000000  0.5919890000000 1.0
C      1  0.5254980000000  0.4268750000000  0.4947890000000 1.0
C      1  0.4863810000000  0.5182000000000  0.5874420000000 1.0
C      1  0.5228870000000  0.5437970000000  0.4194350000000 1.0
C      1  0.4293680000000  0.4532370000000  0.4450820000000 1.0
C      1  0.4866760000000  0.5190590000000  0.5522340000000 1.0
C      1  0.5313100000000  0.5279710000000  0.4435250000000 1.0
C      1  0.5699170000000  0.4805410000000  0.5098700000000 1.0
C      1  0.5921010000000  0.4925290000000  0.4198130000000 1.0
C      1  0.5195100000000  0.5566850000000  0.5844660000000 1.0
C      1  0.4203060000000  0.5521010000000  0.5104690000000 1.0
C      1  0.5032630000000  0.4422460000000  0.4591500000000 1.0
C      1  0.4515390000000  0.4335360000000  0.4395080000000 1.0
C      1  0.4394830000000  0.5727400000000  0.5007200000000 1.0
C      1  0.5873730000000  0.5125470000000  0.4799320000000 1.0
C      1  0.4847800000000  0.5934800000000  0.5126320000000 1.0
C      1  0.5257340000000  0.4953540000000  0.5227880000000 1.0
C      1  0.4526610000000  0.5148090000000  0.5051170000000 1.0
C      1  0.4028230000000  0.5061620000000  0.5142420000000 1.0
C      1  0.5409320000000  0.4167370000000  0.4484480000000 1.0
C      1  0.5092570000000  0.4188730000000  0.4745120000000 1.0
C      1  0.5767690000000  0.5553070000000  0.5184300000000 1.0
C      1  0.4574130000000  0.5196070000000  0.5862750000000 1.0
C      1  0.4717700000000  0.4444620000000  0.4215520000000 1.0
C      1  0.5161370000000  0.4353710000000  0.5324920000000 1.0
C      1  0.4705650000000  0.5763190000000  0.5324790000000 1.0
C      1  0.5007230000000  0.4860040000000  0.4118960000000 1.0
C      1  0.5716460000000  0.4621950000000  0.5498480000000 1.0
C      1  0.5471550000000  0.5465990000000  0.5778800000000 1.0
C      1  0.5215810000000  0.5043840000000  0.4558040000000 1.0
C      1  0.4756570000000  0.5888200000000  0.4847370000000 1.0
C      1  0.5554630000000  0.4415510000000  0.4522910000000 1.0
C      1  0.5426260000000  0.6007610000000  0.5213040000000 1.0
C      1  0.5409200000000  0.5189730000000  0.5287490000000 1.0
C      1  0.4956520000000  0.4312840000000  0.4326100000000 1.0
C      1  0.5012360000000  0.4950020000000  0.5939680000000 1.0
C      1  0.4797640000000  0.4675540000000  0.5074940000000 1.0
C      1  0.4971350000000  0.4579840000000  0.5298960000000 1.0
C      1  0.4915730000000  0.5325190000000  0.5292160000000 1.0
C      1  0.4512980000000  0.4861090000000  0.5099280000000 1.0
C      1  0.4992930000000  0.5904510000000  0.4667810000000 1.0
C      1  0.5494340000000  0.5178870000000  0.5760280000000 1.0
C      1  0.5685840000000  0.4990690000000  0.4199860000000 1.0
C      1  0.4550260000000  0.4457000000000  0.5601170000000 1.0
C      1  0.5020980000000  0.5666670000000  0.5620190000000 1.0
C      1  0.5277630000000  0.4373600000000  0.5780380000000 1.0
C      1  0.5660320000000  0.5142160000000  0.5503630000000 1.0
C      1  0.5702980000000  0.4394210000000  0.5311730000000 1.0
C      1  0.4572720000000  0.4930190000000  0.4301400000000 1.0
C      1  0.5082390000000  0.4101770000000  0.5264910000000 1.0
C      1  0.4176790000000  0.4489790000000  0.4697670000000 1.0
C      1  0.4982800000000  0.4432150000000  0.5782680000000 1.0
C      1  0.5257590000000  0.5709800000000  0.4297430000000 1.0
C      1  0.5492700000000  0.5273350000000  0.4905460000000 1.0
C      1  0.4076990000000  0.5301670000000  0.4956600000000 1.0
C      1  0.5447220000000  0.4656770000000  0.4382040000000 1.0
C      1  0.5418230000000  0.4829550000000  0.4617350000000 1.0
C      1  0.4419010000000  0.4409280000000  0.5335420000000 1.0
C      1  0.5136430000000  0.6018470000000  0.5238450000000 1.0
C      1  0.4874950000000  0.4693320000000  0.5878700000000 1.0
C      1  0.4976840000000  0.5351020000000  0.4090240000000 1.0
C      1  0.5039470000000  0.5071600000000  0.4781460000000 1.0
C      1  0.4757040000000  0.5714510000000  0.4279420000000 1.0
C      1  0.5301420000000  0.4989120000000  0.5870400000000 1.0
C      1  0.4456270000000  0.4937740000000  0.5805500000000 1.0
C      1  0.4956800000000  0.4803370000000  0.4841810000000 1.0
C      1  0.5475550000000  0.5378080000000  0.4645010000000 1.0
C      1  0.4726750000000  0.5637820000000  0.5589800000000 1.0
C      1  0.4754830000000  0.4711720000000  0.4651640000000 1.0
C      1  0.4671510000000  0.4982010000000  0.4577760000000 1.0
C      1  0.5288400000000  0.5416450000000  0.4986910000000 1.0
C      1  0.5000300000000  0.5823780000000  0.4387360000000 1.0
C      1  0.5557070000000  0.5771250000000  0.5125110000000 1.0
C      1  0.5459190000000  0.4131770000000  0.5096640000000 1.0
C      1  0.4872770000000  0.4052840000000  0.4436700000000 1.0
C      1  0.5783900000000  0.5441550000000  0.5429690000000 1.0
C      1  0.5452490000000  0.5750170000000  0.4506880000000 1.0
C      1  0.5496180000000  0.4571720000000  0.5704920000000 1.0
C      1  0.5045850000000  0.5292510000000  0.4982590000000 1.0
C      1  0.5684440000000  0.5546450000000  0.4528160000000 1.0
C      1  0.4632930000000  0.4146460000000  0.4586280000000 1.0
C      1  0.4599540000000  0.4687360000000  0.5793180000000 1.0
C      1  0.5414290000000  0.4728150000000  0.5127210000000 1.0
C      1  0.5161550000000  0.4005860000000  0.4525560000000 1.0
C      1  0.5717690000000  0.4826430000000  0.4801920000000 1.0
C      1  0.4493980000000  0.5758920000000  0.4737070000000 1.0
C      1  0.4650900000000  0.5201660000000  0.4794600000000 1.0
C      1  0.4377940000000  0.5324220000000  0.5235010000000 1.0
C      1  0.4799700000000  0.5429150000000  0.4914680000000 1.0
C      1  0.4677470000000  0.4523610000000  0.4859330000000 1.0
C      1  0.5262870000000  0.5812820000000  0.4716730000000 1.0
C      1  0.5152380000000  0.5771230000000  0.5379410000000 1.0
C      1  0.4109590000000  0.4589100000000  0.4948840000000 1.0
C      1  0.4524090000000  0.4866450000000  0.5389630000000 1.0
C      1  0.5679890000000  0.4341450000000  0.5020560000000 1.0
C      1  0.5868080000000  0.5346600000000  0.4619290000000 1.0
C      1  0.5295700000000  0.5690010000000  0.5004210000000 1.0
C      1  0.4385950000000  0.5519850000000  0.4597910000000 1.0
C      1  0.5303810000000  0.4797530000000  0.4167650000000 1.0
C      1  0.5419400000000  0.5064760000000  0.4201840000000 1.0
C      1  0.4604580000000  0.4251640000000  0.4871800000000 1.0
C      1  0.4316970000000  0.4836140000000  0.4406940000000 1.0
C      1  0.5639370000000  0.5554570000000  0.5570850000000 1.0
C      1  0.4217310000000  0.5291210000000  0.4694560000000 1.0
C      1  0.4120930000000  0.4850020000000  0.5320550000000 1.0
C      1  0.5281160000000  0.4538380000000  0.4953730000000 1.0
C      1  0.5769580000000  0.5300660000000  0.5011230000000 1.0
C      1  0.4196130000000  0.4574190000000  0.5239630000000 1.0
C      1  0.4605070000000  0.5519850000000  0.4412600000000 1.0
C      1  0.5169260000000  0.4639410000000  0.4728630000000 1.0
C      1  0.4780520000000  0.4295130000000  0.5603630000000 1.0
C      1  0.4807990000000  0.4141510000000  0.5343080000000 1.0
C      1  0.4229670000000  0.5000170000000  0.4639970000000 1.0
C      1  0.4359750000000  0.5287800000000  0.5521410000000 1.0
C      1  0.4901510000000  0.5106090000000  0.4112060000000 1.0
C      1  0.5065150000000  0.4797730000000  0.5437110000000 1.0
C      1  0.4733030000000  0.5478010000000  0.4136810000000 1.0
END
