TITL C-884136-4169-292 14.8509677783224 125000 -9544.34121178591 0 0 65 (C1) n - 1
REM
REM in /home/nfs/bkarasulu/CARBON/AIRSS/Generating-Clusters/ReaxFF-fromJPCA2015/Units_Real/with-SteepDescent/Only-C1/SD-CG/Try1-3A/FIRE-CG
REM
REM
REM
REM
REM
REM ./C.cell (11c1c37f851c82e70ff6c80c92926a4b)
REM
REM compiler GCC version 9.2.1 20190827 (Red Hat 9.2.1-1)
REM options -cpp -mtune=generic -march=x86-64 -g -O0 -fpre-include=/usr/include/finclude/math-vector-fortran.h
REM seed -1499458360 -437861969 -1629400011 -679555618 -1065683630 -1159796567 773492037 -746027768 32750037 -1521486727 569228665 -253199409 405971882 2117892882 -379258099 1060083490 2062070773 240015869 -1560292961 -1017655572 -1178237950 -1009884788 905460650 -818229323 -954516754 1348908861 797020321 -1545086105 1751382931 -2080089648 2082375853 -2074068346 1262000912
REM
CELL 1.54180   50.00000   50.00000   50.00000   90.00000   90.00000   90.00000
LATT -1
SFAC C  
C      1  0.4722930000000  0.4741670000000  0.4286360000000 1.0
C      1  0.4667100000000  0.4213330000000  0.4706320000000 1.0
C      1  0.4374020000000  0.5201590000000  0.5170460000000 1.0
C      1  0.5176480000000  0.4363860000000  0.5121460000000 1.0
C      1  0.5170190000000  0.4348440000000  0.4824960000000 1.0
C      1  0.4365020000000  0.4969770000000  0.5202780000000 1.0
C      1  0.4377050000000  0.4610120000000  0.4905340000000 1.0
C      1  0.4679030000000  0.4597530000000  0.5262030000000 1.0
C      1  0.4765310000000  0.5257070000000  0.5727200000000 1.0
C      1  0.5007900000000  0.5427100000000  0.5723760000000 1.0
C      1  0.5217240000000  0.4941610000000  0.4794050000000 1.0
C      1  0.5581030000000  0.4548350000000  0.4747570000000 1.0
C      1  0.5363750000000  0.4979110000000  0.4378980000000 1.0
C      1  0.4569560000000  0.5325780000000  0.4757360000000 1.0
C      1  0.5381180000000  0.4787000000000  0.5201060000000 1.0
C      1  0.5412990000000  0.5440070000000  0.4653720000000 1.0
C      1  0.4840320000000  0.5706970000000  0.5282100000000 1.0
C      1  0.5182620000000  0.5207460000000  0.5740430000000 1.0
C      1  0.4702170000000  0.4305670000000  0.5280210000000 1.0
C      1  0.5160280000000  0.5147910000000  0.4290490000000 1.0
C      1  0.5269730000000  0.5740080000000  0.5079920000000 1.0
C      1  0.4909100000000  0.5516810000000  0.4865350000000 1.0
C      1  0.4598560000000  0.5536630000000  0.5267790000000 1.0
C      1  0.4944800000000  0.4189760000000  0.5139950000000 1.0
C      1  0.5609280000000  0.5494960000000  0.5129720000000 1.0
C      1  0.5471640000000  0.5600020000000  0.4908610000000 1.0
C      1  0.5017070000000  0.5266420000000  0.4941360000000 1.0
C      1  0.5456980000000  0.5126980000000  0.4639740000000 1.0
C      1  0.5555530000000  0.5109310000000  0.5446800000000 1.0
C      1  0.4490790000000  0.4638830000000  0.4456830000000 1.0
C      1  0.5329270000000  0.5063960000000  0.5272490000000 1.0
C      1  0.5030420000000  0.4818610000000  0.5737590000000 1.0
C      1  0.4747870000000  0.5516470000000  0.4640340000000 1.0
C      1  0.4933250000000  0.4173360000000  0.4842840000000 1.0
C      1  0.4418750000000  0.4311860000000  0.4865800000000 1.0
C      1  0.4623520000000  0.4403280000000  0.4514060000000 1.0
C      1  0.5413000000000  0.4760340000000  0.4911130000000 1.0
C      1  0.4888500000000  0.5214370000000  0.4265990000000 1.0
C      1  0.5168400000000  0.4624480000000  0.5288330000000 1.0
C      1  0.4401640000000  0.4690030000000  0.5196200000000 1.0
C      1  0.5732750000000  0.5082380000000  0.4764840000000 1.0
C      1  0.4657760000000  0.5030690000000  0.4697530000000 1.0
C      1  0.4951320000000  0.5194150000000  0.5340580000000 1.0
C      1  0.4714290000000  0.5018090000000  0.4397910000000 1.0
C      1  0.4997360000000  0.4705090000000  0.4340770000000 1.0
C      1  0.5190300000000  0.5492700000000  0.4512970000000 1.0
C      1  0.4457520000000  0.4798240000000  0.4702780000000 1.0
C      1  0.5724690000000  0.5285460000000  0.5281960000000 1.0
C      1  0.4470600000000  0.5415130000000  0.5022570000000 1.0
C      1  0.5384520000000  0.5013040000000  0.5676590000000 1.0
C      1  0.4909030000000  0.4766660000000  0.5177670000000 1.0
C      1  0.5260020000000  0.4690460000000  0.4392260000000 1.0
C      1  0.4710420000000  0.5327080000000  0.5444980000000 1.0
C      1  0.5185560000000  0.5293480000000  0.5180570000000 1.0
C      1  0.4943790000000  0.4983980000000  0.4894150000000 1.0
C      1  0.4789500000000  0.4960300000000  0.5691420000000 1.0
C      1  0.5254490000000  0.5583720000000  0.5325040000000 1.0
C      1  0.4979000000000  0.5738120000000  0.5029900000000 1.0
C      1  0.4929590000000  0.5481220000000  0.4404230000000 1.0
C      1  0.5252970000000  0.4742180000000  0.5587470000000 1.0
C      1  0.5837680000000  0.5153600000000  0.5024770000000 1.0
C      1  0.5342830000000  0.4468760000000  0.4600780000000 1.0
C      1  0.4844610000000  0.4944900000000  0.5398620000000 1.0
C      1  0.4452120000000  0.4277080000000  0.5146420000000 1.0
C      1  0.5033010000000  0.5636550000000  0.5495780000000 1.0
END
