TITL C-883736-9678-242 3.50458093955495 125000 -26424.4643477866 0 0 176 (C1) n - 1
REM
REM in /home/nfs/bkarasulu/CARBON/AIRSS/Generating-Clusters/ReaxFF-fromJPCA2015/Units_Real/with-SteepDescent/Only-C1/SD-CG/Try1-3A/FIRE-CG
REM
REM
REM
REM
REM
REM ./C.cell (11c1c37f851c82e70ff6c80c92926a4b)
REM
REM compiler GCC version 9.2.1 20190827 (Red Hat 9.2.1-1)
REM options -cpp -mtune=generic -march=x86-64 -g -O0 -fpre-include=/usr/include/finclude/math-vector-fortran.h
REM seed 1629520593 84428328 -695846448 -926963747 -954059619 -176319674 1053983300 440927186 -2024075338 314500140 -846040278 347422309 706979645 5911699 -308651903 1155376478 -1948522412 -879601426 -329953671 404520221 1456556733 -1207173405 932437886 -1945050107 -6746362 146847904 -1561607798 -197494738 -1863709478 -1336808536 -2026273140 -1709874717 555372416
REM
CELL 1.54180   50.00000   50.00000   50.00000   90.00000   90.00000   90.00000
LATT -1
SFAC C  
C      1  0.4097980000000  0.5248460000000  0.5575230000000 1.0
C      1  0.5488750000000  0.5108220000000  0.3945870000000 1.0
C      1  0.5031700000000  0.4500160000000  0.4494480000000 1.0
C      1  0.4518250000000  0.5422290000000  0.5864490000000 1.0
C      1  0.4234960000000  0.4980210000000  0.5547780000000 1.0
C      1  0.4322180000000  0.4829490000000  0.4877380000000 1.0
C      1  0.4356810000000  0.4311520000000  0.4737430000000 1.0
C      1  0.4667560000000  0.4007390000000  0.5673980000000 1.0
C      1  0.5949720000000  0.4407570000000  0.5058490000000 1.0
C      1  0.3870740000000  0.4960090000000  0.4875660000000 1.0
C      1  0.5625220000000  0.4873020000000  0.5470080000000 1.0
C      1  0.4914040000000  0.5574620000000  0.5003110000000 1.0
C      1  0.4226510000000  0.5487670000000  0.4829510000000 1.0
C      1  0.4524180000000  0.4014120000000  0.4969050000000 1.0
C      1  0.4957640000000  0.5599820000000  0.4730420000000 1.0
C      1  0.5473050000000  0.5035030000000  0.5898280000000 1.0
C      1  0.4594610000000  0.4387010000000  0.4142250000000 1.0
C      1  0.5401030000000  0.4426470000000  0.5140800000000 1.0
C      1  0.4701610000000  0.5012560000000  0.5581680000000 1.0
C      1  0.4685910000000  0.4654760000000  0.4139450000000 1.0
C      1  0.5348030000000  0.4633120000000  0.4913950000000 1.0
C      1  0.5426790000000  0.4544520000000  0.5884000000000 1.0
C      1  0.4753860000000  0.4153440000000  0.4241670000000 1.0
C      1  0.5096390000000  0.5516810000000  0.5144860000000 1.0
C      1  0.5358440000000  0.4900990000000  0.5045710000000 1.0
C      1  0.5328620000000  0.5680920000000  0.5609760000000 1.0
C      1  0.5207830000000  0.5011590000000  0.6035480000000 1.0
C      1  0.5175200000000  0.4655620000000  0.4015120000000 1.0
C      1  0.4644470000000  0.4421290000000  0.5430010000000 1.0
C      1  0.5413910000000  0.5836380000000  0.4442670000000 1.0
C      1  0.4317180000000  0.4379050000000  0.4254340000000 1.0
C      1  0.5041050000000  0.4001210000000  0.4875390000000 1.0
C      1  0.6059340000000  0.5120130000000  0.5107330000000 1.0
C      1  0.4673610000000  0.5843510000000  0.5740990000000 1.0
C      1  0.4825700000000  0.6058020000000  0.5657760000000 1.0
C      1  0.4151030000000  0.5645070000000  0.5059690000000 1.0
C      1  0.5528710000000  0.5861890000000  0.5488250000000 1.0
C      1  0.4566230000000  0.5716340000000  0.5506570000000 1.0
C      1  0.6021170000000  0.4765470000000  0.5403960000000 1.0
C      1  0.5422160000000  0.4238170000000  0.4551790000000 1.0
C      1  0.4969930000000  0.4118580000000  0.5670920000000 1.0
C      1  0.5304850000000  0.4544420000000  0.4594970000000 1.0
C      1  0.4173000000000  0.5135590000000  0.4487850000000 1.0
C      1  0.4974690000000  0.3961850000000  0.5161870000000 1.0
C      1  0.4387250000000  0.5000980000000  0.4659030000000 1.0
C      1  0.4482140000000  0.5059830000000  0.5405110000000 1.0
C      1  0.5161990000000  0.5363370000000  0.4599230000000 1.0
C      1  0.5159020000000  0.5884170000000  0.4362960000000 1.0
C      1  0.4983150000000  0.3833940000000  0.4484000000000 1.0
C      1  0.5526690000000  0.5028420000000  0.5240680000000 1.0
C      1  0.4444230000000  0.5874810000000  0.4712420000000 1.0
C      1  0.4516650000000  0.4906870000000  0.4127640000000 1.0
C      1  0.4612820000000  0.4049280000000  0.4467980000000 1.0
C      1  0.5610920000000  0.4428760000000  0.5370000000000 1.0
C      1  0.5076710000000  0.4918710000000  0.4462860000000 1.0
C      1  0.5903890000000  0.5030790000000  0.4307720000000 1.0
C      1  0.5757470000000  0.5514370000000  0.4558210000000 1.0
C      1  0.4885430000000  0.6158240000000  0.5455960000000 1.0
C      1  0.4678740000000  0.3971670000000  0.5193890000000 1.0
C      1  0.5108890000000  0.4456670000000  0.5196310000000 1.0
C      1  0.5208520000000  0.5946800000000  0.4842600000000 1.0
C      1  0.5463300000000  0.5767360000000  0.4883750000000 1.0
C      1  0.4118640000000  0.4293440000000  0.5186100000000 1.0
C      1  0.4707820000000  0.5637130000000  0.5925210000000 1.0
C      1  0.4091140000000  0.4497870000000  0.5381260000000 1.0
C      1  0.4538390000000  0.5292660000000  0.5231350000000 1.0
C      1  0.5490480000000  0.4127950000000  0.5018320000000 1.0
C      1  0.5700280000000  0.5180250000000  0.4163790000000 1.0
C      1  0.4978380000000  0.5638110000000  0.6031670000000 1.0
C      1  0.6147170000000  0.4858330000000  0.5152660000000 1.0
C      1  0.5617340000000  0.5770070000000  0.4612840000000 1.0
C      1  0.4277810000000  0.5714440000000  0.5518770000000 1.0
C      1  0.4922210000000  0.6183040000000  0.5176870000000 1.0
C      1  0.4055820000000  0.4749650000000  0.4942450000000 1.0
C      1  0.5299210000000  0.4899740000000  0.3949050000000 1.0
C      1  0.5084510000000  0.5279750000000  0.5558670000000 1.0
C      1  0.5135940000000  0.4015450000000  0.5392310000000 1.0
C      1  0.5592710000000  0.5372240000000  0.4345210000000 1.0
C      1  0.5640260000000  0.5259220000000  0.5814340000000 1.0
C      1  0.5304940000000  0.4079710000000  0.4794770000000 1.0
C      1  0.5285620000000  0.5300740000000  0.3911480000000 1.0
C      1  0.4285780000000  0.5472340000000  0.5677660000000 1.0
C      1  0.5034390000000  0.5371800000000  0.6087810000000 1.0
C      1  0.4964430000000  0.5482160000000  0.5388500000000 1.0
C      1  0.4825220000000  0.4856110000000  0.5207980000000 1.0
C      1  0.4176990000000  0.4687920000000  0.5592160000000 1.0
C      1  0.5032820000000  0.4053610000000  0.4272740000000 1.0
C      1  0.5978690000000  0.5360530000000  0.5065700000000 1.0
C      1  0.5942120000000  0.4723010000000  0.4740530000000 1.0
C      1  0.5044940000000  0.4591160000000  0.4941740000000 1.0
C      1  0.5447530000000  0.6025600000000  0.5250680000000 1.0
C      1  0.5519380000000  0.5007790000000  0.4677530000000 1.0
C      1  0.4239260000000  0.5822820000000  0.5234250000000 1.0
C      1  0.4643510000000  0.4645650000000  0.5241650000000 1.0
C      1  0.5873720000000  0.4734640000000  0.4315500000000 1.0
C      1  0.6084190000000  0.4643950000000  0.4956120000000 1.0
C      1  0.3951800000000  0.5361420000000  0.4842960000000 1.0
C      1  0.5798010000000  0.4976100000000  0.4748030000000 1.0
C      1  0.4556220000000  0.5326320000000  0.4116040000000 1.0
C      1  0.3946730000000  0.5139800000000  0.4676340000000 1.0
C      1  0.5742220000000  0.5727290000000  0.5328610000000 1.0
C      1  0.4790580000000  0.3925730000000  0.4697530000000 1.0
C      1  0.5268980000000  0.5659890000000  0.5905890000000 1.0
C      1  0.4452990000000  0.5938890000000  0.5018530000000 1.0
C      1  0.4542760000000  0.4691320000000  0.5974380000000 1.0
C      1  0.5382690000000  0.5464140000000  0.5016130000000 1.0
C      1  0.4694650000000  0.5107880000000  0.4279310000000 1.0
C      1  0.5597050000000  0.4737110000000  0.4234540000000 1.0
C      1  0.5580530000000  0.4176330000000  0.5527990000000 1.0
C      1  0.4278610000000  0.4152180000000  0.4979500000000 1.0
C      1  0.4963820000000  0.4674610000000  0.4253440000000 1.0
C      1  0.5716450000000  0.4316620000000  0.4627830000000 1.0
C      1  0.5157630000000  0.5507560000000  0.4000410000000 1.0
C      1  0.3974040000000  0.5223570000000  0.5327570000000 1.0
C      1  0.4387070000000  0.5575430000000  0.4219510000000 1.0
C      1  0.5465020000000  0.5451440000000  0.5926790000000 1.0
C      1  0.5755090000000  0.4252480000000  0.4899450000000 1.0
C      1  0.4355690000000  0.4183410000000  0.4474630000000 1.0
C      1  0.4654950000000  0.4999160000000  0.4555110000000 1.0
C      1  0.4695760000000  0.5526540000000  0.5330440000000 1.0
C      1  0.5881120000000  0.4983210000000  0.5557370000000 1.0
C      1  0.5399070000000  0.4822870000000  0.4484740000000 1.0
C      1  0.5061830000000  0.5213040000000  0.5870130000000 1.0
C      1  0.5504420000000  0.4327310000000  0.5750730000000 1.0
C      1  0.4639470000000  0.5231050000000  0.4967690000000 1.0
C      1  0.5889350000000  0.4511030000000  0.5325630000000 1.0
C      1  0.5160880000000  0.5082050000000  0.4970490000000 1.0
C      1  0.4679650000000  0.6060350000000  0.5106740000000 1.0
C      1  0.5470520000000  0.5320850000000  0.5255400000000 1.0
C      1  0.4884810000000  0.4877630000000  0.4687280000000 1.0
C      1  0.4542460000000  0.4674710000000  0.4978790000000 1.0
C      1  0.5196160000000  0.6069790000000  0.5089980000000 1.0
C      1  0.4885550000000  0.5007160000000  0.4958580000000 1.0
C      1  0.4597190000000  0.4475080000000  0.4788950000000 1.0
C      1  0.5584820000000  0.4517320000000  0.4026280000000 1.0
C      1  0.4955910000000  0.4968990000000  0.5453400000000 1.0
C      1  0.3990960000000  0.4538210000000  0.5125990000000 1.0
C      1  0.5313750000000  0.4389260000000  0.4055050000000 1.0
C      1  0.4669730000000  0.5923700000000  0.4546980000000 1.0
C      1  0.4360980000000  0.4662400000000  0.5794660000000 1.0
C      1  0.5059960000000  0.4258040000000  0.5928030000000 1.0
C      1  0.3855540000000  0.5192610000000  0.5070710000000 1.0
C      1  0.5147100000000  0.4783540000000  0.5560380000000 1.0
C      1  0.5071640000000  0.5198120000000  0.4372150000000 1.0
C      1  0.5404150000000  0.4051190000000  0.5324970000000 1.0
C      1  0.5283540000000  0.4199000000000  0.4275160000000 1.0
C      1  0.5082040000000  0.4540410000000  0.5463740000000 1.0
C      1  0.5346000000000  0.5407450000000  0.5501620000000 1.0
C      1  0.5029840000000  0.5700630000000  0.4158190000000 1.0
C      1  0.5975940000000  0.5145010000000  0.4578850000000 1.0
C      1  0.4877830000000  0.4408140000000  0.5590700000000 1.0
C      1  0.4882250000000  0.4453840000000  0.4736380000000 1.0
C      1  0.4227500000000  0.5463220000000  0.4416160000000 1.0
C      1  0.5000930000000  0.5902920000000  0.4626660000000 1.0
C      1  0.4640020000000  0.5174410000000  0.5812310000000 1.0
C      1  0.4234350000000  0.4907160000000  0.4268950000000 1.0
C      1  0.4566770000000  0.4132130000000  0.5435820000000 1.0
C      1  0.4790180000000  0.5612760000000  0.4309430000000 1.0
C      1  0.4748880000000  0.4821430000000  0.6123420000000 1.0
C      1  0.5304130000000  0.5367790000000  0.4362440000000 1.0
C      1  0.4746390000000  0.5497150000000  0.4577850000000 1.0
C      1  0.5648510000000  0.5884600000000  0.5093750000000 1.0
C      1  0.5169350000000  0.4509230000000  0.6036700000000 1.0
C      1  0.5418800000000  0.4810960000000  0.5697200000000 1.0
C      1  0.5870220000000  0.5458760000000  0.5338660000000 1.0
C      1  0.4518780000000  0.5155580000000  0.3893600000000 1.0
C      1  0.5332120000000  0.5231950000000  0.4798010000000 1.0
C      1  0.4237910000000  0.5689850000000  0.4592420000000 1.0
C      1  0.5927890000000  0.5376300000000  0.4746270000000 1.0
C      1  0.5839810000000  0.5275120000000  0.5566000000000 1.0
C      1  0.4551880000000  0.5390260000000  0.4757410000000 1.0
C      1  0.5041730000000  0.4770800000000  0.6085180000000 1.0
C      1  0.4571810000000  0.5806260000000  0.4297580000000 1.0
C      1  0.4227090000000  0.4643880000000  0.4285610000000 1.0
C      1  0.5878410000000  0.4544760000000  0.4540090000000 1.0
C      1  0.4638650000000  0.5075100000000  0.6053340000000 1.0
END
