TITL C-884141-4321-283 -1.33297181399368 125000 -8604.1873954188 0 0 59 (C1) n - 1
REM
REM in /home/nfs/bkarasulu/CARBON/AIRSS/Generating-Clusters/ReaxFF-fromJPCA2015/Units_Real/with-SteepDescent/Only-C1/SD-CG/Try1-3A/FIRE-CG
REM
REM
REM
REM
REM
REM ./C.cell (11c1c37f851c82e70ff6c80c92926a4b)
REM
REM compiler GCC version 9.2.1 20190827 (Red Hat 9.2.1-1)
REM options -cpp -mtune=generic -march=x86-64 -g -O0 -fpre-include=/usr/include/finclude/math-vector-fortran.h
REM seed 165387582 1930934293 -1350618257 -1029128360 -445597712 788755467 2008007858 440024956 1928356668 1281229158 2054724512 -2140012715 1959512847 298678977 -527928985 -172340923 1266033294 -720796671 1324821990 1505374202 987188778 -608550580 -916856628 127040173 -961869615 -1055656810 1826710817 -709271661 -1870114476 1195532368 1897381174 -2083131515 -578803243
REM
CELL 1.54180   50.00000   50.00000   50.00000   90.00000   90.00000   90.00000
LATT -1
SFAC C  
C      1  0.5417350000000  0.4347510000000  0.5321140000000 1.0
C      1  0.4810020000000  0.4579140000000  0.4350410000000 1.0
C      1  0.4686910000000  0.5489040000000  0.5328600000000 1.0
C      1  0.5004580000000  0.5216440000000  0.5086220000000 1.0
C      1  0.5299700000000  0.5273850000000  0.5482650000000 1.0
C      1  0.5347520000000  0.5666380000000  0.5228840000000 1.0
C      1  0.5140360000000  0.4573100000000  0.4768050000000 1.0
C      1  0.4658230000000  0.4759660000000  0.4751530000000 1.0
C      1  0.4503870000000  0.5128420000000  0.5020060000000 1.0
C      1  0.5159430000000  0.4808990000000  0.4977970000000 1.0
C      1  0.5134610000000  0.4256200000000  0.5268700000000 1.0
C      1  0.5213050000000  0.4750550000000  0.5588180000000 1.0
C      1  0.5331910000000  0.4516690000000  0.5519830000000 1.0
C      1  0.5615250000000  0.4569120000000  0.4712200000000 1.0
C      1  0.5373100000000  0.4663010000000  0.4572690000000 1.0
C      1  0.5465580000000  0.4881790000000  0.5001370000000 1.0
C      1  0.4739280000000  0.5293320000000  0.5090530000000 1.0
C      1  0.4500010000000  0.5703050000000  0.4680290000000 1.0
C      1  0.4945340000000  0.5154040000000  0.5777220000000 1.0
C      1  0.4602710000000  0.5679880000000  0.5142280000000 1.0
C      1  0.4827050000000  0.4306830000000  0.4991490000000 1.0
C      1  0.4321790000000  0.5475630000000  0.4670730000000 1.0
C      1  0.4737390000000  0.4347300000000  0.4475810000000 1.0
C      1  0.4274760000000  0.5235640000000  0.4859980000000 1.0
C      1  0.4930730000000  0.5578730000000  0.5461820000000 1.0
C      1  0.5486280000000  0.5441840000000  0.5329400000000 1.0
C      1  0.5398530000000  0.5513030000000  0.4867210000000 1.0
C      1  0.5666480000000  0.4694250000000  0.4979020000000 1.0
C      1  0.5186590000000  0.5659360000000  0.4850930000000 1.0
C      1  0.5254250000000  0.4304830000000  0.4824390000000 1.0
C      1  0.5587590000000  0.5089850000000  0.5016140000000 1.0
C      1  0.4671190000000  0.5806760000000  0.4902220000000 1.0
C      1  0.5081620000000  0.4177810000000  0.4999900000000 1.0
C      1  0.4969140000000  0.5791970000000  0.4972270000000 1.0
C      1  0.4546520000000  0.5481820000000  0.4488080000000 1.0
C      1  0.4811260000000  0.4504730000000  0.4768130000000 1.0
C      1  0.5117090000000  0.4917790000000  0.5821190000000 1.0
C      1  0.4174820000000  0.4971330000000  0.4824710000000 1.0
C      1  0.5578370000000  0.5369730000000  0.5042510000000 1.0
C      1  0.4877720000000  0.4837300000000  0.4402500000000 1.0
C      1  0.4982280000000  0.5295000000000  0.4340500000000 1.0
C      1  0.4809270000000  0.4670730000000  0.5321110000000 1.0
C      1  0.4475600000000  0.4848970000000  0.4963120000000 1.0
C      1  0.5346590000000  0.4855040000000  0.4394770000000 1.0
C      1  0.5075940000000  0.5388080000000  0.5633090000000 1.0
C      1  0.5190630000000  0.5180660000000  0.4264150000000 1.0
C      1  0.5145940000000  0.4937170000000  0.4265960000000 1.0
C      1  0.5110320000000  0.5114700000000  0.5323830000000 1.0
C      1  0.4552900000000  0.4793840000000  0.5261670000000 1.0
C      1  0.5070900000000  0.4822590000000  0.5311340000000 1.0
C      1  0.4864020000000  0.4390110000000  0.5269930000000 1.0
C      1  0.5605760000000  0.4431750000000  0.5102650000000 1.0
C      1  0.4995360000000  0.5035790000000  0.4885580000000 1.0
C      1  0.5533010000000  0.4332770000000  0.4850420000000 1.0
C      1  0.5072340000000  0.5744080000000  0.5255340000000 1.0
C      1  0.4658790000000  0.5095860000000  0.5713440000000 1.0
C      1  0.4506320000000  0.4974200000000  0.5494330000000 1.0
C      1  0.4797900000000  0.4991240000000  0.4650440000000 1.0
C      1  0.4758150000000  0.5280680000000  0.4481170000000 1.0
END
