TITL C-884127-5181-271 2.43589027289825 125000 -1650.8621783293 0 0 13 (C1) n - 1
REM
REM in /home/nfs/bkarasulu/CARBON/AIRSS/Generating-Clusters/ReaxFF-fromJPCA2015/Units_Real/with-SteepDescent/Only-C1/SD-CG/Try1-3A/FIRE-CG
REM
REM
REM
REM
REM
REM ./C.cell (11c1c37f851c82e70ff6c80c92926a4b)
REM
REM compiler GCC version 9.2.1 20190827 (Red Hat 9.2.1-1)
REM options -cpp -mtune=generic -march=x86-64 -g -O0 -fpre-include=/usr/include/finclude/math-vector-fortran.h
REM seed 2108336773 1729229254 -5064139 -117242104 1728487870 -1723128970 -15647834 1886574095 -1616725908 1656421800 386090342 -2145308784 -510004575 -737156639 -398103950 1784052214 -1552645441 1434197782 -1474947662 140136944 1958135221 -848886177 -1845899330 838386784 135436477 -1483690876 -544348949 -953069819 -999216110 1521727065 1203239853 -731616009 -47434250
REM
CELL 1.54180   50.00000   50.00000   50.00000   90.00000   90.00000   90.00000
LATT -1
SFAC C  
C      1  0.5006100000000  0.4617980000000  0.5249050000000 1.0
C      1  0.4764530000000  0.5441920000000  0.5027930000000 1.0
C      1  0.5408640000000  0.5015810000000  0.4864650000000 1.0
C      1  0.4695100000000  0.4685520000000  0.5216690000000 1.0
C      1  0.5354270000000  0.4732340000000  0.4858250000000 1.0
C      1  0.4813300000000  0.4964710000000  0.4429970000000 1.0
C      1  0.5203330000000  0.4779870000000  0.5131890000000 1.0
C      1  0.4990000000000  0.5319840000000  0.5104390000000 1.0
C      1  0.4747810000000  0.5045360000000  0.4650210000000 1.0
C      1  0.5414500000000  0.5216470000000  0.5353210000000 1.0
C      1  0.4673540000000  0.5136840000000  0.4899990000000 1.0
C      1  0.5246450000000  0.5126510000000  0.5160730000000 1.0
C      1  0.4682430000000  0.4916830000000  0.5053040000000 1.0
END
