TITL C-884129-4740-35 1390280.28823443 125000 -16899.2295307455 0 0 114 (C1) n - 1
REM
REM in /home/nfs/bkarasulu/CARBON/AIRSS/Generating-Clusters/ReaxFF-fromJPCA2015/Units_Real/with-SteepDescent/Only-C1/SD-CG/Try1-3A/FIRE-CG
REM
REM
REM
REM
REM
REM ./C.cell (11c1c37f851c82e70ff6c80c92926a4b)
REM
REM compiler GCC version 9.2.1 20190827 (Red Hat 9.2.1-1)
REM options -cpp -mtune=generic -march=x86-64 -g -O0 -fpre-include=/usr/include/finclude/math-vector-fortran.h
REM seed -421309598 -1643588046 -893437318 -2073875259 1526673540 1434493722 -642318612 647305923 -515558706 -1695994309 950425220 1406372656 656463911 509687451 396808225 -632154290 374844367 297058542 1287509777 -1867409564 -1282342866 -263800800 -975453074 -816142317 -19912403 1258474749 -300741364 579309261 -1587006450 -1508829770 -1155687542 346470670 -327341413
REM
CELL 1.54180   50.00000   50.00000   50.00000   90.00000   90.00000   90.00000
LATT -1
SFAC C  
C      1  0.5534240000000  0.5599270000000  0.4547540000000 1.0
C      1  0.4862290000000  0.4943200000000  0.5805350000000 1.0
C      1  0.4360800000000  0.5247900000000  0.4479680000000 1.0
C      1  0.4828900000000  0.5644090000000  0.5571150000000 1.0
C      1  0.3995130000000  0.5019900000000  0.4647010000000 1.0
C      1  0.5149650000000  0.4470740000000  0.4284680000000 1.0
C      1  0.4784910000000  0.5025870000000  0.4153400000000 1.0
C      1  0.4796300000000  0.4533180000000  0.5258330000000 1.0
C      1  0.4961130000000  0.4098170000000  0.4620760000000 1.0
C      1  0.4412070000000  0.5064330000000  0.5488580000000 1.0
C      1  0.4105170000000  0.5290990000000  0.4618630000000 1.0
C      1  0.5748240000000  0.4547440000000  0.5115150000000 1.0
C      1  0.5827550000000  0.5661050000000  0.5014810000000 1.0
C      1  0.4779270000000  0.5690600000000  0.4467190000000 1.0
C      1  0.4535410000000  0.5079180000000  0.4940890000000 1.0
C      1  0.4815320000000  0.5516710000000  0.4242760000000 1.0
C      1  0.5207540000000  0.5007510000000  0.5554060000000 1.0
C      1  0.4197030000000  0.5411030000000  0.4865160000000 1.0
C      1  0.4931530000000  0.5029780000000  0.5189780000000 1.0
C      1  0.4029290000000  0.4972220000000  0.4935540000000 1.0
C      1  0.5083640000000  0.4678580000000  0.4115680000000 1.0
C      1  0.5525400000000  0.5780930000000  0.4760650000000 1.0
C      1  0.5191850000000  0.4542040000000  0.4801960000000 1.0
C      1  0.5064440000000  0.5977760000000  0.4727500000000 1.0
C      1  0.4595660000000  0.5511870000000  0.5123700000000 1.0
C      1  0.4670590000000  0.5286640000000  0.4129470000000 1.0
C      1  0.4739530000000  0.4190480000000  0.5626020000000 1.0
C      1  0.4285530000000  0.4826120000000  0.5602960000000 1.0
C      1  0.4438270000000  0.5584740000000  0.4890280000000 1.0
C      1  0.5841340000000  0.4701520000000  0.5639040000000 1.0
C      1  0.5323440000000  0.5045400000000  0.4803320000000 1.0
C      1  0.5607270000000  0.4310180000000  0.5117820000000 1.0
C      1  0.4321650000000  0.4638790000000  0.4389670000000 1.0
C      1  0.5129070000000  0.5580100000000  0.5143790000000 1.0
C      1  0.4241360000000  0.4564210000000  0.5581070000000 1.0
C      1  0.4896170000000  0.5218510000000  0.5890990000000 1.0
C      1  0.5688160000000  0.5071910000000  0.5562440000000 1.0
C      1  0.5722360000000  0.5373480000000  0.4854360000000 1.0
C      1  0.5243570000000  0.4971350000000  0.4522270000000 1.0
C      1  0.4867540000000  0.5898990000000  0.5161250000000 1.0
C      1  0.5872670000000  0.4787290000000  0.5134500000000 1.0
C      1  0.5053810000000  0.5819120000000  0.4489120000000 1.0
C      1  0.4754710000000  0.5270530000000  0.5013440000000 1.0
C      1  0.5636500000000  0.4377940000000  0.4699230000000 1.0
C      1  0.5624440000000  0.4613760000000  0.5802790000000 1.0
C      1  0.4631420000000  0.5736500000000  0.4720440000000 1.0
C      1  0.4807450000000  0.4803930000000  0.5339450000000 1.0
C      1  0.5786300000000  0.4642140000000  0.4685040000000 1.0
C      1  0.5221820000000  0.5381100000000  0.5311800000000 1.0
C      1  0.4704150000000  0.5708310000000  0.5312180000000 1.0
C      1  0.5846650000000  0.5155100000000  0.4737680000000 1.0
C      1  0.5146680000000  0.5851360000000  0.5276130000000 1.0
C      1  0.5412850000000  0.4839300000000  0.5864630000000 1.0
C      1  0.4821280000000  0.5907110000000  0.4871360000000 1.0
C      1  0.4747660000000  0.4958990000000  0.4473230000000 1.0
C      1  0.5371640000000  0.4702610000000  0.5266860000000 1.0
C      1  0.5433720000000  0.5237030000000  0.5211490000000 1.0
C      1  0.5366870000000  0.5364240000000  0.5868880000000 1.0
C      1  0.4394500000000  0.5162240000000  0.4191630000000 1.0
C      1  0.5002880000000  0.4263200000000  0.4407540000000 1.0
C      1  0.4757330000000  0.4642520000000  0.4541320000000 1.0
C      1  0.4869830000000  0.4174470000000  0.5831220000000 1.0
C      1  0.5830020000000  0.4880240000000  0.4856210000000 1.0
C      1  0.5135870000000  0.4827260000000  0.5763990000000 1.0
C      1  0.5043930000000  0.4939430000000  0.4030370000000 1.0
C      1  0.4142400000000  0.5203300000000  0.5051090000000 1.0
C      1  0.5038620000000  0.5195260000000  0.5414620000000 1.0
C      1  0.4694180000000  0.4553810000000  0.4994220000000 1.0
C      1  0.5287550000000  0.5025390000000  0.4202150000000 1.0
C      1  0.4999170000000  0.4124540000000  0.5106980000000 1.0
C      1  0.5120110000000  0.5535690000000  0.4180080000000 1.0
C      1  0.5276520000000  0.5580230000000  0.5715170000000 1.0
C      1  0.5283960000000  0.5669130000000  0.4385300000000 1.0
C      1  0.5406120000000  0.4274740000000  0.4870460000000 1.0
C      1  0.4306270000000  0.4329210000000  0.5433150000000 1.0
C      1  0.4126170000000  0.4755960000000  0.4585450000000 1.0
C      1  0.5282480000000  0.4643070000000  0.4530370000000 1.0
C      1  0.4952900000000  0.5319830000000  0.4775060000000 1.0
C      1  0.5128540000000  0.4946960000000  0.4984460000000 1.0
C      1  0.5882160000000  0.4893440000000  0.5436840000000 1.0
C      1  0.4151040000000  0.4699430000000  0.4869590000000 1.0
C      1  0.5102440000000  0.5736070000000  0.5577150000000 1.0
C      1  0.5445260000000  0.4982920000000  0.5369970000000 1.0
C      1  0.5533370000000  0.5100760000000  0.5810010000000 1.0
C      1  0.5602440000000  0.4378950000000  0.5640370000000 1.0
C      1  0.4560830000000  0.4460470000000  0.4472760000000 1.0
C      1  0.4391400000000  0.4549520000000  0.4975170000000 1.0
C      1  0.5417550000000  0.5289410000000  0.4922760000000 1.0
C      1  0.5235880000000  0.5286850000000  0.4179290000000 1.0
C      1  0.5027820000000  0.4363160000000  0.5277830000000 1.0
C      1  0.4680350000000  0.4893350000000  0.5581660000000 1.0
C      1  0.4352740000000  0.4886020000000  0.4256000000000 1.0
C      1  0.5403750000000  0.5964340000000  0.5131160000000 1.0
C      1  0.5172410000000  0.5467310000000  0.4880900000000 1.0
C      1  0.5275900000000  0.4457160000000  0.5394320000000 1.0
C      1  0.4651550000000  0.4194490000000  0.4602080000000 1.0
C      1  0.5713510000000  0.5360530000000  0.4576960000000 1.0
C      1  0.5506880000000  0.4264660000000  0.5399760000000 1.0
C      1  0.4594660000000  0.4208400000000  0.5396080000000 1.0
C      1  0.5169030000000  0.5262230000000  0.5937080000000 1.0
C      1  0.5653440000000  0.5835690000000  0.5134370000000 1.0
C      1  0.4459070000000  0.5323360000000  0.5660190000000 1.0
C      1  0.4250770000000  0.4462300000000  0.5195870000000 1.0
C      1  0.4702770000000  0.4084750000000  0.5133020000000 1.0
C      1  0.5148750000000  0.4116550000000  0.4857610000000 1.0
C      1  0.4981960000000  0.5111090000000  0.4581400000000 1.0
C      1  0.4630680000000  0.4131400000000  0.4872370000000 1.0
C      1  0.4522560000000  0.5078300000000  0.4648810000000 1.0
C      1  0.4352650000000  0.5088280000000  0.5161480000000 1.0
C      1  0.5571060000000  0.4574940000000  0.4498830000000 1.0
C      1  0.4713200000000  0.5421920000000  0.5741800000000 1.0
C      1  0.5343370000000  0.5982760000000  0.4842960000000 1.0
C      1  0.4883170000000  0.4564260000000  0.4791080000000 1.0
C      1  0.5257010000000  0.4715380000000  0.5018690000000 1.0
END
