TITL C-884138-6203-205 75.0164424570889 125000 -26621.0487280822 0 0 179 (C1) n - 1
REM
REM in /home/nfs/bkarasulu/CARBON/AIRSS/Generating-Clusters/ReaxFF-fromJPCA2015/Units_Real/with-SteepDescent/Only-C1/SD-CG/Try1-3A/FIRE-CG
REM
REM
REM
REM
REM
REM ./C.cell (11c1c37f851c82e70ff6c80c92926a4b)
REM
REM compiler GCC version 9.2.1 20190827 (Red Hat 9.2.1-1)
REM options -cpp -mtune=generic -march=x86-64 -g -O0 -fpre-include=/usr/include/finclude/math-vector-fortran.h
REM seed 1200879333 -733912994 60502289 1993542979 478450510 -233962682 377713069 1897821623 1424829338 -1766667365 53689582 866725846 -945774893 -634112763 -355562643 -1420031464 -1589932718 1900007857 -423400267 242483946 66720324 2023235813 -159142871 194320060 -61006470 -1083032130 -1571006591 1681560051 -76212500 -1221406418 -1764243318 116109972 -358804826
REM
CELL 1.54180   50.00000   50.00000   50.00000   90.00000   90.00000   90.00000
LATT -1
SFAC C  
C      1  0.5727280000000  0.4531670000000  0.5840380000000 1.0
C      1  0.5537710000000  0.5121450000000  0.4745330000000 1.0
C      1  0.4577020000000  0.5157540000000  0.5429850000000 1.0
C      1  0.4424950000000  0.5160520000000  0.4045940000000 1.0
C      1  0.4518450000000  0.4472510000000  0.5010460000000 1.0
C      1  0.5144950000000  0.6134650000000  0.5400070000000 1.0
C      1  0.5644370000000  0.5268010000000  0.5805050000000 1.0
C      1  0.5232970000000  0.4475110000000  0.6019780000000 1.0
C      1  0.4947540000000  0.4537530000000  0.5975930000000 1.0
C      1  0.4016820000000  0.5342830000000  0.5030530000000 1.0
C      1  0.4855120000000  0.5428690000000  0.4016900000000 1.0
C      1  0.4271060000000  0.5195900000000  0.5044360000000 1.0
C      1  0.5826740000000  0.5193700000000  0.4220630000000 1.0
C      1  0.4975950000000  0.5066880000000  0.4603220000000 1.0
C      1  0.4463720000000  0.4962310000000  0.4599060000000 1.0
C      1  0.4844990000000  0.4701090000000  0.4324040000000 1.0
C      1  0.4422790000000  0.5309410000000  0.5274530000000 1.0
C      1  0.5658120000000  0.5650400000000  0.4395020000000 1.0
C      1  0.4850250000000  0.3885090000000  0.4871430000000 1.0
C      1  0.5838310000000  0.5399930000000  0.5623490000000 1.0
C      1  0.5091650000000  0.6161580000000  0.5109380000000 1.0
C      1  0.4409870000000  0.4680330000000  0.4006450000000 1.0
C      1  0.5938620000000  0.5548190000000  0.5161220000000 1.0
C      1  0.4665540000000  0.4098580000000  0.4417050000000 1.0
C      1  0.4574420000000  0.4312740000000  0.5597870000000 1.0
C      1  0.4940610000000  0.5791000000000  0.5756500000000 1.0
C      1  0.4893140000000  0.4927020000000  0.4130320000000 1.0
C      1  0.4797910000000  0.4359010000000  0.5785620000000 1.0
C      1  0.6125860000000  0.5015960000000  0.4695820000000 1.0
C      1  0.4234680000000  0.4368660000000  0.4277910000000 1.0
C      1  0.5354240000000  0.4881870000000  0.5516510000000 1.0
C      1  0.5100390000000  0.4977550000000  0.3931590000000 1.0
C      1  0.5430550000000  0.5167160000000  0.5057880000000 1.0
C      1  0.5844640000000  0.4791400000000  0.4469660000000 1.0
C      1  0.5666620000000  0.4576670000000  0.4338370000000 1.0
C      1  0.4371890000000  0.4312250000000  0.4817640000000 1.0
C      1  0.5044890000000  0.5426280000000  0.5287490000000 1.0
C      1  0.5018000000000  0.4197140000000  0.5693430000000 1.0
C      1  0.4905050000000  0.4093010000000  0.4616850000000 1.0
C      1  0.4520150000000  0.4259850000000  0.4242980000000 1.0
C      1  0.5367230000000  0.6053360000000  0.5052960000000 1.0
C      1  0.5448500000000  0.5773160000000  0.5825900000000 1.0
C      1  0.4667300000000  0.4506830000000  0.4105490000000 1.0
C      1  0.5772770000000  0.5569620000000  0.4780590000000 1.0
C      1  0.4741320000000  0.5325490000000  0.5659060000000 1.0
C      1  0.5141170000000  0.5481120000000  0.4515690000000 1.0
C      1  0.4942180000000  0.4571020000000  0.4816000000000 1.0
C      1  0.4953560000000  0.5765380000000  0.4992720000000 1.0
C      1  0.5184310000000  0.4626100000000  0.4700680000000 1.0
C      1  0.4756590000000  0.4330860000000  0.5086420000000 1.0
C      1  0.4039470000000  0.4940800000000  0.5567920000000 1.0
C      1  0.5372800000000  0.5233240000000  0.4524260000000 1.0
C      1  0.5650270000000  0.5800230000000  0.4634400000000 1.0
C      1  0.4772980000000  0.5929280000000  0.4118380000000 1.0
C      1  0.5022400000000  0.5703330000000  0.5267790000000 1.0
C      1  0.5173900000000  0.5739090000000  0.5935160000000 1.0
C      1  0.4510720000000  0.5757060000000  0.5541000000000 1.0
C      1  0.5650460000000  0.4157180000000  0.5024370000000 1.0
C      1  0.5396520000000  0.4541110000000  0.4873810000000 1.0
C      1  0.5291640000000  0.5148820000000  0.6314000000000 1.0
C      1  0.4543770000000  0.4879430000000  0.5372080000000 1.0
C      1  0.4251770000000  0.5409300000000  0.4334480000000 1.0
C      1  0.5418130000000  0.6037290000000  0.5352720000000 1.0
C      1  0.3977620000000  0.4917430000000  0.4651500000000 1.0
C      1  0.5399030000000  0.4694560000000  0.4278860000000 1.0
C      1  0.4101070000000  0.4400270000000  0.4515010000000 1.0
C      1  0.5004290000000  0.5888720000000  0.5485040000000 1.0
C      1  0.5064680000000  0.5903620000000  0.4482460000000 1.0
C      1  0.3934720000000  0.4769480000000  0.4920210000000 1.0
C      1  0.5427520000000  0.4170960000000  0.4547160000000 1.0
C      1  0.4380820000000  0.4978380000000  0.4888340000000 1.0
C      1  0.4685150000000  0.4075180000000  0.5461270000000 1.0
C      1  0.5521580000000  0.5503970000000  0.5950400000000 1.0
C      1  0.4848880000000  0.4312390000000  0.4813510000000 1.0
C      1  0.4562700000000  0.6020130000000  0.5069270000000 1.0
C      1  0.5158820000000  0.4251500000000  0.4475340000000 1.0
C      1  0.5396350000000  0.5037610000000  0.4313710000000 1.0
C      1  0.4313300000000  0.5641040000000  0.4464820000000 1.0
C      1  0.4840380000000  0.4800580000000  0.6002300000000 1.0
C      1  0.5593200000000  0.5051060000000  0.4100780000000 1.0
C      1  0.5650560000000  0.4358660000000  0.4524580000000 1.0
C      1  0.4266520000000  0.4091420000000  0.5183910000000 1.0
C      1  0.4966840000000  0.5686170000000  0.4073580000000 1.0
C      1  0.5410280000000  0.4621800000000  0.5138860000000 1.0
C      1  0.5415120000000  0.5455690000000  0.5147290000000 1.0
C      1  0.5447160000000  0.5432280000000  0.3987090000000 1.0
C      1  0.5029990000000  0.4869870000000  0.5364890000000 1.0
C      1  0.5258260000000  0.3913560000000  0.4900180000000 1.0
C      1  0.5683160000000  0.5457620000000  0.4192790000000 1.0
C      1  0.5010340000000  0.5313880000000  0.5540160000000 1.0
C      1  0.4781870000000  0.5531130000000  0.4952240000000 1.0
C      1  0.6103610000000  0.5129140000000  0.5213730000000 1.0
C      1  0.3970020000000  0.5195070000000  0.4645860000000 1.0
C      1  0.5268330000000  0.4758790000000  0.3836740000000 1.0
C      1  0.5519460000000  0.4578520000000  0.6038800000000 1.0
C      1  0.5693460000000  0.5622100000000  0.5493510000000 1.0
C      1  0.4184030000000  0.4368290000000  0.5256820000000 1.0
C      1  0.5984590000000  0.5350080000000  0.5374530000000 1.0
C      1  0.4725680000000  0.5159270000000  0.4029940000000 1.0
C      1  0.5831710000000  0.4360430000000  0.4910080000000 1.0
C      1  0.4332600000000  0.4453380000000  0.5488530000000 1.0
C      1  0.4370010000000  0.5103290000000  0.5876660000000 1.0
C      1  0.4213740000000  0.5722110000000  0.5201490000000 1.0
C      1  0.4006170000000  0.5520080000000  0.5271650000000 1.0
C      1  0.5119790000000  0.4493740000000  0.3764610000000 1.0
C      1  0.5545060000000  0.5868930000000  0.5564720000000 1.0
C      1  0.4210870000000  0.4664900000000  0.4207970000000 1.0
C      1  0.4418130000000  0.4830450000000  0.5809220000000 1.0
C      1  0.4685440000000  0.4765260000000  0.5778740000000 1.0
C      1  0.5641580000000  0.4766770000000  0.5223080000000 1.0
C      1  0.5194960000000  0.5057140000000  0.4948080000000 1.0
C      1  0.6087530000000  0.4602790000000  0.5279320000000 1.0
C      1  0.4940330000000  0.5021540000000  0.5080930000000 1.0
C      1  0.4521110000000  0.4773040000000  0.5050870000000 1.0
C      1  0.4778610000000  0.5922850000000  0.4409560000000 1.0
C      1  0.5006380000000  0.4376790000000  0.5223240000000 1.0
C      1  0.4345070000000  0.4029710000000  0.4903300000000 1.0
C      1  0.6116180000000  0.5204170000000  0.4928620000000 1.0
C      1  0.4194600000000  0.5159850000000  0.4231000000000 1.0
C      1  0.4334240000000  0.5788740000000  0.4937490000000 1.0
C      1  0.4864660000000  0.5307680000000  0.5103730000000 1.0
C      1  0.4838990000000  0.5440310000000  0.4496450000000 1.0
C      1  0.4778760000000  0.4798700000000  0.4850310000000 1.0
C      1  0.4503430000000  0.3938860000000  0.5275290000000 1.0
C      1  0.5400280000000  0.4563610000000  0.5586540000000 1.0
C      1  0.5174580000000  0.4132840000000  0.5254000000000 1.0
C      1  0.4840440000000  0.5077570000000  0.6077800000000 1.0
C      1  0.5099010000000  0.5228970000000  0.6172340000000 1.0
C      1  0.5171740000000  0.5761560000000  0.4726170000000 1.0
C      1  0.5503240000000  0.4769660000000  0.4006080000000 1.0
C      1  0.3884920000000  0.4934580000000  0.5354330000000 1.0
C      1  0.3730450000000  0.4907410000000  0.5108610000000 1.0
C      1  0.4777710000000  0.4805750000000  0.5508960000000 1.0
C      1  0.4708980000000  0.5629410000000  0.5707690000000 1.0
C      1  0.4516630000000  0.5961100000000  0.5337550000000 1.0
C      1  0.5143560000000  0.4621520000000  0.5258430000000 1.0
C      1  0.5156580000000  0.5691600000000  0.4305340000000 1.0
C      1  0.5422890000000  0.5094390000000  0.5718790000000 1.0
C      1  0.6059810000000  0.4527300000000  0.4994800000000 1.0
C      1  0.4678730000000  0.4765030000000  0.4570040000000 1.0
C      1  0.4877880000000  0.4464150000000  0.3916980000000 1.0
C      1  0.5232480000000  0.5257310000000  0.3919550000000 1.0
C      1  0.6040010000000  0.5485420000000  0.4894520000000 1.0
C      1  0.5496310000000  0.4186250000000  0.5262420000000 1.0
C      1  0.5259140000000  0.5492920000000  0.6077190000000 1.0
C      1  0.5056980000000  0.3877110000000  0.5076900000000 1.0
C      1  0.5502470000000  0.4994970000000  0.5291290000000 1.0
C      1  0.5591280000000  0.4364020000000  0.5474780000000 1.0
C      1  0.4633230000000  0.5212080000000  0.5932460000000 1.0
C      1  0.5849060000000  0.4477030000000  0.5585910000000 1.0
C      1  0.5871020000000  0.4737090000000  0.5417240000000 1.0
C      1  0.5665060000000  0.5584630000000  0.5054790000000 1.0
C      1  0.5692550000000  0.4883660000000  0.4700780000000 1.0
C      1  0.4747600000000  0.5174560000000  0.4531320000000 1.0
C      1  0.4841310000000  0.6050190000000  0.4999560000000 1.0
C      1  0.6130200000000  0.4754240000000  0.4819210000000 1.0
C      1  0.5133510000000  0.4526510000000  0.4387640000000 1.0
C      1  0.6124800000000  0.4870900000000  0.5333200000000 1.0
C      1  0.3978750000000  0.5457620000000  0.4758280000000 1.0
C      1  0.4120500000000  0.5189700000000  0.5714880000000 1.0
C      1  0.4157620000000  0.5690680000000  0.4703420000000 1.0
C      1  0.4300160000000  0.4748690000000  0.5555890000000 1.0
C      1  0.4979260000000  0.4027610000000  0.5461990000000 1.0
C      1  0.4073110000000  0.4360300000000  0.4789190000000 1.0
C      1  0.5417440000000  0.5901610000000  0.4803150000000 1.0
C      1  0.4585740000000  0.3876950000000  0.4990030000000 1.0
C      1  0.5488370000000  0.4016960000000  0.4803870000000 1.0
C      1  0.5651720000000  0.4548990000000  0.4769150000000 1.0
C      1  0.4550430000000  0.5621490000000  0.4815740000000 1.0
C      1  0.5187640000000  0.4921950000000  0.4696820000000 1.0
C      1  0.5280110000000  0.5331560000000  0.5624410000000 1.0
C      1  0.4184780000000  0.4908670000000  0.4426380000000 1.0
C      1  0.4033980000000  0.4522040000000  0.5031380000000 1.0
C      1  0.5441170000000  0.5483520000000  0.5427050000000 1.0
C      1  0.4627240000000  0.5668660000000  0.4531180000000 1.0
C      1  0.5979260000000  0.5042300000000  0.4413340000000 1.0
C      1  0.4057050000000  0.5360370000000  0.5505390000000 1.0
C      1  0.5260450000000  0.4369120000000  0.5753440000000 1.0
C      1  0.4393860000000  0.5583530000000  0.5349000000000 1.0
END
