TITL C-883736-9678-169 -1.32739616805451 125000 -6697.86714023207 0 0 47 (C1) n - 1
REM
REM in /home/nfs/bkarasulu/CARBON/AIRSS/Generating-Clusters/ReaxFF-fromJPCA2015/Units_Real/with-SteepDescent/Only-C1/SD-CG/Try1-3A/FIRE-CG
REM
REM
REM
REM
REM
REM ./C.cell (11c1c37f851c82e70ff6c80c92926a4b)
REM
REM compiler GCC version 9.2.1 20190827 (Red Hat 9.2.1-1)
REM options -cpp -mtune=generic -march=x86-64 -g -O0 -fpre-include=/usr/include/finclude/math-vector-fortran.h
REM seed -155428476 -624553750 -786731145 -1306163662 -143881449 446834222 1069116116 -539639752 -1243126827 -1507881430 -1011139280 -1327450831 -2101074376 -1238068502 614952608 -1571185984 -493913249 -1187074792 -1511574809 -1713408523 -1081595751 393210461 282976030 1859674682 624066605 -342724931 230287656 -1502209077 949854888 -1966517876 -519815063 -1131602581 -1939855045
REM
CELL 1.54180   50.00000   50.00000   50.00000   90.00000   90.00000   90.00000
LATT -1
SFAC C  
C      1  0.4986930000000  0.4982220000000  0.4875250000000 1.0
C      1  0.5314810000000  0.5177550000000  0.5201970000000 1.0
C      1  0.4825180000000  0.5235230000000  0.5578130000000 1.0
C      1  0.4477420000000  0.4811270000000  0.5416560000000 1.0
C      1  0.4565360000000  0.4582760000000  0.4883480000000 1.0
C      1  0.4904160000000  0.4589540000000  0.4512190000000 1.0
C      1  0.5322640000000  0.4932850000000  0.4498560000000 1.0
C      1  0.4635120000000  0.4562490000000  0.4601950000000 1.0
C      1  0.4333470000000  0.4942090000000  0.5214390000000 1.0
C      1  0.5115900000000  0.4251430000000  0.5144420000000 1.0
C      1  0.4719450000000  0.4704950000000  0.5529330000000 1.0
C      1  0.4809110000000  0.4961440000000  0.4362260000000 1.0
C      1  0.5384220000000  0.5774050000000  0.5113310000000 1.0
C      1  0.4835140000000  0.5632940000000  0.4962630000000 1.0
C      1  0.5056480000000  0.4796710000000  0.4413310000000 1.0
C      1  0.5454800000000  0.4656050000000  0.4945900000000 1.0
C      1  0.5291070000000  0.5402190000000  0.5430110000000 1.0
C      1  0.5370110000000  0.4900090000000  0.5380750000000 1.0
C      1  0.4520450000000  0.5271700000000  0.4580710000000 1.0
C      1  0.5154270000000  0.4454100000000  0.5342910000000 1.0
C      1  0.4958690000000  0.4195750000000  0.4942900000000 1.0
C      1  0.4428270000000  0.5000820000000  0.4646590000000 1.0
C      1  0.5093640000000  0.5210000000000  0.4975990000000 1.0
C      1  0.4938350000000  0.4769470000000  0.5048910000000 1.0
C      1  0.5267040000000  0.4993880000000  0.5643560000000 1.0
C      1  0.5043860000000  0.5374490000000  0.4528090000000 1.0
C      1  0.5084510000000  0.5462670000000  0.4821510000000 1.0
C      1  0.5123490000000  0.5261880000000  0.5626730000000 1.0
C      1  0.4383740000000  0.5211530000000  0.5323140000000 1.0
C      1  0.5350130000000  0.4649020000000  0.5246880000000 1.0
C      1  0.4862890000000  0.4501710000000  0.5355240000000 1.0
C      1  0.4795200000000  0.5242710000000  0.4446430000000 1.0
C      1  0.5566540000000  0.5104400000000  0.5073450000000 1.0
C      1  0.5275390000000  0.5219540000000  0.4425850000000 1.0
C      1  0.5591320000000  0.5418830000000  0.4801690000000 1.0
C      1  0.4620380000000  0.5386300000000  0.5395160000000 1.0
C      1  0.4819580000000  0.4967810000000  0.5585480000000 1.0
C      1  0.5525920000000  0.4476260000000  0.4784790000000 1.0
C      1  0.4795240000000  0.4497720000000  0.5050710000000 1.0
C      1  0.4477840000000  0.4863920000000  0.4931050000000 1.0
C      1  0.4567050000000  0.4821370000000  0.4461380000000 1.0
C      1  0.5501840000000  0.4880950000000  0.4721680000000 1.0
C      1  0.5667920000000  0.5124050000000  0.4813890000000 1.0
C      1  0.4721990000000  0.5517480000000  0.5179850000000 1.0
C      1  0.4751200000000  0.4984110000000  0.5007600000000 1.0
C      1  0.5376220000000  0.5604920000000  0.4878460000000 1.0
C      1  0.5335660000000  0.5636720000000  0.5294850000000 1.0
END
