TITL C-884131-4643-206 29.7180058793389 125000 -13280.4485063454 0 0 90 (C1) n - 1
REM
REM in /home/nfs/bkarasulu/CARBON/AIRSS/Generating-Clusters/ReaxFF-fromJPCA2015/Units_Real/with-SteepDescent/Only-C1/SD-CG/Try1-3A/FIRE-CG
REM
REM
REM
REM
REM
REM ./C.cell (11c1c37f851c82e70ff6c80c92926a4b)
REM
REM compiler GCC version 9.2.1 20190827 (Red Hat 9.2.1-1)
REM options -cpp -mtune=generic -march=x86-64 -g -O0 -fpre-include=/usr/include/finclude/math-vector-fortran.h
REM seed 1770187684 -935144921 -1380833126 1298637684 -2111981108 103414527 -1362117707 -341094405 -2134225077 1293842394 -695538813 1071055946 1582063368 -968314902 1844514976 -1511183389 806590685 859379108 -998563162 -1209073468 -912636075 -1450517962 -656120285 1086452881 2031665780 -427533519 1060961739 -2104465689 535884489 1616471878 1786753695 -1891447977 1531645711
REM
CELL 1.54180   50.00000   50.00000   50.00000   90.00000   90.00000   90.00000
LATT -1
SFAC C  
C      1  0.4279050000000  0.5103420000000  0.4493240000000 1.0
C      1  0.5493670000000  0.4833360000000  0.5363220000000 1.0
C      1  0.5663200000000  0.5365270000000  0.4746720000000 1.0
C      1  0.5203440000000  0.5261850000000  0.4320370000000 1.0
C      1  0.4325030000000  0.5223570000000  0.5055220000000 1.0
C      1  0.4846480000000  0.4962010000000  0.5149950000000 1.0
C      1  0.4600100000000  0.4476590000000  0.5500200000000 1.0
C      1  0.4198200000000  0.4753820000000  0.5174390000000 1.0
C      1  0.4636490000000  0.4542850000000  0.5022620000000 1.0
C      1  0.5589840000000  0.5327170000000  0.4470740000000 1.0
C      1  0.4758030000000  0.5146080000000  0.5593870000000 1.0
C      1  0.4349690000000  0.5159380000000  0.5335580000000 1.0
C      1  0.5199140000000  0.4678850000000  0.5723690000000 1.0
C      1  0.5298490000000  0.4551700000000  0.4681260000000 1.0
C      1  0.5709060000000  0.4585840000000  0.4751450000000 1.0
C      1  0.5231560000000  0.5121510000000  0.4757060000000 1.0
C      1  0.4776370000000  0.5580980000000  0.5775410000000 1.0
C      1  0.5021110000000  0.4550900000000  0.4162290000000 1.0
C      1  0.4948920000000  0.5410120000000  0.4514150000000 1.0
C      1  0.5122890000000  0.4454280000000  0.5551960000000 1.0
C      1  0.5773060000000  0.5139970000000  0.4906140000000 1.0
C      1  0.4510780000000  0.4713480000000  0.4561090000000 1.0
C      1  0.4553360000000  0.5651740000000  0.5289290000000 1.0
C      1  0.5157360000000  0.5294170000000  0.5281190000000 1.0
C      1  0.4556930000000  0.5598720000000  0.5568190000000 1.0
C      1  0.5526770000000  0.5341610000000  0.5605310000000 1.0
C      1  0.4366460000000  0.5378280000000  0.4590900000000 1.0
C      1  0.5789770000000  0.5615210000000  0.5304110000000 1.0
C      1  0.4920980000000  0.4528640000000  0.4435370000000 1.0
C      1  0.5398160000000  0.5115140000000  0.5749100000000 1.0
C      1  0.4178560000000  0.4985290000000  0.4978020000000 1.0
C      1  0.4871440000000  0.4549730000000  0.5428100000000 1.0
C      1  0.4800450000000  0.5061010000000  0.4893580000000 1.0
C      1  0.4096850000000  0.4973380000000  0.4687640000000 1.0
C      1  0.5493860000000  0.4347040000000  0.5194720000000 1.0
C      1  0.5264970000000  0.5774470000000  0.4722510000000 1.0
C      1  0.5775580000000  0.4854340000000  0.4824600000000 1.0
C      1  0.4998530000000  0.4956540000000  0.4711440000000 1.0
C      1  0.5261780000000  0.4262150000000  0.5361890000000 1.0
C      1  0.4839880000000  0.4684700000000  0.5165180000000 1.0
C      1  0.5427840000000  0.4839150000000  0.5647360000000 1.0
C      1  0.4966970000000  0.4821230000000  0.4069040000000 1.0
C      1  0.4795440000000  0.5305610000000  0.4283070000000 1.0
C      1  0.4944660000000  0.5118490000000  0.5364130000000 1.0
C      1  0.4770260000000  0.5872340000000  0.4941720000000 1.0
C      1  0.5425070000000  0.5085540000000  0.4390980000000 1.0
C      1  0.5329120000000  0.4961410000000  0.4959500000000 1.0
C      1  0.4239350000000  0.4397890000000  0.4826450000000 1.0
C      1  0.5245480000000  0.4739110000000  0.4110480000000 1.0
C      1  0.4485910000000  0.5415020000000  0.4873370000000 1.0
C      1  0.4529720000000  0.4506770000000  0.4746000000000 1.0
C      1  0.5367440000000  0.5498810000000  0.4350970000000 1.0
C      1  0.4505210000000  0.4733200000000  0.5594460000000 1.0
C      1  0.5327080000000  0.4692710000000  0.4944550000000 1.0
C      1  0.5533960000000  0.4616530000000  0.4513730000000 1.0
C      1  0.4712410000000  0.4893870000000  0.5732760000000 1.0
C      1  0.5010780000000  0.5425700000000  0.5877320000000 1.0
C      1  0.5130720000000  0.5133950000000  0.5857030000000 1.0
C      1  0.4995360000000  0.4876550000000  0.5825500000000 1.0
C      1  0.4526020000000  0.4356810000000  0.5231590000000 1.0
C      1  0.5171040000000  0.5549220000000  0.5685460000000 1.0
C      1  0.4775880000000  0.4981380000000  0.4256340000000 1.0
C      1  0.5237030000000  0.5387710000000  0.4863510000000 1.0
C      1  0.5056660000000  0.5907330000000  0.4877400000000 1.0
C      1  0.5703000000000  0.5146140000000  0.5195160000000 1.0
C      1  0.5746090000000  0.5331910000000  0.5411610000000 1.0
C      1  0.5467040000000  0.4620340000000  0.5178840000000 1.0
C      1  0.5348270000000  0.4265330000000  0.4737870000000 1.0
C      1  0.4795780000000  0.5341420000000  0.4819990000000 1.0
C      1  0.5083950000000  0.4151540000000  0.4711540000000 1.0
C      1  0.4854550000000  0.4294000000000  0.4602690000000 1.0
C      1  0.4320830000000  0.4868350000000  0.5403690000000 1.0
C      1  0.5459530000000  0.4808080000000  0.4304120000000 1.0
C      1  0.4493030000000  0.4907140000000  0.4387860000000 1.0
C      1  0.4866470000000  0.4203300000000  0.4874950000000 1.0
C      1  0.4909800000000  0.4817310000000  0.4477740000000 1.0
C      1  0.4972870000000  0.5744230000000  0.5073510000000 1.0
C      1  0.5149260000000  0.5641830000000  0.4493460000000 1.0
C      1  0.5468660000000  0.5575480000000  0.4867470000000 1.0
C      1  0.4763110000000  0.4157780000000  0.5143450000000 1.0
C      1  0.4513240000000  0.5305380000000  0.5533420000000 1.0
C      1  0.4548710000000  0.5695920000000  0.5021140000000 1.0
C      1  0.5017290000000  0.4172360000000  0.5253020000000 1.0
C      1  0.5324140000000  0.5505900000000  0.5447060000000 1.0
C      1  0.4551500000000  0.5398850000000  0.4386460000000 1.0
C      1  0.5528870000000  0.5687700000000  0.5184050000000 1.0
C      1  0.5568340000000  0.4333470000000  0.4916400000000 1.0
C      1  0.5409880000000  0.5070990000000  0.5209930000000 1.0
C      1  0.4236000000000  0.4466140000000  0.5104910000000 1.0
C      1  0.5004120000000  0.5457640000000  0.5035140000000 1.0
END
