TITL C-883727-9645-266 4.97848912082532 125000 -18748.6638006355 0 0 127 (C1) n - 1
REM
REM in /home/nfs/bkarasulu/CARBON/AIRSS/Generating-Clusters/ReaxFF-fromJPCA2015/Units_Real/with-SteepDescent/Only-C1/SD-CG/Try1-3A/FIRE-CG
REM
REM
REM
REM
REM
REM ./C.cell (11c1c37f851c82e70ff6c80c92926a4b)
REM
REM compiler GCC version 9.2.1 20190827 (Red Hat 9.2.1-1)
REM options -cpp -mtune=generic -march=x86-64 -g -O0 -fpre-include=/usr/include/finclude/math-vector-fortran.h
REM seed 456201815 1586167471 1066839598 1071624295 343486381 1089777033 285575061 -1528647677 747303331 1760476614 -145838533 -128896382 -296570326 539738843 1857155686 -1126294687 993697179 -678451670 -1122635816 -345231902 1276677182 1180042490 1229382262 841121804 -2078910237 1796781317 -1664187403 681026512 8773392 430669708 1639097190 -1942782945 -191489392
REM
CELL 1.54180   50.00000   50.00000   50.00000   90.00000   90.00000   90.00000
LATT -1
SFAC C  
C      1  0.5086130000000  0.5289410000000  0.4298650000000 1.0
C      1  0.4355810000000  0.4324100000000  0.5174130000000 1.0
C      1  0.5403030000000  0.4175840000000  0.4615540000000 1.0
C      1  0.4375020000000  0.5543360000000  0.5066440000000 1.0
C      1  0.5658580000000  0.5585390000000  0.5375050000000 1.0
C      1  0.4648080000000  0.5899110000000  0.4912520000000 1.0
C      1  0.5663150000000  0.5374740000000  0.5591080000000 1.0
C      1  0.5393070000000  0.4997310000000  0.5805570000000 1.0
C      1  0.5041740000000  0.4591020000000  0.5847430000000 1.0
C      1  0.5294130000000  0.4581250000000  0.5531980000000 1.0
C      1  0.4672620000000  0.4944350000000  0.4823970000000 1.0
C      1  0.4386090000000  0.4196000000000  0.4906670000000 1.0
C      1  0.5067270000000  0.4801440000000  0.4573870000000 1.0
C      1  0.5189760000000  0.4757080000000  0.5323230000000 1.0
C      1  0.4811100000000  0.4411980000000  0.5173900000000 1.0
C      1  0.5130270000000  0.5831780000000  0.4553880000000 1.0
C      1  0.5864010000000  0.4843960000000  0.4793260000000 1.0
C      1  0.4696790000000  0.5129580000000  0.4603080000000 1.0
C      1  0.6037820000000  0.5308540000000  0.4779680000000 1.0
C      1  0.5202530000000  0.4407230000000  0.4749870000000 1.0
C      1  0.5354350000000  0.5013340000000  0.5329320000000 1.0
C      1  0.4911110000000  0.5529760000000  0.4169010000000 1.0
C      1  0.5629200000000  0.4351050000000  0.4583480000000 1.0
C      1  0.5500500000000  0.5513580000000  0.4365290000000 1.0
C      1  0.4429720000000  0.4889430000000  0.5787130000000 1.0
C      1  0.5695790000000  0.4830730000000  0.4288590000000 1.0
C      1  0.6051470000000  0.5033610000000  0.4659830000000 1.0
C      1  0.4117470000000  0.4482830000000  0.4743360000000 1.0
C      1  0.4404220000000  0.4985900000000  0.4229390000000 1.0
C      1  0.5513230000000  0.5631950000000  0.5616000000000 1.0
C      1  0.4644670000000  0.4424620000000  0.5622630000000 1.0
C      1  0.4321240000000  0.4315890000000  0.4643140000000 1.0
C      1  0.4793080000000  0.5898520000000  0.5169440000000 1.0
C      1  0.4648950000000  0.5424430000000  0.4241750000000 1.0
C      1  0.4434950000000  0.4694840000000  0.4268650000000 1.0
C      1  0.5131550000000  0.4870920000000  0.4845810000000 1.0
C      1  0.5080560000000  0.5956770000000  0.5253130000000 1.0
C      1  0.5004380000000  0.5380840000000  0.5276080000000 1.0
C      1  0.5816440000000  0.4858890000000  0.5579130000000 1.0
C      1  0.5580450000000  0.5666630000000  0.4808360000000 1.0
C      1  0.4439320000000  0.5367000000000  0.5607740000000 1.0
C      1  0.5824870000000  0.4736320000000  0.5060080000000 1.0
C      1  0.4781890000000  0.4478720000000  0.4906450000000 1.0
C      1  0.4634580000000  0.5140210000000  0.4130610000000 1.0
C      1  0.5789440000000  0.5516630000000  0.4378760000000 1.0
C      1  0.4727380000000  0.5771170000000  0.4644910000000 1.0
C      1  0.4421910000000  0.4624410000000  0.5707000000000 1.0
C      1  0.4031550000000  0.4713740000000  0.4808120000000 1.0
C      1  0.5541740000000  0.5707170000000  0.5113070000000 1.0
C      1  0.4185560000000  0.5226330000000  0.4625570000000 1.0
C      1  0.4730960000000  0.5815390000000  0.5451410000000 1.0
C      1  0.5947390000000  0.4958960000000  0.4391810000000 1.0
C      1  0.4377010000000  0.5829460000000  0.4991760000000 1.0
C      1  0.5592680000000  0.4562010000000  0.4371050000000 1.0
C      1  0.4832830000000  0.5356710000000  0.5504770000000 1.0
C      1  0.4654610000000  0.4212190000000  0.4415680000000 1.0
C      1  0.4910790000000  0.4828190000000  0.5452880000000 1.0
C      1  0.5378190000000  0.5266780000000  0.4249260000000 1.0
C      1  0.4929230000000  0.4381910000000  0.5675730000000 1.0
C      1  0.5542430000000  0.5249740000000  0.4778310000000 1.0
C      1  0.4900460000000  0.4828240000000  0.5746170000000 1.0
C      1  0.5901290000000  0.5131110000000  0.5253000000000 1.0
C      1  0.5265560000000  0.4654010000000  0.4995460000000 1.0
C      1  0.4942480000000  0.4307570000000  0.4767760000000 1.0
C      1  0.5510460000000  0.4210600000000  0.5128060000000 1.0
C      1  0.4260350000000  0.4584650000000  0.5246560000000 1.0
C      1  0.4713560000000  0.4378530000000  0.4190280000000 1.0
C      1  0.5197960000000  0.5186700000000  0.5912090000000 1.0
C      1  0.5133130000000  0.5471290000000  0.5855490000000 1.0
C      1  0.5145920000000  0.4545200000000  0.4514650000000 1.0
C      1  0.5109460000000  0.4232750000000  0.5478620000000 1.0
C      1  0.5592310000000  0.4971480000000  0.4716960000000 1.0
C      1  0.5468640000000  0.4998250000000  0.4185920000000 1.0
C      1  0.5560210000000  0.4601620000000  0.5021740000000 1.0
C      1  0.4454240000000  0.5159430000000  0.5849930000000 1.0
C      1  0.4792130000000  0.3943110000000  0.5115170000000 1.0
C      1  0.4910590000000  0.5024480000000  0.4950530000000 1.0
C      1  0.6079000000000  0.5295530000000  0.5066790000000 1.0
C      1  0.5029600000000  0.4949720000000  0.4319150000000 1.0
C      1  0.5734580000000  0.4601130000000  0.5538700000000 1.0
C      1  0.4215010000000  0.5643420000000  0.4835950000000 1.0
C      1  0.4985370000000  0.5740460000000  0.4329670000000 1.0
C      1  0.4668380000000  0.4672330000000  0.4101920000000 1.0
C      1  0.4407680000000  0.4883650000000  0.5230730000000 1.0
C      1  0.4939790000000  0.5056720000000  0.5944500000000 1.0
C      1  0.4831080000000  0.4917730000000  0.4105140000000 1.0
C      1  0.4196890000000  0.4671320000000  0.5516910000000 1.0
C      1  0.5367930000000  0.5648600000000  0.4612670000000 1.0
C      1  0.3971650000000  0.4982800000000  0.4881580000000 1.0
C      1  0.4294880000000  0.5509310000000  0.4591040000000 1.0
C      1  0.5221690000000  0.5674420000000  0.5667940000000 1.0
C      1  0.4555880000000  0.5573290000000  0.4481990000000 1.0
C      1  0.5299870000000  0.4712160000000  0.5785490000000 1.0
C      1  0.4774250000000  0.4096750000000  0.4647340000000 1.0
C      1  0.4425560000000  0.5083730000000  0.5012240000000 1.0
C      1  0.4635370000000  0.4660030000000  0.4759770000000 1.0
C      1  0.4960310000000  0.4164230000000  0.5230420000000 1.0
C      1  0.4713030000000  0.5239720000000  0.5959360000000 1.0
C      1  0.5781420000000  0.5465470000000  0.4694500000000 1.0
C      1  0.4564870000000  0.5334310000000  0.5041200000000 1.0
C      1  0.4851400000000  0.5437820000000  0.5792490000000 1.0
C      1  0.4620390000000  0.5209250000000  0.5444290000000 1.0
C      1  0.5316180000000  0.5833970000000  0.5167790000000 1.0
C      1  0.5641340000000  0.4335900000000  0.4913510000000 1.0
C      1  0.4593450000000  0.4342090000000  0.5351840000000 1.0
C      1  0.4868220000000  0.5310800000000  0.5014580000000 1.0
C      1  0.5025780000000  0.5838750000000  0.5522290000000 1.0
C      1  0.4476050000000  0.4558300000000  0.4538340000000 1.0
C      1  0.4516320000000  0.5646760000000  0.5573600000000 1.0
C      1  0.3927320000000  0.4983780000000  0.5195380000000 1.0
C      1  0.5461650000000  0.5300960000000  0.5058890000000 1.0
C      1  0.4615010000000  0.4006920000000  0.4884690000000 1.0
C      1  0.5319110000000  0.4579470000000  0.4288830000000 1.0
C      1  0.5627660000000  0.5093520000000  0.5670560000000 1.0
C      1  0.4659550000000  0.4942430000000  0.5371070000000 1.0
C      1  0.4942020000000  0.5279660000000  0.4567530000000 1.0
C      1  0.5528720000000  0.4415070000000  0.5548090000000 1.0
C      1  0.4428840000000  0.5123470000000  0.4490040000000 1.0
C      1  0.4972730000000  0.5717910000000  0.4762350000000 1.0
C      1  0.5610150000000  0.5101130000000  0.5205880000000 1.0
C      1  0.5236790000000  0.4823630000000  0.4148620000000 1.0
C      1  0.4187050000000  0.5143160000000  0.4879350000000 1.0
C      1  0.4126430000000  0.4947720000000  0.5391320000000 1.0
C      1  0.5950730000000  0.4844670000000  0.5305540000000 1.0
C      1  0.5233270000000  0.5241810000000  0.5219490000000 1.0
C      1  0.5399920000000  0.4197460000000  0.5388690000000 1.0
C      1  0.5036410000000  0.5446660000000  0.4777250000000 1.0
END
