TITL C-884138-6203-302 3.42730541872265 125000 -22018.5764869799 0 0 145 (C1) n - 1
REM
REM in /home/nfs/bkarasulu/CARBON/AIRSS/Generating-Clusters/ReaxFF-fromJPCA2015/Units_Real/with-SteepDescent/Only-C1/SD-CG/Try1-3A/FIRE-CG
REM
REM
REM
REM
REM
REM ./C.cell (11c1c37f851c82e70ff6c80c92926a4b)
REM
REM compiler GCC version 9.2.1 20190827 (Red Hat 9.2.1-1)
REM options -cpp -mtune=generic -march=x86-64 -g -O0 -fpre-include=/usr/include/finclude/math-vector-fortran.h
REM seed -981167615 -1070589299 -243480261 -678033239 1452161552 1660242487 1615822160 1239144764 -1371044731 -417604998 -1582424670 -511589160 138903660 1233385215 172530068 332413106 574456188 1563268554 -1739742949 354895801 -1638940991 505384418 498749377 1159237831 -948569718 -446424506 -2051171248 1923600276 552582079 1048727482 -47900120 -300902911 -464630556
REM
CELL 1.54180   50.00000   50.00000   50.00000   90.00000   90.00000   90.00000
LATT -1
SFAC C  
C      1  0.5358280000000  0.5327620000000  0.5049280000000 1.0
C      1  0.4707470000000  0.4838790000000  0.4529590000000 1.0
C      1  0.4698770000000  0.4663590000000  0.5608030000000 1.0
C      1  0.4786900000000  0.4138020000000  0.5233590000000 1.0
C      1  0.5567920000000  0.4829840000000  0.5324420000000 1.0
C      1  0.5706190000000  0.4304820000000  0.5460600000000 1.0
C      1  0.5883730000000  0.5565520000000  0.4832710000000 1.0
C      1  0.4469070000000  0.5765630000000  0.5641080000000 1.0
C      1  0.4992590000000  0.4895470000000  0.4638550000000 1.0
C      1  0.5232460000000  0.4216040000000  0.4715930000000 1.0
C      1  0.4307670000000  0.5517630000000  0.5567560000000 1.0
C      1  0.4242700000000  0.5058680000000  0.5294990000000 1.0
C      1  0.5412290000000  0.4860300000000  0.5084220000000 1.0
C      1  0.4835520000000  0.5199150000000  0.4189150000000 1.0
C      1  0.4843440000000  0.4510510000000  0.4753730000000 1.0
C      1  0.4687970000000  0.5637230000000  0.4553270000000 1.0
C      1  0.4262970000000  0.4358690000000  0.5415450000000 1.0
C      1  0.4674410000000  0.4806320000000  0.3987090000000 1.0
C      1  0.4653080000000  0.5115520000000  0.4436100000000 1.0
C      1  0.4684550000000  0.5367860000000  0.4677880000000 1.0
C      1  0.5258790000000  0.4280230000000  0.5193980000000 1.0
C      1  0.4960030000000  0.4412590000000  0.5227770000000 1.0
C      1  0.5559730000000  0.5069530000000  0.5814970000000 1.0
C      1  0.5477000000000  0.5417240000000  0.5289060000000 1.0
C      1  0.4680210000000  0.4887940000000  0.5793970000000 1.0
C      1  0.5580030000000  0.5755430000000  0.4467840000000 1.0
C      1  0.5387640000000  0.4929970000000  0.5995460000000 1.0
C      1  0.5396430000000  0.4704840000000  0.5518320000000 1.0
C      1  0.4595690000000  0.4434870000000  0.5769410000000 1.0
C      1  0.4959540000000  0.4360900000000  0.4078780000000 1.0
C      1  0.5741380000000  0.5712050000000  0.5010170000000 1.0
C      1  0.5509600000000  0.4663770000000  0.4379370000000 1.0
C      1  0.4502320000000  0.4443780000000  0.4259780000000 1.0
C      1  0.5208990000000  0.4423760000000  0.3922960000000 1.0
C      1  0.5576260000000  0.5767050000000  0.5486300000000 1.0
C      1  0.5602520000000  0.5243100000000  0.4856780000000 1.0
C      1  0.4721770000000  0.4034140000000  0.4986340000000 1.0
C      1  0.5333820000000  0.5884590000000  0.5595090000000 1.0
C      1  0.4902800000000  0.5334170000000  0.4872480000000 1.0
C      1  0.4420170000000  0.5019620000000  0.5751570000000 1.0
C      1  0.5494710000000  0.4542740000000  0.5742820000000 1.0
C      1  0.4936640000000  0.5964440000000  0.4586320000000 1.0
C      1  0.5822420000000  0.4995420000000  0.5417030000000 1.0
C      1  0.4728350000000  0.5754840000000  0.5141710000000 1.0
C      1  0.5797090000000  0.4716210000000  0.4807050000000 1.0
C      1  0.4672800000000  0.5904100000000  0.4667350000000 1.0
C      1  0.4723170000000  0.5490740000000  0.5251240000000 1.0
C      1  0.4976930000000  0.4172170000000  0.4304770000000 1.0
C      1  0.5115610000000  0.5122730000000  0.4573160000000 1.0
C      1  0.4178890000000  0.4765800000000  0.4875160000000 1.0
C      1  0.5191560000000  0.4162200000000  0.5587780000000 1.0
C      1  0.5584660000000  0.5852080000000  0.5197120000000 1.0
C      1  0.4514720000000  0.4615760000000  0.4513140000000 1.0
C      1  0.4937420000000  0.5052750000000  0.4944920000000 1.0
C      1  0.4824880000000  0.5425390000000  0.5519380000000 1.0
C      1  0.5932510000000  0.4716840000000  0.5502570000000 1.0
C      1  0.5498510000000  0.4186920000000  0.4321880000000 1.0
C      1  0.5143190000000  0.5499850000000  0.4858450000000 1.0
C      1  0.4188540000000  0.5386100000000  0.5339360000000 1.0
C      1  0.4682570000000  0.4001470000000  0.4731170000000 1.0
C      1  0.5131720000000  0.4791520000000  0.5507200000000 1.0
C      1  0.4218860000000  0.5579530000000  0.4517330000000 1.0
C      1  0.5234290000000  0.4108100000000  0.4442680000000 1.0
C      1  0.4098680000000  0.5414550000000  0.5062620000000 1.0
C      1  0.4877250000000  0.5991000000000  0.5428780000000 1.0
C      1  0.5320390000000  0.4712280000000  0.4610590000000 1.0
C      1  0.4327470000000  0.4647050000000  0.4148930000000 1.0
C      1  0.5501080000000  0.4805500000000  0.4120040000000 1.0
C      1  0.5829550000000  0.4353860000000  0.5202510000000 1.0
C      1  0.4367240000000  0.5148200000000  0.4306700000000 1.0
C      1  0.4122000000000  0.4323050000000  0.5151470000000 1.0
C      1  0.5112740000000  0.5046250000000  0.5410060000000 1.0
C      1  0.4898090000000  0.4998360000000  0.3987190000000 1.0
C      1  0.4283850000000  0.4602020000000  0.5535900000000 1.0
C      1  0.4675310000000  0.5427260000000  0.5780510000000 1.0
C      1  0.4711790000000  0.4083460000000  0.5510290000000 1.0
C      1  0.5064430000000  0.5279360000000  0.5577770000000 1.0
C      1  0.4568010000000  0.5300150000000  0.5118330000000 1.0
C      1  0.4936890000000  0.4600720000000  0.5461470000000 1.0
C      1  0.4937220000000  0.4143170000000  0.5705030000000 1.0
C      1  0.5155210000000  0.5979390000000  0.5372760000000 1.0
C      1  0.4590290000000  0.5969440000000  0.5456020000000 1.0
C      1  0.4501320000000  0.5921140000000  0.5180330000000 1.0
C      1  0.4804500000000  0.4592220000000  0.5030560000000 1.0
C      1  0.5796490000000  0.5598980000000  0.4532350000000 1.0
C      1  0.4474790000000  0.4231480000000  0.5590300000000 1.0
C      1  0.5878360000000  0.5272970000000  0.4943050000000 1.0
C      1  0.5402260000000  0.5088100000000  0.4069950000000 1.0
C      1  0.4722170000000  0.4155470000000  0.4430620000000 1.0
C      1  0.5208460000000  0.5829100000000  0.5854840000000 1.0
C      1  0.5776110000000  0.4513170000000  0.5648630000000 1.0
C      1  0.5372780000000  0.4262560000000  0.4083360000000 1.0
C      1  0.5035480000000  0.4594700000000  0.5972070000000 1.0
C      1  0.4249440000000  0.4876490000000  0.5557560000000 1.0
C      1  0.5952840000000  0.5075000000000  0.5140760000000 1.0
C      1  0.4182830000000  0.5034130000000  0.4795410000000 1.0
C      1  0.5240010000000  0.5361060000000  0.4551580000000 1.0
C      1  0.4652270000000  0.5936690000000  0.4950940000000 1.0
C      1  0.4408000000000  0.5310780000000  0.5755350000000 1.0
C      1  0.5972820000000  0.4808640000000  0.5027590000000 1.0
C      1  0.4084840000000  0.5122590000000  0.5042200000000 1.0
C      1  0.5985090000000  0.4603770000000  0.5240640000000 1.0
C      1  0.5409180000000  0.4216230000000  0.4956750000000 1.0
C      1  0.4723260000000  0.4870750000000  0.5068760000000 1.0
C      1  0.5218950000000  0.5526570000000  0.4246540000000 1.0
C      1  0.5314890000000  0.4704890000000  0.3913130000000 1.0
C      1  0.4920150000000  0.5472590000000  0.4175550000000 1.0
C      1  0.4909650000000  0.4861550000000  0.5980160000000 1.0
C      1  0.5197750000000  0.5798500000000  0.4870950000000 1.0
C      1  0.5118890000000  0.5310550000000  0.5867290000000 1.0
C      1  0.5128270000000  0.4487710000000  0.4684390000000 1.0
C      1  0.5516390000000  0.4791750000000  0.4828090000000 1.0
C      1  0.4863270000000  0.4373630000000  0.5880650000000 1.0
C      1  0.4236390000000  0.5527180000000  0.4821370000000 1.0
C      1  0.4311170000000  0.4572940000000  0.4718860000000 1.0
C      1  0.5181950000000  0.5053030000000  0.5131100000000 1.0
C      1  0.5597610000000  0.5461290000000  0.5511560000000 1.0
C      1  0.5215400000000  0.5937510000000  0.4593340000000 1.0
C      1  0.4716160000000  0.4519540000000  0.4064010000000 1.0
C      1  0.5461810000000  0.5349330000000  0.4176840000000 1.0
C      1  0.5535780000000  0.5254790000000  0.4582310000000 1.0
C      1  0.5693870000000  0.5369640000000  0.4366180000000 1.0
C      1  0.4392810000000  0.5458930000000  0.4306530000000 1.0
C      1  0.4135320000000  0.5106020000000  0.4512200000000 1.0
C      1  0.5697630000000  0.4286530000000  0.4948120000000 1.0
C      1  0.5651980000000  0.4417890000000  0.4445380000000 1.0
C      1  0.5333420000000  0.5788700000000  0.4355560000000 1.0
C      1  0.4929720000000  0.5795090000000  0.5945880000000 1.0
C      1  0.5411420000000  0.4195480000000  0.5428750000000 1.0
C      1  0.5778830000000  0.4437530000000  0.4709720000000 1.0
C      1  0.4659950000000  0.5585870000000  0.4266260000000 1.0
C      1  0.4670810000000  0.4269780000000  0.4664150000000 1.0
C      1  0.4661700000000  0.5711670000000  0.5854480000000 1.0
C      1  0.5327720000000  0.4642120000000  0.5962860000000 1.0
C      1  0.5121000000000  0.5059170000000  0.6017130000000 1.0
C      1  0.4184260000000  0.4359990000000  0.4868470000000 1.0
C      1  0.4414320000000  0.4908720000000  0.4088670000000 1.0
C      1  0.4038020000000  0.5369190000000  0.4500340000000 1.0
C      1  0.5179660000000  0.4966030000000  0.3905180000000 1.0
C      1  0.5304000000000  0.5914190000000  0.5116120000000 1.0
C      1  0.5712420000000  0.5194730000000  0.5637320000000 1.0
C      1  0.4537110000000  0.5027340000000  0.5220230000000 1.0
C      1  0.4019090000000  0.4553690000000  0.5011190000000 1.0
C      1  0.5126650000000  0.5579220000000  0.5986190000000 1.0
C      1  0.4450280000000  0.5333510000000  0.4853210000000 1.0
END
