TITL C-884141-4321-324 84.1870209056932 125000 -28405.9338536069 0 0 190 (C1) n - 1
REM
REM in /home/nfs/bkarasulu/CARBON/AIRSS/Generating-Clusters/ReaxFF-fromJPCA2015/Units_Real/with-SteepDescent/Only-C1/SD-CG/Try1-3A/FIRE-CG
REM
REM
REM
REM
REM
REM ./C.cell (11c1c37f851c82e70ff6c80c92926a4b)
REM
REM compiler GCC version 9.2.1 20190827 (Red Hat 9.2.1-1)
REM options -cpp -mtune=generic -march=x86-64 -g -O0 -fpre-include=/usr/include/finclude/math-vector-fortran.h
REM seed -1096328393 772643251 378123889 1850150408 -79483647 -230505399 -1171563921 -1145850893 -1949004957 -1165792181 -1603738980 -1265091306 1037192115 -860564365 868114431 87973697 -1306048700 1046516978 -1659168442 808518397 -1709793984 -981478898 613222034 714576046 42976089 1515268210 -406658762 669843935 1352085005 -103544073 984154011 1060981527 -2078817394
REM
CELL 1.54180   50.00000   50.00000   50.00000   90.00000   90.00000   90.00000
LATT -1
SFAC C  
C      1  0.4625680000000  0.6074400000000  0.5039630000000 1.0
C      1  0.5221130000000  0.5279070000000  0.4694750000000 1.0
C      1  0.5178430000000  0.5976710000000  0.4302930000000 1.0
C      1  0.4975720000000  0.4447330000000  0.5307660000000 1.0
C      1  0.4065430000000  0.5245020000000  0.5338020000000 1.0
C      1  0.4922600000000  0.5298540000000  0.4331180000000 1.0
C      1  0.4346310000000  0.5570600000000  0.5710540000000 1.0
C      1  0.5063350000000  0.4784910000000  0.5658210000000 1.0
C      1  0.5971730000000  0.5492520000000  0.5136160000000 1.0
C      1  0.5125300000000  0.5453470000000  0.4471180000000 1.0
C      1  0.4068480000000  0.4454490000000  0.4964980000000 1.0
C      1  0.5644530000000  0.5145890000000  0.4312040000000 1.0
C      1  0.4531460000000  0.4154170000000  0.4494520000000 1.0
C      1  0.5258830000000  0.4921640000000  0.5063720000000 1.0
C      1  0.6164430000000  0.4916320000000  0.4652600000000 1.0
C      1  0.4777880000000  0.5015330000000  0.4764240000000 1.0
C      1  0.4155580000000  0.4611040000000  0.4451240000000 1.0
C      1  0.5232700000000  0.5509020000000  0.4016410000000 1.0
C      1  0.5900980000000  0.5220650000000  0.5584700000000 1.0
C      1  0.4710870000000  0.3965020000000  0.5216750000000 1.0
C      1  0.5260920000000  0.3900360000000  0.4715860000000 1.0
C      1  0.4901000000000  0.4810570000000  0.3874730000000 1.0
C      1  0.4799340000000  0.6109400000000  0.4775900000000 1.0
C      1  0.5889820000000  0.5713170000000  0.4960550000000 1.0
C      1  0.5311890000000  0.5223960000000  0.5424950000000 1.0
C      1  0.4612520000000  0.4947780000000  0.5296160000000 1.0
C      1  0.4208500000000  0.5719060000000  0.4514190000000 1.0
C      1  0.4210570000000  0.4373380000000  0.5666130000000 1.0
C      1  0.5923740000000  0.4223340000000  0.4771270000000 1.0
C      1  0.5579960000000  0.5883760000000  0.5374380000000 1.0
C      1  0.4942930000000  0.5562980000000  0.5902090000000 1.0
C      1  0.6217720000000  0.4972140000000  0.4938320000000 1.0
C      1  0.5663960000000  0.4889350000000  0.4468790000000 1.0
C      1  0.4985490000000  0.3977740000000  0.5312490000000 1.0
C      1  0.5307970000000  0.6023270000000  0.5347210000000 1.0
C      1  0.4770180000000  0.4150380000000  0.5664330000000 1.0
C      1  0.4007190000000  0.4714590000000  0.5088720000000 1.0
C      1  0.6056440000000  0.4654830000000  0.4553740000000 1.0
C      1  0.4969950000000  0.5099480000000  0.3885770000000 1.0
C      1  0.4580770000000  0.5491890000000  0.4621050000000 1.0
C      1  0.4769950000000  0.5182770000000  0.6134810000000 1.0
C      1  0.5714270000000  0.5205640000000  0.5778070000000 1.0
C      1  0.4684000000000  0.4561930000000  0.4727030000000 1.0
C      1  0.4326900000000  0.4271580000000  0.5403740000000 1.0
C      1  0.5349190000000  0.4556070000000  0.4035420000000 1.0
C      1  0.5211680000000  0.4460580000000  0.4765900000000 1.0
C      1  0.5591210000000  0.5129660000000  0.4934760000000 1.0
C      1  0.4480210000000  0.5781160000000  0.4603060000000 1.0
C      1  0.4630430000000  0.4914730000000  0.6117520000000 1.0
C      1  0.5702470000000  0.4171950000000  0.4606510000000 1.0
C      1  0.5176360000000  0.5629230000000  0.5728420000000 1.0
C      1  0.5312340000000  0.4638250000000  0.5754220000000 1.0
C      1  0.4362960000000  0.5059100000000  0.5733740000000 1.0
C      1  0.4215700000000  0.5044650000000  0.4211220000000 1.0
C      1  0.6063760000000  0.5181270000000  0.4612500000000 1.0
C      1  0.5925320000000  0.4894220000000  0.5261870000000 1.0
C      1  0.4896390000000  0.4407660000000  0.4139000000000 1.0
C      1  0.4979900000000  0.5671640000000  0.4619450000000 1.0
C      1  0.4498400000000  0.5393620000000  0.5137700000000 1.0
C      1  0.4755600000000  0.5524070000000  0.5080640000000 1.0
C      1  0.6099930000000  0.4491970000000  0.5020940000000 1.0
C      1  0.5326060000000  0.5175860000000  0.6135950000000 1.0
C      1  0.4309290000000  0.4882450000000  0.4691070000000 1.0
C      1  0.4574110000000  0.4635970000000  0.5611500000000 1.0
C      1  0.5766410000000  0.4430590000000  0.5626730000000 1.0
C      1  0.4819270000000  0.5489090000000  0.4805480000000 1.0
C      1  0.5275950000000  0.4342850000000  0.5753980000000 1.0
C      1  0.5479660000000  0.4714470000000  0.6032360000000 1.0
C      1  0.5522120000000  0.5469820000000  0.4421310000000 1.0
C      1  0.3902320000000  0.4945010000000  0.4936060000000 1.0
C      1  0.4288970000000  0.4183270000000  0.4655230000000 1.0
C      1  0.5127790000000  0.5838930000000  0.5026380000000 1.0
C      1  0.5045840000000  0.5173630000000  0.6237540000000 1.0
C      1  0.4707520000000  0.5195570000000  0.3918810000000 1.0
C      1  0.4872180000000  0.6007390000000  0.5548410000000 1.0
C      1  0.4172610000000  0.5795340000000  0.4925010000000 1.0
C      1  0.4885350000000  0.4914600000000  0.5225470000000 1.0
C      1  0.4985210000000  0.5543530000000  0.5247270000000 1.0
C      1  0.4499050000000  0.4984320000000  0.4046680000000 1.0
C      1  0.4616580000000  0.4896920000000  0.4319810000000 1.0
C      1  0.5636110000000  0.4320080000000  0.5158800000000 1.0
C      1  0.5481780000000  0.5556940000000  0.5757860000000 1.0
C      1  0.5082500000000  0.6181310000000  0.4809590000000 1.0
C      1  0.5756730000000  0.5698150000000  0.4680340000000 1.0
C      1  0.4880220000000  0.4456600000000  0.4425560000000 1.0
C      1  0.4418760000000  0.4513640000000  0.5833450000000 1.0
C      1  0.5126420000000  0.5773140000000  0.4072170000000 1.0
C      1  0.4761630000000  0.4381770000000  0.4943150000000 1.0
C      1  0.5806000000000  0.5557340000000  0.4419890000000 1.0
C      1  0.5069750000000  0.4579800000000  0.3962970000000 1.0
C      1  0.4037520000000  0.5001100000000  0.4677040000000 1.0
C      1  0.6130510000000  0.4763870000000  0.5124370000000 1.0
C      1  0.4429210000000  0.5353550000000  0.5852000000000 1.0
C      1  0.4627050000000  0.3995900000000  0.4929240000000 1.0
C      1  0.4345280000000  0.4082440000000  0.4927310000000 1.0
C      1  0.4880830000000  0.4771170000000  0.4795290000000 1.0
C      1  0.5398060000000  0.4343090000000  0.4260580000000 1.0
C      1  0.5860570000000  0.5468700000000  0.5399390000000 1.0
C      1  0.4504740000000  0.5581210000000  0.4158130000000 1.0
C      1  0.4535390000000  0.5028940000000  0.4594230000000 1.0
C      1  0.4165450000000  0.5017650000000  0.5480210000000 1.0
C      1  0.5120630000000  0.4867310000000  0.4440610000000 1.0
C      1  0.5388860000000  0.4945380000000  0.5329300000000 1.0
C      1  0.4862000000000  0.5912420000000  0.5124660000000 1.0
C      1  0.5361200000000  0.4054600000000  0.5506540000000 1.0
C      1  0.4869300000000  0.5684000000000  0.3978580000000 1.0
C      1  0.4813370000000  0.5538330000000  0.5484700000000 1.0
C      1  0.4490700000000  0.4351900000000  0.4271450000000 1.0
C      1  0.5658660000000  0.4522590000000  0.5370280000000 1.0
C      1  0.5908620000000  0.5279690000000  0.4390190000000 1.0
C      1  0.5127800000000  0.4577390000000  0.4506040000000 1.0
C      1  0.4203840000000  0.4247690000000  0.5117610000000 1.0
C      1  0.5387490000000  0.5331730000000  0.4959820000000 1.0
C      1  0.4395380000000  0.5816950000000  0.5597500000000 1.0
C      1  0.4820830000000  0.4677960000000  0.5759560000000 1.0
C      1  0.4698870000000  0.5419210000000  0.5987690000000 1.0
C      1  0.4207680000000  0.4789900000000  0.5296220000000 1.0
C      1  0.5642610000000  0.4375010000000  0.4413590000000 1.0
C      1  0.5029210000000  0.5093180000000  0.5064080000000 1.0
C      1  0.4850950000000  0.4507100000000  0.6003800000000 1.0
C      1  0.5124130000000  0.4228270000000  0.5169840000000 1.0
C      1  0.4471760000000  0.4561150000000  0.5352090000000 1.0
C      1  0.4672140000000  0.4313090000000  0.5884260000000 1.0
C      1  0.5730100000000  0.5833220000000  0.5153330000000 1.0
C      1  0.4422790000000  0.4836280000000  0.5934380000000 1.0
C      1  0.5145370000000  0.4709150000000  0.4900060000000 1.0
C      1  0.5363080000000  0.4901660000000  0.6227060000000 1.0
C      1  0.5263920000000  0.5407760000000  0.5204060000000 1.0
C      1  0.5240010000000  0.5242800000000  0.3956030000000 1.0
C      1  0.5831240000000  0.5094850000000  0.5092860000000 1.0
C      1  0.5514000000000  0.5319020000000  0.5930870000000 1.0
C      1  0.4591350000000  0.4089020000000  0.5451120000000 1.0
C      1  0.5534710000000  0.3960950000000  0.4702810000000 1.0
C      1  0.5473030000000  0.4717350000000  0.5479670000000 1.0
C      1  0.4116360000000  0.4416570000000  0.4671280000000 1.0
C      1  0.5075170000000  0.4048020000000  0.5581460000000 1.0
C      1  0.4622440000000  0.4452940000000  0.4025110000000 1.0
C      1  0.5070100000000  0.4884150000000  0.6297520000000 1.0
C      1  0.5022110000000  0.4274610000000  0.4892700000000 1.0
C      1  0.5651010000000  0.5634240000000  0.5531260000000 1.0
C      1  0.4753780000000  0.4060820000000  0.4668090000000 1.0
C      1  0.4681270000000  0.5461550000000  0.4347250000000 1.0
C      1  0.5415770000000  0.4821890000000  0.4043080000000 1.0
C      1  0.5427530000000  0.4121720000000  0.5182270000000 1.0
C      1  0.5175900000000  0.4190400000000  0.4360840000000 1.0
C      1  0.4790070000000  0.6129550000000  0.5292670000000 1.0
C      1  0.4842870000000  0.4724960000000  0.6200940000000 1.0
C      1  0.5914870000000  0.4932010000000  0.5535830000000 1.0
C      1  0.4388320000000  0.5272420000000  0.4659090000000 1.0
C      1  0.5720130000000  0.4702380000000  0.5928890000000 1.0
C      1  0.5519960000000  0.4234040000000  0.5685540000000 1.0
C      1  0.5213240000000  0.5794540000000  0.4737820000000 1.0
C      1  0.4622950000000  0.4733710000000  0.3928890000000 1.0
C      1  0.6055500000000  0.5225790000000  0.4951410000000 1.0
C      1  0.3904790000000  0.5204490000000  0.5076940000000 1.0
C      1  0.4739940000000  0.5895010000000  0.4597000000000 1.0
C      1  0.4428110000000  0.4618730000000  0.4352960000000 1.0
C      1  0.4691200000000  0.5781400000000  0.5605160000000 1.0
C      1  0.4422960000000  0.4925980000000  0.5065170000000 1.0
C      1  0.4949250000000  0.5225920000000  0.4827070000000 1.0
C      1  0.5294930000000  0.5023380000000  0.4595790000000 1.0
C      1  0.4198570000000  0.5274970000000  0.4378390000000 1.0
C      1  0.4714090000000  0.4476360000000  0.5205490000000 1.0
C      1  0.4615740000000  0.5077710000000  0.5547620000000 1.0
C      1  0.5235300000000  0.6105180000000  0.5062870000000 1.0
C      1  0.5532740000000  0.4935310000000  0.4722120000000 1.0
C      1  0.5141260000000  0.5908280000000  0.5547130000000 1.0
C      1  0.5050450000000  0.4027130000000  0.4556080000000 1.0
C      1  0.4253910000000  0.5762900000000  0.5340230000000 1.0
C      1  0.5217460000000  0.6058250000000  0.4563510000000 1.0
C      1  0.5798870000000  0.4630830000000  0.4423750000000 1.0
C      1  0.4897740000000  0.5005650000000  0.4330160000000 1.0
C      1  0.5887940000000  0.4292300000000  0.5038550000000 1.0
C      1  0.4665090000000  0.5490740000000  0.3922300000000 1.0
C      1  0.4836280000000  0.5267880000000  0.5601970000000 1.0
C      1  0.4252780000000  0.5467020000000  0.5275920000000 1.0
C      1  0.4233750000000  0.5547130000000  0.4279950000000 1.0
C      1  0.5034640000000  0.4714930000000  0.5378720000000 1.0
C      1  0.4336560000000  0.5918450000000  0.5103530000000 1.0
C      1  0.4034210000000  0.5615400000000  0.4751910000000 1.0
C      1  0.3951360000000  0.5353060000000  0.4843420000000 1.0
C      1  0.5892640000000  0.4683200000000  0.5716480000000 1.0
C      1  0.5480930000000  0.5082000000000  0.4050580000000 1.0
C      1  0.6118440000000  0.4432520000000  0.4732780000000 1.0
C      1  0.4368310000000  0.5212170000000  0.4954140000000 1.0
C      1  0.5419140000000  0.3934170000000  0.4954570000000 1.0
C      1  0.4455600000000  0.4712100000000  0.4852710000000 1.0
C      1  0.5122340000000  0.5304190000000  0.5628110000000 1.0
C      1  0.5475950000000  0.5629030000000  0.4659390000000 1.0
C      1  0.4051720000000  0.4887650000000  0.4393700000000 1.0
END
