TITL C-883726-8501-219 23.2662587081201 125000 -15092.3250944944 0 0 102 (C1) n - 1
REM
REM in /home/nfs/bkarasulu/CARBON/AIRSS/Generating-Clusters/ReaxFF-fromJPCA2015/Units_Real/with-SteepDescent/Only-C1/SD-CG/Try1-3A/FIRE-CG
REM
REM
REM
REM
REM
REM ./C.cell (11c1c37f851c82e70ff6c80c92926a4b)
REM
REM compiler GCC version 9.2.1 20190827 (Red Hat 9.2.1-1)
REM options -cpp -mtune=generic -march=x86-64 -g -O0 -fpre-include=/usr/include/finclude/math-vector-fortran.h
REM seed 1524913620 -633291896 -1192694838 435538428 1813656227 1716021164 -1620624965 2101516063 892633474 1615419344 -1425403245 400703045 1038824859 530570466 -1317155345 680537181 -1572239283 1848011006 1755974405 705907689 -461315857 -1007488757 -1673860643 -736960832 -151569825 300708255 907700070 -82970067 1959189575 433140878 -960681762 -2027703102 1934009887
REM
CELL 1.54180   50.00000   50.00000   50.00000   90.00000   90.00000   90.00000
LATT -1
SFAC C  
C      1  0.4329750000000  0.5570180000000  0.5260810000000 1.0
C      1  0.5417540000000  0.5802490000000  0.5101160000000 1.0
C      1  0.5226260000000  0.5162180000000  0.5916280000000 1.0
C      1  0.5345630000000  0.4849520000000  0.5024350000000 1.0
C      1  0.5139200000000  0.5302100000000  0.4956180000000 1.0
C      1  0.5434760000000  0.4269400000000  0.4584750000000 1.0
C      1  0.4920070000000  0.5093290000000  0.5554390000000 1.0
C      1  0.4764690000000  0.5787640000000  0.5504430000000 1.0
C      1  0.4718540000000  0.5842240000000  0.4783540000000 1.0
C      1  0.5240390000000  0.5629020000000  0.5556940000000 1.0
C      1  0.4910750000000  0.4684550000000  0.5507360000000 1.0
C      1  0.4463050000000  0.4589780000000  0.5248800000000 1.0
C      1  0.4872730000000  0.4281880000000  0.5591780000000 1.0
C      1  0.5102380000000  0.5306360000000  0.4507450000000 1.0
C      1  0.4603950000000  0.5316490000000  0.4674730000000 1.0
C      1  0.5667480000000  0.5199550000000  0.4978510000000 1.0
C      1  0.5006850000000  0.5483050000000  0.5145780000000 1.0
C      1  0.4618340000000  0.4248410000000  0.5451840000000 1.0
C      1  0.5490230000000  0.5476840000000  0.5609040000000 1.0
C      1  0.4867960000000  0.5763470000000  0.5025150000000 1.0
C      1  0.5073720000000  0.4491920000000  0.4762750000000 1.0
C      1  0.5203190000000  0.4135520000000  0.5020070000000 1.0
C      1  0.4795230000000  0.4892510000000  0.4144250000000 1.0
C      1  0.4511240000000  0.5640520000000  0.5485730000000 1.0
C      1  0.5156200000000  0.4582140000000  0.5364930000000 1.0
C      1  0.5825180000000  0.4999430000000  0.4536430000000 1.0
C      1  0.4733680000000  0.4428400000000  0.4253320000000 1.0
C      1  0.4543230000000  0.5417720000000  0.5665680000000 1.0
C      1  0.5604520000000  0.5335920000000  0.4489870000000 1.0
C      1  0.4820370000000  0.4194210000000  0.4381110000000 1.0
C      1  0.5153290000000  0.4987540000000  0.5693370000000 1.0
C      1  0.4471480000000  0.4389820000000  0.4696000000000 1.0
C      1  0.5221320000000  0.5577580000000  0.4506840000000 1.0
C      1  0.5443460000000  0.4522240000000  0.4399850000000 1.0
C      1  0.4880940000000  0.4529500000000  0.5752560000000 1.0
C      1  0.5699420000000  0.5532290000000  0.5400230000000 1.0
C      1  0.5467820000000  0.4718330000000  0.4616920000000 1.0
C      1  0.5578840000000  0.5712620000000  0.4868030000000 1.0
C      1  0.4810470000000  0.5434900000000  0.5800700000000 1.0
C      1  0.5360620000000  0.3988470000000  0.4544920000000 1.0
C      1  0.5052000000000  0.5791560000000  0.4382840000000 1.0
C      1  0.5253420000000  0.5073430000000  0.4160230000000 1.0
C      1  0.5522800000000  0.4637760000000  0.4904780000000 1.0
C      1  0.5784420000000  0.5227380000000  0.4698150000000 1.0
C      1  0.5496340000000  0.5577960000000  0.4618160000000 1.0
C      1  0.4913560000000  0.5184900000000  0.5282980000000 1.0
C      1  0.4302640000000  0.4736060000000  0.5076220000000 1.0
C      1  0.4930430000000  0.4956920000000  0.5102980000000 1.0
C      1  0.4416640000000  0.4448630000000  0.5509660000000 1.0
C      1  0.4973510000000  0.4240150000000  0.4645610000000 1.0
C      1  0.4451040000000  0.4912050000000  0.5538130000000 1.0
C      1  0.5017090000000  0.5247950000000  0.4232870000000 1.0
C      1  0.4818610000000  0.5015230000000  0.4848750000000 1.0
C      1  0.5872890000000  0.4773930000000  0.5207780000000 1.0
C      1  0.5087890000000  0.4274800000000  0.5393230000000 1.0
C      1  0.5833010000000  0.4658580000000  0.4941230000000 1.0
C      1  0.5660890000000  0.4706970000000  0.5369220000000 1.0
C      1  0.5471050000000  0.5224720000000  0.5761120000000 1.0
C      1  0.5135250000000  0.4019690000000  0.4756730000000 1.0
C      1  0.5866070000000  0.4816440000000  0.4715020000000 1.0
C      1  0.4830700000000  0.5946960000000  0.5251720000000 1.0
C      1  0.4765210000000  0.5019560000000  0.5806030000000 1.0
C      1  0.4964790000000  0.5645230000000  0.5664350000000 1.0
C      1  0.4934270000000  0.5212880000000  0.5949530000000 1.0
C      1  0.4984130000000  0.4143400000000  0.5183360000000 1.0
C      1  0.5680710000000  0.5702190000000  0.5145800000000 1.0
C      1  0.4622740000000  0.4674280000000  0.4248440000000 1.0
C      1  0.5211270000000  0.5668030000000  0.5269110000000 1.0
C      1  0.4568620000000  0.4279290000000  0.4933310000000 1.0
C      1  0.4742230000000  0.5162020000000  0.4210140000000 1.0
C      1  0.4775780000000  0.4814820000000  0.4644430000000 1.0
C      1  0.4514150000000  0.4689140000000  0.4552420000000 1.0
C      1  0.5854020000000  0.5081980000000  0.5179890000000 1.0
C      1  0.5449760000000  0.5095830000000  0.4381800000000 1.0
C      1  0.4769400000000  0.5805610000000  0.4479630000000 1.0
C      1  0.4445480000000  0.5749700000000  0.4741880000000 1.0
C      1  0.5334230000000  0.4369610000000  0.4862990000000 1.0
C      1  0.4183490000000  0.4899370000000  0.4897950000000 1.0
C      1  0.5270300000000  0.4659100000000  0.4226500000000 1.0
C      1  0.4577650000000  0.4181730000000  0.4534940000000 1.0
C      1  0.4688190000000  0.4731490000000  0.5845580000000 1.0
C      1  0.4518540000000  0.5649040000000  0.4471770000000 1.0
C      1  0.4381670000000  0.5199700000000  0.5550850000000 1.0
C      1  0.4324250000000  0.5608740000000  0.4969600000000 1.0
C      1  0.5428370000000  0.4976580000000  0.5589670000000 1.0
C      1  0.4379460000000  0.5344050000000  0.4863300000000 1.0
C      1  0.4519070000000  0.5308670000000  0.4391090000000 1.0
C      1  0.5055580000000  0.4745680000000  0.4610670000000 1.0
C      1  0.4279360000000  0.4885030000000  0.4599180000000 1.0
C      1  0.5289790000000  0.4947450000000  0.4586890000000 1.0
C      1  0.4256800000000  0.5292630000000  0.5303210000000 1.0
C      1  0.5100140000000  0.4831320000000  0.4094390000000 1.0
C      1  0.5378670000000  0.5132390000000  0.5002020000000 1.0
C      1  0.5431270000000  0.4692630000000  0.5505720000000 1.0
C      1  0.4247790000000  0.5151280000000  0.5041150000000 1.0
C      1  0.4273690000000  0.5114940000000  0.4431980000000 1.0
C      1  0.4691880000000  0.4179180000000  0.5165020000000 1.0
C      1  0.4666550000000  0.4787790000000  0.5378520000000 1.0
C      1  0.4431510000000  0.4668590000000  0.5707100000000 1.0
C      1  0.4935500000000  0.5261370000000  0.4745510000000 1.0
C      1  0.5103630000000  0.4721890000000  0.5106510000000 1.0
C      1  0.5785050000000  0.5273680000000  0.5363540000000 1.0
END
