TITL C-884136-4169-419 -11.5568009529987 125000 -16550.2812543632 0 0 111 (C1) n - 1
REM
REM in /home/nfs/bkarasulu/CARBON/AIRSS/Generating-Clusters/ReaxFF-fromJPCA2015/Units_Real/with-SteepDescent/Only-C1/SD-CG/Try1-3A/FIRE-CG
REM
REM
REM
REM
REM
REM ./C.cell (11c1c37f851c82e70ff6c80c92926a4b)
REM
REM compiler GCC version 9.2.1 20190827 (Red Hat 9.2.1-1)
REM options -cpp -mtune=generic -march=x86-64 -g -O0 -fpre-include=/usr/include/finclude/math-vector-fortran.h
REM seed -695723863 1203475473 948190733 -753182051 -1550379236 -1459500883 -687230256 1698964764 2117118960 2029626842 -1775078404 1456233386 -1130619795 -1078046192 -1977321964 -1007262610 1312953618 1628338244 -410165255 -1260123465 957753932 1023921709 1879277839 17814149 -131918830 444594985 -1340078633 -1864538611 1047249339 541971961 -823214405 2003959597 2097642308
REM
CELL 1.54180   50.00000   50.00000   50.00000   90.00000   90.00000   90.00000
LATT -1
SFAC C  
C      1  0.4934790000000  0.5450130000000  0.5300860000000 1.0
C      1  0.5756070000000  0.4487940000000  0.4707140000000 1.0
C      1  0.4947120000000  0.4007900000000  0.5104930000000 1.0
C      1  0.4754100000000  0.4493990000000  0.4993870000000 1.0
C      1  0.4629440000000  0.4602380000000  0.5713720000000 1.0
C      1  0.5188720000000  0.5086090000000  0.5287600000000 1.0
C      1  0.5042190000000  0.5894720000000  0.5262940000000 1.0
C      1  0.4742070000000  0.5078300000000  0.5144730000000 1.0
C      1  0.5392320000000  0.4304010000000  0.5021090000000 1.0
C      1  0.5206690000000  0.4602270000000  0.4428170000000 1.0
C      1  0.4745330000000  0.5338780000000  0.5115950000000 1.0
C      1  0.5663830000000  0.5252960000000  0.4584530000000 1.0
C      1  0.5548210000000  0.5715670000000  0.5361130000000 1.0
C      1  0.5443570000000  0.5585490000000  0.4413000000000 1.0
C      1  0.5688000000000  0.5568560000000  0.4567060000000 1.0
C      1  0.5178110000000  0.4072600000000  0.4962930000000 1.0
C      1  0.5678400000000  0.4723330000000  0.4260760000000 1.0
C      1  0.5185780000000  0.5355060000000  0.5199320000000 1.0
C      1  0.4379650000000  0.5547720000000  0.5245760000000 1.0
C      1  0.4552910000000  0.5241880000000  0.4310540000000 1.0
C      1  0.4693540000000  0.5009230000000  0.5401870000000 1.0
C      1  0.5109830000000  0.5684860000000  0.5626560000000 1.0
C      1  0.5253970000000  0.5759560000000  0.4571620000000 1.0
C      1  0.4145540000000  0.5045170000000  0.4801510000000 1.0
C      1  0.5024360000000  0.4274810000000  0.5594060000000 1.0
C      1  0.4749390000000  0.4242260000000  0.4837100000000 1.0
C      1  0.5269680000000  0.5820090000000  0.5429420000000 1.0
C      1  0.4797920000000  0.5431710000000  0.4850590000000 1.0
C      1  0.4381680000000  0.4653440000000  0.5562650000000 1.0
C      1  0.4817760000000  0.4797740000000  0.4220330000000 1.0
C      1  0.4798730000000  0.5641720000000  0.4431690000000 1.0
C      1  0.5787840000000  0.5269610000000  0.5310230000000 1.0
C      1  0.4133730000000  0.5036700000000  0.5300750000000 1.0
C      1  0.5818180000000  0.4733060000000  0.4527080000000 1.0
C      1  0.5518200000000  0.4677770000000  0.5365260000000 1.0
C      1  0.4197190000000  0.4914950000000  0.4530800000000 1.0
C      1  0.5481850000000  0.5338300000000  0.5691070000000 1.0
C      1  0.5222480000000  0.4551880000000  0.4963310000000 1.0
C      1  0.4950470000000  0.4870440000000  0.3953620000000 1.0
C      1  0.5502440000000  0.4340990000000  0.4735010000000 1.0
C      1  0.4457680000000  0.5134630000000  0.5541940000000 1.0
C      1  0.4129430000000  0.4888380000000  0.5057180000000 1.0
C      1  0.4992580000000  0.5925230000000  0.4994380000000 1.0
C      1  0.4684950000000  0.5691950000000  0.4895360000000 1.0
C      1  0.4231270000000  0.4402770000000  0.4931810000000 1.0
C      1  0.5219050000000  0.5449620000000  0.5773350000000 1.0
C      1  0.4251250000000  0.4914930000000  0.5543090000000 1.0
C      1  0.5646530000000  0.5122700000000  0.5061970000000 1.0
C      1  0.4358410000000  0.4468380000000  0.5333560000000 1.0
C      1  0.5989320000000  0.4845580000000  0.5167150000000 1.0
C      1  0.5259980000000  0.4826020000000  0.4896650000000 1.0
C      1  0.5460670000000  0.5294910000000  0.4347070000000 1.0
C      1  0.4684130000000  0.5287590000000  0.5850040000000 1.0
C      1  0.5994160000000  0.5073210000000  0.5375020000000 1.0
C      1  0.5110040000000  0.4610540000000  0.5376760000000 1.0
C      1  0.4980340000000  0.4777490000000  0.4477500000000 1.0
C      1  0.5034240000000  0.4964880000000  0.4731930000000 1.0
C      1  0.5848210000000  0.4988590000000  0.4650370000000 1.0
C      1  0.4981210000000  0.5414680000000  0.4430700000000 1.0
C      1  0.5454000000000  0.4796650000000  0.5635750000000 1.0
C      1  0.5357850000000  0.5716950000000  0.4836000000000 1.0
C      1  0.4278240000000  0.4643730000000  0.4598350000000 1.0
C      1  0.5021060000000  0.4828080000000  0.5695820000000 1.0
C      1  0.4743610000000  0.4360620000000  0.5573410000000 1.0
C      1  0.5212640000000  0.4624810000000  0.5633330000000 1.0
C      1  0.5273130000000  0.5418620000000  0.4906020000000 1.0
C      1  0.5678030000000  0.5766290000000  0.5101210000000 1.0
C      1  0.5639170000000  0.5458720000000  0.5479170000000 1.0
C      1  0.5461470000000  0.4380660000000  0.5323030000000 1.0
C      1  0.5037220000000  0.4196420000000  0.4742720000000 1.0
C      1  0.4187500000000  0.4596480000000  0.5113860000000 1.0
C      1  0.5003090000000  0.4528510000000  0.5144840000000 1.0
C      1  0.5384420000000  0.5058480000000  0.5745890000000 1.0
C      1  0.4522890000000  0.4743770000000  0.4211420000000 1.0
C      1  0.5892610000000  0.4993570000000  0.4929800000000 1.0
C      1  0.4582430000000  0.4283950000000  0.5342930000000 1.0
C      1  0.5648380000000  0.5745610000000  0.4802700000000 1.0
C      1  0.4802240000000  0.4935980000000  0.4918730000000 1.0
C      1  0.5247040000000  0.4358850000000  0.4594800000000 1.0
C      1  0.4964190000000  0.4985710000000  0.5458950000000 1.0
C      1  0.5021310000000  0.5303760000000  0.4707820000000 1.0
C      1  0.4837240000000  0.5272050000000  0.4220620000000 1.0
C      1  0.4860240000000  0.5694590000000  0.5447060000000 1.0
C      1  0.4831620000000  0.5908790000000  0.4822860000000 1.0
C      1  0.4685160000000  0.4110870000000  0.5109050000000 1.0
C      1  0.5512690000000  0.5260880000000  0.4841030000000 1.0
C      1  0.4274020000000  0.5294670000000  0.5350250000000 1.0
C      1  0.4396890000000  0.4983910000000  0.4331630000000 1.0
C      1  0.4235750000000  0.5306060000000  0.4800800000000 1.0
C      1  0.4706980000000  0.4479130000000  0.4499920000000 1.0
C      1  0.4247010000000  0.4346180000000  0.4659210000000 1.0
C      1  0.4655470000000  0.4717500000000  0.4891540000000 1.0
C      1  0.4411320000000  0.5640170000000  0.4961520000000 1.0
C      1  0.5058450000000  0.5120440000000  0.4074820000000 1.0
C      1  0.4967970000000  0.5840750000000  0.4586420000000 1.0
C      1  0.4514040000000  0.5432120000000  0.5699140000000 1.0
C      1  0.4544340000000  0.5491410000000  0.4450920000000 1.0
C      1  0.4789730000000  0.4794760000000  0.5864870000000 1.0
C      1  0.5389330000000  0.4792730000000  0.4280790000000 1.0
C      1  0.5276050000000  0.4251550000000  0.5494810000000 1.0
C      1  0.5794700000000  0.4524610000000  0.4978610000000 1.0
C      1  0.5129160000000  0.5180330000000  0.5851440000000 1.0
C      1  0.4496490000000  0.4270930000000  0.4509960000000 1.0
C      1  0.5391630000000  0.4913310000000  0.5147780000000 1.0
C      1  0.4564680000000  0.4679110000000  0.4650980000000 1.0
C      1  0.4855760000000  0.5090510000000  0.5942740000000 1.0
C      1  0.5316280000000  0.5082060000000  0.4224290000000 1.0
C      1  0.5805390000000  0.4620370000000  0.5238280000000 1.0
C      1  0.4548700000000  0.5609450000000  0.5473020000000 1.0
C      1  0.4348020000000  0.5523520000000  0.4698830000000 1.0
C      1  0.4516850000000  0.4454850000000  0.4273840000000 1.0
END
