TITL C-883726-8501-411 14.7218667954942 125000 -10945.0574142891 0 0 75 (C1) n - 1
REM
REM in /home/nfs/bkarasulu/CARBON/AIRSS/Generating-Clusters/ReaxFF-fromJPCA2015/Units_Real/with-SteepDescent/Only-C1/SD-CG/Try1-3A/FIRE-CG
REM
REM
REM
REM
REM
REM ./C.cell (11c1c37f851c82e70ff6c80c92926a4b)
REM
REM compiler GCC version 9.2.1 20190827 (Red Hat 9.2.1-1)
REM options -cpp -mtune=generic -march=x86-64 -g -O0 -fpre-include=/usr/include/finclude/math-vector-fortran.h
REM seed -673809466 -296725579 976120581 -1556261741 -779527293 -757057639 2000457857 1279670809 1053026657 -2006194991 -1047579555 -552379503 -34219796 -853003992 -581464405 -588743051 220132574 707642928 -1307084332 1961147311 -96009866 1574739212 25285906 -106050838 -1478604540 1313757911 -1816740459 -680044966 -639008188 860542612 1738477681 1315490890 1348678129
REM
CELL 1.54180   50.00000   50.00000   50.00000   90.00000   90.00000   90.00000
LATT -1
SFAC C  
C      1  0.5147940000000  0.4237900000000  0.4535710000000 1.0
C      1  0.4792020000000  0.4894290000000  0.4269190000000 1.0
C      1  0.5069470000000  0.4628950000000  0.4685680000000 1.0
C      1  0.4686220000000  0.4880160000000  0.4878860000000 1.0
C      1  0.5188720000000  0.5413170000000  0.4267310000000 1.0
C      1  0.5499780000000  0.5389610000000  0.5526220000000 1.0
C      1  0.5800860000000  0.4872160000000  0.4923550000000 1.0
C      1  0.4629030000000  0.5539140000000  0.4951300000000 1.0
C      1  0.4755480000000  0.4340810000000  0.5099160000000 1.0
C      1  0.4989160000000  0.5251370000000  0.4324460000000 1.0
C      1  0.5281580000000  0.4691470000000  0.4450780000000 1.0
C      1  0.4411190000000  0.5359830000000  0.5020220000000 1.0
C      1  0.4369660000000  0.4602040000000  0.5244950000000 1.0
C      1  0.4432800000000  0.4809970000000  0.5709450000000 1.0
C      1  0.5750360000000  0.5450680000000  0.5334520000000 1.0
C      1  0.4958960000000  0.4743820000000  0.5683320000000 1.0
C      1  0.4616760000000  0.4964880000000  0.5854690000000 1.0
C      1  0.5618390000000  0.5120700000000  0.5547570000000 1.0
C      1  0.5714850000000  0.5150560000000  0.4903790000000 1.0
C      1  0.5418210000000  0.5110410000000  0.4893840000000 1.0
C      1  0.5190930000000  0.4656110000000  0.5569930000000 1.0
C      1  0.5015540000000  0.5068940000000  0.5177580000000 1.0
C      1  0.5300450000000  0.5047240000000  0.5114860000000 1.0
C      1  0.4956870000000  0.4235000000000  0.4911250000000 1.0
C      1  0.5056370000000  0.4766060000000  0.4265940000000 1.0
C      1  0.4700450000000  0.5431960000000  0.4719030000000 1.0
C      1  0.5439860000000  0.4632220000000  0.5464890000000 1.0
C      1  0.5145480000000  0.4464980000000  0.4925890000000 1.0
C      1  0.4392030000000  0.5083490000000  0.5729860000000 1.0
C      1  0.4887690000000  0.5018350000000  0.5773780000000 1.0
C      1  0.5513580000000  0.4928220000000  0.5336040000000 1.0
C      1  0.5560160000000  0.4860680000000  0.4495790000000 1.0
C      1  0.4232620000000  0.4815190000000  0.4456570000000 1.0
C      1  0.5382770000000  0.4392270000000  0.4497820000000 1.0
C      1  0.4311210000000  0.5301270000000  0.5282470000000 1.0
C      1  0.5437690000000  0.4418730000000  0.4977430000000 1.0
C      1  0.5350940000000  0.5667030000000  0.4942110000000 1.0
C      1  0.4794140000000  0.4588240000000  0.5497540000000 1.0
C      1  0.5898490000000  0.5238050000000  0.5487880000000 1.0
C      1  0.4843280000000  0.4837380000000  0.5098280000000 1.0
C      1  0.5761770000000  0.5402190000000  0.5041070000000 1.0
C      1  0.4818980000000  0.5776680000000  0.4976110000000 1.0
C      1  0.4622180000000  0.5095390000000  0.4425340000000 1.0
C      1  0.4679620000000  0.5462770000000  0.5643210000000 1.0
C      1  0.4437920000000  0.5320130000000  0.5557310000000 1.0
C      1  0.4778680000000  0.5657420000000  0.4588440000000 1.0
C      1  0.4939650000000  0.5282810000000  0.5643050000000 1.0
C      1  0.4515950000000  0.4636150000000  0.5501070000000 1.0
C      1  0.5214700000000  0.5231210000000  0.4747590000000 1.0
C      1  0.5226030000000  0.5463220000000  0.5546460000000 1.0
C      1  0.5067280000000  0.5545410000000  0.5325340000000 1.0
C      1  0.4816460000000  0.4510910000000  0.4599010000000 1.0
C      1  0.4399290000000  0.4582150000000  0.4506600000000 1.0
C      1  0.4910900000000  0.5290740000000  0.5333150000000 1.0
C      1  0.5604780000000  0.5548850000000  0.4840600000000 1.0
C      1  0.4573650000000  0.4623490000000  0.4773570000000 1.0
C      1  0.4887110000000  0.4568810000000  0.5229730000000 1.0
C      1  0.4837240000000  0.5876100000000  0.4711450000000 1.0
C      1  0.5705370000000  0.4710960000000  0.4695370000000 1.0
C      1  0.4294510000000  0.5169840000000  0.4822100000000 1.0
C      1  0.5627890000000  0.5142460000000  0.4479790000000 1.0
C      1  0.4113520000000  0.4998670000000  0.4974940000000 1.0
C      1  0.5570640000000  0.4450460000000  0.4720530000000 1.0
C      1  0.4359040000000  0.5079940000000  0.4549110000000 1.0
C      1  0.4500730000000  0.4458890000000  0.5032840000000 1.0
C      1  0.5599980000000  0.5425470000000  0.4562490000000 1.0
C      1  0.5568380000000  0.4521780000000  0.5215760000000 1.0
C      1  0.4735420000000  0.5136080000000  0.4692040000000 1.0
C      1  0.5105740000000  0.5713120000000  0.5079890000000 1.0
C      1  0.5723410000000  0.4766710000000  0.5183120000000 1.0
C      1  0.4120390000000  0.5081200000000  0.5256170000000 1.0
C      1  0.5309840000000  0.5419280000000  0.4524090000000 1.0
C      1  0.4155510000000  0.4797070000000  0.5186790000000 1.0
C      1  0.4996530000000  0.5129080000000  0.4581860000000 1.0
C      1  0.4878910000000  0.4221260000000  0.4624470000000 1.0
END
