TITL C-883729-9652-457 4.95497557112803 125000 -3360.17756605194 0 0 24 (C1) n - 1
REM
REM in /home/nfs/bkarasulu/CARBON/AIRSS/Generating-Clusters/ReaxFF-fromJPCA2015/Units_Real/with-SteepDescent/Only-C1/SD-CG/Try1-3A/FIRE-CG
REM
REM
REM
REM
REM
REM ./C.cell (11c1c37f851c82e70ff6c80c92926a4b)
REM
REM compiler GCC version 9.2.1 20190827 (Red Hat 9.2.1-1)
REM options -cpp -mtune=generic -march=x86-64 -g -O0 -fpre-include=/usr/include/finclude/math-vector-fortran.h
REM seed 1861346792 2010746915 1260932157 -459866559 1826045387 -1393914496 -978964226 1423349572 1575673549 -660711522 1676940802 1282492081 -1366958859 -1698796959 327268175 -391580895 -1275412706 -950721930 -1326278596 -2353367 556282512 -1575430032 -437406350 666213827 -1171939217 -1867614732 1353014900 -492059153 1133166455 1964791067 -1290263561 -1240603519 795074708
REM
CELL 1.54180   50.00000   50.00000   50.00000   90.00000   90.00000   90.00000
LATT -1
SFAC C  
C      1  0.4689950000000  0.4627500000000  0.5039640000000 1.0
C      1  0.4561420000000  0.4815060000000  0.4845220000000 1.0
C      1  0.5452090000000  0.5108070000000  0.5313840000000 1.0
C      1  0.4799920000000  0.5048460000000  0.5231960000000 1.0
C      1  0.5304840000000  0.4827500000000  0.5282610000000 1.0
C      1  0.5148090000000  0.4535360000000  0.4576830000000 1.0
C      1  0.5350770000000  0.5313120000000  0.5148240000000 1.0
C      1  0.4888000000000  0.4390340000000  0.4593230000000 1.0
C      1  0.5199050000000  0.4789190000000  0.4379660000000 1.0
C      1  0.5084730000000  0.5714640000000  0.5143170000000 1.0
C      1  0.4643530000000  0.5034040000000  0.4669610000000 1.0
C      1  0.4825830000000  0.5257980000000  0.5417940000000 1.0
C      1  0.4991720000000  0.5042990000000  0.4996130000000 1.0
C      1  0.5029490000000  0.5298800000000  0.4862220000000 1.0
C      1  0.5051250000000  0.4747400000000  0.5371450000000 1.0
C      1  0.5047910000000  0.4999310000000  0.4484700000000 1.0
C      1  0.5154200000000  0.4577490000000  0.4869120000000 1.0
C      1  0.4778660000000  0.4752100000000  0.5292730000000 1.0
C      1  0.4852560000000  0.5475440000000  0.5610800000000 1.0
C      1  0.4931460000000  0.5667830000000  0.5377990000000 1.0
C      1  0.5221700000000  0.5485700000000  0.4980380000000 1.0
C      1  0.4886080000000  0.4461580000000  0.4898190000000 1.0
C      1  0.5212020000000  0.4838120000000  0.5002450000000 1.0
C      1  0.4894740000000  0.5191990000000  0.4611860000000 1.0
END
