TITL C-883738-3659-169 0.626233177965223 125000 -6250.40389269135 0 0 42 (C1) n - 1
REM
REM in /home/nfs/bkarasulu/CARBON/AIRSS/Generating-Clusters/ReaxFF-fromJPCA2015/Units_Real/with-SteepDescent/Only-C1/SD-CG/Try1-3A/FIRE-CG
REM
REM
REM
REM
REM
REM ./C.cell (11c1c37f851c82e70ff6c80c92926a4b)
REM
REM compiler GCC version 9.2.1 20190827 (Red Hat 9.2.1-1)
REM options -cpp -mtune=generic -march=x86-64 -g -O0 -fpre-include=/usr/include/finclude/math-vector-fortran.h
REM seed -103470138 29712096 275620077 1158855046 -659901110 -1164852146 -964360135 2026458398 -1180659775 1205034533 -819701406 -877191004 -231094557 -1141280722 1457158647 1840970062 1498432471 99840977 -638610740 641562101 1686844023 1109813797 80346798 -1296533281 -72593767 324853975 -1149682426 -533565705 426507841 -1863297052 1231315096 592995400 -1048817303
REM
CELL 1.54180   50.00000   50.00000   50.00000   90.00000   90.00000   90.00000
LATT -1
SFAC C  
C      1  0.4887110000000  0.5493550000000  0.5269420000000 1.0
C      1  0.4946720000000  0.4401580000000  0.5259830000000 1.0
C      1  0.4728370000000  0.4591820000000  0.5316390000000 1.0
C      1  0.5079560000000  0.4365950000000  0.4992900000000 1.0
C      1  0.4614780000000  0.4635140000000  0.4824970000000 1.0
C      1  0.4756890000000  0.5296110000000  0.4319260000000 1.0
C      1  0.4861540000000  0.5045970000000  0.4722940000000 1.0
C      1  0.4811200000000  0.4996650000000  0.4293500000000 1.0
C      1  0.4974080000000  0.5447720000000  0.4413960000000 1.0
C      1  0.4662250000000  0.4756680000000  0.5078110000000 1.0
C      1  0.4605680000000  0.5336750000000  0.4575060000000 1.0
C      1  0.5468000000000  0.4899910000000  0.5452310000000 1.0
C      1  0.5208830000000  0.4461670000000  0.5382350000000 1.0
C      1  0.4571350000000  0.5069020000000  0.5477620000000 1.0
C      1  0.5245740000000  0.4717620000000  0.5526730000000 1.0
C      1  0.4714460000000  0.5274640000000  0.5614520000000 1.0
C      1  0.4552070000000  0.5238830000000  0.5248300000000 1.0
C      1  0.5680350000000  0.4773190000000  0.5279520000000 1.0
C      1  0.5187110000000  0.5496090000000  0.4591220000000 1.0
C      1  0.5019360000000  0.4885460000000  0.5586150000000 1.0
C      1  0.5008170000000  0.5543050000000  0.4823550000000 1.0
C      1  0.4641420000000  0.4819510000000  0.4456190000000 1.0
C      1  0.4755500000000  0.4571410000000  0.4593220000000 1.0
C      1  0.4578630000000  0.5045590000000  0.4640590000000 1.0
C      1  0.4722280000000  0.5481590000000  0.4802230000000 1.0
C      1  0.5013940000000  0.4518940000000  0.4747290000000 1.0
C      1  0.4750790000000  0.4816230000000  0.5495760000000 1.0
C      1  0.5108590000000  0.5169930000000  0.5573560000000 1.0
C      1  0.5115680000000  0.5485440000000  0.5093970000000 1.0
C      1  0.5405610000000  0.4856260000000  0.4893620000000 1.0
C      1  0.5129160000000  0.4765080000000  0.4860280000000 1.0
C      1  0.5332220000000  0.5292870000000  0.5140860000000 1.0
C      1  0.5035160000000  0.4985030000000  0.4482810000000 1.0
C      1  0.4647560000000  0.5451530000000  0.5092980000000 1.0
C      1  0.4908060000000  0.5380490000000  0.5542550000000 1.0
C      1  0.5324960000000  0.5063190000000  0.4438400000000 1.0
C      1  0.4902900000000  0.4915720000000  0.4974740000000 1.0
C      1  0.5533270000000  0.4644490000000  0.5052160000000 1.0
C      1  0.5434540000000  0.5150800000000  0.4904910000000 1.0
C      1  0.5346030000000  0.5164980000000  0.5402710000000 1.0
C      1  0.5388710000000  0.5271030000000  0.4641350000000 1.0
C      1  0.5341370000000  0.4422520000000  0.5121220000000 1.0
END
