TITL C-884141-4321-423 23.2499113910072 125000 -21088.6333222893 0 0 143 (C1) n - 1
REM
REM in /home/nfs/bkarasulu/CARBON/AIRSS/Generating-Clusters/ReaxFF-fromJPCA2015/Units_Real/with-SteepDescent/Only-C1/SD-CG/Try1-3A/FIRE-CG
REM
REM
REM
REM
REM
REM ./C.cell (11c1c37f851c82e70ff6c80c92926a4b)
REM
REM compiler GCC version 9.2.1 20190827 (Red Hat 9.2.1-1)
REM options -cpp -mtune=generic -march=x86-64 -g -O0 -fpre-include=/usr/include/finclude/math-vector-fortran.h
REM seed -250920041 -571540543 -1799095758 -1546240608 -574452649 426343274 -1854431643 -365559373 -824001887 1214394721 2104663470 1264849290 634169427 -1725645494 -1400997165 759467496 2081193613 537044139 1798083281 1983436367 -4848514 -841457856 1416533487 -1584797650 1988325152 1024222357 154062210 1667449602 -1427918622 -1680807053 1394668135 -243242586 1667640150
REM
CELL 1.54180   50.00000   50.00000   50.00000   90.00000   90.00000   90.00000
LATT -1
SFAC C  
C      1  0.5643490000000  0.5268120000000  0.5389550000000 1.0
C      1  0.5574500000000  0.4555400000000  0.4244450000000 1.0
C      1  0.5891170000000  0.5231860000000  0.4812700000000 1.0
C      1  0.5655390000000  0.4909320000000  0.4503600000000 1.0
C      1  0.4334480000000  0.5707460000000  0.5405380000000 1.0
C      1  0.5992200000000  0.4525760000000  0.5048900000000 1.0
C      1  0.5758210000000  0.5425200000000  0.4400350000000 1.0
C      1  0.5026240000000  0.4617320000000  0.4788290000000 1.0
C      1  0.5981550000000  0.4813140000000  0.5010290000000 1.0
C      1  0.4944520000000  0.4590660000000  0.5034540000000 1.0
C      1  0.4865730000000  0.5164790000000  0.5505140000000 1.0
C      1  0.4762530000000  0.5394030000000  0.5328050000000 1.0
C      1  0.5574210000000  0.4969850000000  0.5244180000000 1.0
C      1  0.4247730000000  0.4728750000000  0.4798220000000 1.0
C      1  0.4887040000000  0.5172450000000  0.4567510000000 1.0
C      1  0.5898340000000  0.4823180000000  0.5440880000000 1.0
C      1  0.5778930000000  0.4642450000000  0.4401470000000 1.0
C      1  0.4809030000000  0.4987080000000  0.4372630000000 1.0
C      1  0.5232060000000  0.5367120000000  0.5129000000000 1.0
C      1  0.5480090000000  0.4241840000000  0.5534040000000 1.0
C      1  0.4463660000000  0.5453280000000  0.5689060000000 1.0
C      1  0.5372130000000  0.5370190000000  0.5386930000000 1.0
C      1  0.4806200000000  0.4547030000000  0.4560630000000 1.0
C      1  0.5311470000000  0.4467590000000  0.5120150000000 1.0
C      1  0.4578840000000  0.5648000000000  0.5474190000000 1.0
C      1  0.5110040000000  0.4317820000000  0.4224370000000 1.0
C      1  0.5819350000000  0.5177400000000  0.4554860000000 1.0
C      1  0.4229110000000  0.5054270000000  0.4475890000000 1.0
C      1  0.4480780000000  0.4265190000000  0.4879470000000 1.0
C      1  0.4900310000000  0.5168770000000  0.3933940000000 1.0
C      1  0.4672020000000  0.5738710000000  0.4343090000000 1.0
C      1  0.5030190000000  0.4606860000000  0.5545380000000 1.0
C      1  0.5316180000000  0.5454920000000  0.5658480000000 1.0
C      1  0.4911300000000  0.5846950000000  0.4821510000000 1.0
C      1  0.3945870000000  0.5132880000000  0.4790920000000 1.0
C      1  0.5677670000000  0.4247520000000  0.4702800000000 1.0
C      1  0.4942880000000  0.4769040000000  0.4156600000000 1.0
C      1  0.3975750000000  0.5339530000000  0.4576200000000 1.0
C      1  0.5653700000000  0.5736880000000  0.5203800000000 1.0
C      1  0.4569260000000  0.4325180000000  0.4607420000000 1.0
C      1  0.5355880000000  0.4420500000000  0.5734870000000 1.0
C      1  0.4498750000000  0.4878290000000  0.4750450000000 1.0
C      1  0.5578450000000  0.5594140000000  0.5728340000000 1.0
C      1  0.4991560000000  0.4058410000000  0.4969290000000 1.0
C      1  0.5351430000000  0.4209570000000  0.5257030000000 1.0
C      1  0.5718760000000  0.4844820000000  0.5676820000000 1.0
C      1  0.5381600000000  0.5071500000000  0.5991950000000 1.0
C      1  0.4228220000000  0.5753750000000  0.5183900000000 1.0
C      1  0.4865200000000  0.4124700000000  0.5440260000000 1.0
C      1  0.4720550000000  0.5277330000000  0.4731450000000 1.0
C      1  0.5684410000000  0.4867580000000  0.4998160000000 1.0
C      1  0.4536750000000  0.4418750000000  0.5685620000000 1.0
C      1  0.5700060000000  0.4368100000000  0.5422400000000 1.0
C      1  0.4802700000000  0.4290180000000  0.5673740000000 1.0
C      1  0.4046360000000  0.5319360000000  0.5371550000000 1.0
C      1  0.5562380000000  0.5452800000000  0.4175220000000 1.0
C      1  0.5077420000000  0.5592600000000  0.4089730000000 1.0
C      1  0.4814780000000  0.4832230000000  0.5069760000000 1.0
C      1  0.5212700000000  0.5284710000000  0.5907720000000 1.0
C      1  0.4681210000000  0.5841180000000  0.5009810000000 1.0
C      1  0.5185530000000  0.4875430000000  0.6019200000000 1.0
C      1  0.4278290000000  0.5267010000000  0.5549780000000 1.0
C      1  0.4644870000000  0.4757230000000  0.5290950000000 1.0
C      1  0.5074140000000  0.5351570000000  0.4545700000000 1.0
C      1  0.4424090000000  0.4251500000000  0.4395910000000 1.0
C      1  0.4149430000000  0.4529450000000  0.5264390000000 1.0
C      1  0.4302030000000  0.4468500000000  0.5016560000000 1.0
C      1  0.4623940000000  0.5328990000000  0.5901860000000 1.0
C      1  0.6015610000000  0.4999510000000  0.5231070000000 1.0
C      1  0.4359710000000  0.5431140000000  0.4980780000000 1.0
C      1  0.4748140000000  0.4921120000000  0.3955980000000 1.0
C      1  0.5337140000000  0.4513690000000  0.4117180000000 1.0
C      1  0.4988950000000  0.4684000000000  0.6015760000000 1.0
C      1  0.5952820000000  0.5270600000000  0.5082680000000 1.0
C      1  0.4788620000000  0.5245290000000  0.4195520000000 1.0
C      1  0.5463140000000  0.4685890000000  0.5694730000000 1.0
C      1  0.5171860000000  0.5670060000000  0.5767540000000 1.0
C      1  0.5155540000000  0.5879790000000  0.5000650000000 1.0
C      1  0.5701860000000  0.5328040000000  0.5693300000000 1.0
C      1  0.4443680000000  0.4888020000000  0.5767560000000 1.0
C      1  0.4279840000000  0.4903000000000  0.4234910000000 1.0
C      1  0.5091070000000  0.4074890000000  0.5238470000000 1.0
C      1  0.5858480000000  0.4406950000000  0.4566160000000 1.0
C      1  0.5639840000000  0.5666110000000  0.4525190000000 1.0
C      1  0.4611930000000  0.4941290000000  0.5504160000000 1.0
C      1  0.4547050000000  0.4485040000000  0.5255930000000 1.0
C      1  0.5400270000000  0.4298910000000  0.4719320000000 1.0
C      1  0.5084640000000  0.4527240000000  0.5271440000000 1.0
C      1  0.5796830000000  0.5476250000000  0.5218880000000 1.0
C      1  0.4890560000000  0.5784130000000  0.4538810000000 1.0
C      1  0.4355550000000  0.4453640000000  0.5455410000000 1.0
C      1  0.4263040000000  0.5469760000000  0.4511370000000 1.0
C      1  0.4415420000000  0.5731210000000  0.4970540000000 1.0
C      1  0.4108740000000  0.5506100000000  0.5137780000000 1.0
C      1  0.4540610000000  0.5241450000000  0.5144590000000 1.0
C      1  0.4423360000000  0.5088780000000  0.5364330000000 1.0
C      1  0.4292180000000  0.4184750000000  0.4202420000000 1.0
C      1  0.4021130000000  0.4887740000000  0.4929610000000 1.0
C      1  0.5053300000000  0.4444840000000  0.5795880000000 1.0
C      1  0.4483960000000  0.5020330000000  0.4049930000000 1.0
C      1  0.5397310000000  0.5233050000000  0.4079740000000 1.0
C      1  0.4697360000000  0.4093280000000  0.4990100000000 1.0
C      1  0.5535040000000  0.5632620000000  0.4804780000000 1.0
C      1  0.5311400000000  0.4556460000000  0.4821330000000 1.0
C      1  0.4653280000000  0.4183090000000  0.5257250000000 1.0
C      1  0.4903150000000  0.4502090000000  0.4289020000000 1.0
C      1  0.4514190000000  0.4631860000000  0.5889360000000 1.0
C      1  0.5396790000000  0.5008540000000  0.4289800000000 1.0
C      1  0.4660190000000  0.5059780000000  0.4928360000000 1.0
C      1  0.4741050000000  0.5838000000000  0.5294860000000 1.0
C      1  0.3998700000000  0.5046970000000  0.5319930000000 1.0
C      1  0.4425240000000  0.5314480000000  0.4694820000000 1.0
C      1  0.4516330000000  0.5311560000000  0.4127420000000 1.0
C      1  0.5128490000000  0.5041850000000  0.5464620000000 1.0
C      1  0.5282710000000  0.4960930000000  0.5238580000000 1.0
C      1  0.4993730000000  0.5523050000000  0.5203430000000 1.0
C      1  0.5906540000000  0.4530570000000  0.5333410000000 1.0
C      1  0.5409850000000  0.5404430000000  0.4883920000000 1.0
C      1  0.4195150000000  0.4768870000000  0.4491810000000 1.0
C      1  0.5424080000000  0.5669490000000  0.4328390000000 1.0
C      1  0.5349840000000  0.5124660000000  0.4795580000000 1.0
C      1  0.5909680000000  0.4343060000000  0.4838290000000 1.0
C      1  0.4911990000000  0.5288740000000  0.5815850000000 1.0
C      1  0.4714580000000  0.4781280000000  0.6054760000000 1.0
C      1  0.5242660000000  0.4785110000000  0.4144890000000 1.0
C      1  0.5123230000000  0.5625540000000  0.4397920000000 1.0
C      1  0.5095590000000  0.4179820000000  0.4467680000000 1.0
C      1  0.5024070000000  0.5801560000000  0.5251150000000 1.0
C      1  0.5172170000000  0.4104530000000  0.4727590000000 1.0
C      1  0.5442470000000  0.5831610000000  0.4998370000000 1.0
C      1  0.4571120000000  0.5044430000000  0.5973530000000 1.0
C      1  0.4816450000000  0.5734660000000  0.4077800000000 1.0
C      1  0.5209600000000  0.4817410000000  0.5613590000000 1.0
C      1  0.4658890000000  0.4796270000000  0.4531440000000 1.0
C      1  0.5176000000000  0.5099790000000  0.5021110000000 1.0
C      1  0.4443770000000  0.5541490000000  0.4295230000000 1.0
C      1  0.3996880000000  0.4788640000000  0.5211430000000 1.0
C      1  0.5648900000000  0.5082540000000  0.5827520000000 1.0
C      1  0.5641730000000  0.5774580000000  0.5496960000000 1.0
C      1  0.4940240000000  0.5588180000000  0.5825950000000 1.0
C      1  0.5515990000000  0.4830870000000  0.4758520000000 1.0
C      1  0.5272740000000  0.5151990000000  0.4520930000000 1.0
C      1  0.5150330000000  0.5328750000000  0.3967830000000 1.0
END
