TITL C-883728-9229-460 22.4510577574839 125000 -15198.1515857891 0 0 102 (C1) n - 1
REM
REM in /home/nfs/bkarasulu/CARBON/AIRSS/Generating-Clusters/ReaxFF-fromJPCA2015/Units_Real/with-SteepDescent/Only-C1/SD-CG/Try1-3A/FIRE-CG
REM
REM
REM
REM
REM
REM ./C.cell (11c1c37f851c82e70ff6c80c92926a4b)
REM
REM compiler GCC version 9.2.1 20190827 (Red Hat 9.2.1-1)
REM options -cpp -mtune=generic -march=x86-64 -g -O0 -fpre-include=/usr/include/finclude/math-vector-fortran.h
REM seed 2072897824 1849950947 -2098622993 1876577862 -1216132125 -1133812603 -981136910 1166961037 -427340048 1152945798 417466653 1527524032 1931900748 106993559 -594209806 217505141 -1291872925 -1304427523 -502427323 2069898536 -174172447 -1171228757 1676773408 -1856495211 1755991696 -1068130255 1710253030 -1491805735 -1779804738 1158134473 -495985151 1743366728 1077691046
REM
CELL 1.54180   50.00000   50.00000   50.00000   90.00000   90.00000   90.00000
LATT -1
SFAC C  
C      1  0.5501310000000  0.5573920000000  0.5516760000000 1.0
C      1  0.4736790000000  0.5585530000000  0.5299140000000 1.0
C      1  0.5537600000000  0.4479830000000  0.5336880000000 1.0
C      1  0.4318070000000  0.5098270000000  0.5472990000000 1.0
C      1  0.4445260000000  0.5096600000000  0.4338400000000 1.0
C      1  0.5327030000000  0.4119370000000  0.4719830000000 1.0
C      1  0.5081250000000  0.4891480000000  0.4645860000000 1.0
C      1  0.5500070000000  0.5688450000000  0.4813890000000 1.0
C      1  0.4550650000000  0.5447360000000  0.5749350000000 1.0
C      1  0.5384570000000  0.5177170000000  0.5119880000000 1.0
C      1  0.5527580000000  0.4839100000000  0.4299080000000 1.0
C      1  0.5283200000000  0.5583960000000  0.4423660000000 1.0
C      1  0.4459700000000  0.4384320000000  0.4635070000000 1.0
C      1  0.5857690000000  0.5114240000000  0.5094820000000 1.0
C      1  0.5200480000000  0.4141170000000  0.5219850000000 1.0
C      1  0.4989400000000  0.4809770000000  0.5253080000000 1.0
C      1  0.5373470000000  0.4126800000000  0.4993340000000 1.0
C      1  0.4885790000000  0.5451610000000  0.4057460000000 1.0
C      1  0.4646570000000  0.4989700000000  0.4158680000000 1.0
C      1  0.5625480000000  0.4339890000000  0.4882550000000 1.0
C      1  0.5023570000000  0.4593550000000  0.5766950000000 1.0
C      1  0.4798040000000  0.4313660000000  0.5453580000000 1.0
C      1  0.5183500000000  0.4482810000000  0.5547870000000 1.0
C      1  0.4456160000000  0.4620550000000  0.4448990000000 1.0
C      1  0.5817620000000  0.5028160000000  0.4839130000000 1.0
C      1  0.5544630000000  0.4603910000000  0.4729470000000 1.0
C      1  0.4797020000000  0.5068560000000  0.5553610000000 1.0
C      1  0.4699170000000  0.5806040000000  0.5111820000000 1.0
C      1  0.5198720000000  0.5593980000000  0.5462590000000 1.0
C      1  0.4453480000000  0.5174920000000  0.5747880000000 1.0
C      1  0.4893610000000  0.4159600000000  0.5250460000000 1.0
C      1  0.4875880000000  0.4738890000000  0.4994150000000 1.0
C      1  0.5595000000000  0.5429050000000  0.4739010000000 1.0
C      1  0.4913740000000  0.5390070000000  0.5158140000000 1.0
C      1  0.4343230000000  0.4581300000000  0.5314250000000 1.0
C      1  0.4803090000000  0.4854550000000  0.4742990000000 1.0
C      1  0.5632030000000  0.4714830000000  0.5214490000000 1.0
C      1  0.5115340000000  0.4818320000000  0.4142770000000 1.0
C      1  0.4880220000000  0.5283180000000  0.4888960000000 1.0
C      1  0.5339980000000  0.4630200000000  0.4192650000000 1.0
C      1  0.4629370000000  0.5284030000000  0.4435420000000 1.0
C      1  0.4491990000000  0.5465520000000  0.4514630000000 1.0
C      1  0.4490730000000  0.5676930000000  0.4953620000000 1.0
C      1  0.4403240000000  0.5164630000000  0.4945490000000 1.0
C      1  0.4644910000000  0.4214120000000  0.5074780000000 1.0
C      1  0.5832530000000  0.4914100000000  0.5310800000000 1.0
C      1  0.5705080000000  0.4951820000000  0.5556880000000 1.0
C      1  0.4119370000000  0.4875480000000  0.4720220000000 1.0
C      1  0.4671350000000  0.4242720000000  0.4781560000000 1.0
C      1  0.4319910000000  0.4870650000000  0.4497120000000 1.0
C      1  0.4357730000000  0.5433570000000  0.5059870000000 1.0
C      1  0.4959630000000  0.4296020000000  0.4781280000000 1.0
C      1  0.4537060000000  0.5699680000000  0.4656400000000 1.0
C      1  0.5412530000000  0.4892440000000  0.5064680000000 1.0
C      1  0.4661350000000  0.5093200000000  0.4838910000000 1.0
C      1  0.4576340000000  0.4940190000000  0.5433090000000 1.0
C      1  0.5458360000000  0.5758950000000  0.5104660000000 1.0
C      1  0.5425280000000  0.5112840000000  0.4294340000000 1.0
C      1  0.4762020000000  0.4499790000000  0.5656950000000 1.0
C      1  0.5632680000000  0.5333370000000  0.5062110000000 1.0
C      1  0.5872580000000  0.4283710000000  0.4923620000000 1.0
C      1  0.4313070000000  0.5373720000000  0.5340680000000 1.0
C      1  0.5013450000000  0.5840400000000  0.4741360000000 1.0
C      1  0.5058760000000  0.5190070000000  0.4678300000000 1.0
C      1  0.4126360000000  0.4605900000000  0.4780070000000 1.0
C      1  0.5292640000000  0.4962860000000  0.5655350000000 1.0
C      1  0.5138380000000  0.4238200000000  0.4545710000000 1.0
C      1  0.4948740000000  0.5079240000000  0.5953390000000 1.0
C      1  0.4217430000000  0.4841650000000  0.5269550000000 1.0
C      1  0.5330720000000  0.4769340000000  0.4823880000000 1.0
C      1  0.5054350000000  0.5566260000000  0.5723430000000 1.0
C      1  0.5078690000000  0.4552320000000  0.5285260000000 1.0
C      1  0.4545410000000  0.4659660000000  0.5514810000000 1.0
C      1  0.4981660000000  0.5858650000000  0.5037170000000 1.0
C      1  0.5626130000000  0.5577760000000  0.5254710000000 1.0
C      1  0.5697230000000  0.4775500000000  0.4537390000000 1.0
C      1  0.5116070000000  0.4855150000000  0.5862910000000 1.0
C      1  0.4811780000000  0.5736780000000  0.4569100000000 1.0
C      1  0.5198620000000  0.5091590000000  0.4111620000000 1.0
C      1  0.4399180000000  0.4359170000000  0.5124520000000 1.0
C      1  0.5018590000000  0.5361880000000  0.5925030000000 1.0
C      1  0.4906380000000  0.5169370000000  0.4065230000000 1.0
C      1  0.5364910000000  0.4276280000000  0.5429600000000 1.0
C      1  0.4194560000000  0.4961680000000  0.5006410000000 1.0
C      1  0.5708940000000  0.5057640000000  0.4606900000000 1.0
C      1  0.5465290000000  0.5361010000000  0.4483380000000 1.0
C      1  0.5164880000000  0.4480800000000  0.4380930000000 1.0
C      1  0.4922080000000  0.5299290000000  0.4460530000000 1.0
C      1  0.5584980000000  0.5332040000000  0.5600790000000 1.0
C      1  0.4261580000000  0.4371570000000  0.4857890000000 1.0
C      1  0.4625850000000  0.4703210000000  0.4205010000000 1.0
C      1  0.5004110000000  0.4726300000000  0.4407570000000 1.0
C      1  0.4985450000000  0.5563810000000  0.4351890000000 1.0
C      1  0.4810250000000  0.5533800000000  0.5847610000000 1.0
C      1  0.5164530000000  0.5296830000000  0.5284610000000 1.0
C      1  0.4694860000000  0.5031170000000  0.5818300000000 1.0
C      1  0.4500280000000  0.5540620000000  0.5480040000000 1.0
C      1  0.5023820000000  0.4490350000000  0.4997740000000 1.0
C      1  0.5195150000000  0.5789300000000  0.5221280000000 1.0
C      1  0.5285340000000  0.5776550000000  0.4633330000000 1.0
C      1  0.5541410000000  0.5090370000000  0.5687960000000 1.0
C      1  0.5068090000000  0.5023520000000  0.5442000000000 1.0
END
