TITL C-883732-77-89 -6.25099916291325 125000 -10631.6904868549 0 0 72 (C1) n - 1
REM
REM in /home/nfs/bkarasulu/CARBON/AIRSS/Generating-Clusters/ReaxFF-fromJPCA2015/Units_Real/with-SteepDescent/Only-C1/SD-CG/Try1-3A/FIRE-CG
REM
REM
REM
REM
REM
REM ./C.cell (11c1c37f851c82e70ff6c80c92926a4b)
REM
REM compiler GCC version 9.2.1 20190827 (Red Hat 9.2.1-1)
REM options -cpp -mtune=generic -march=x86-64 -g -O0 -fpre-include=/usr/include/finclude/math-vector-fortran.h
REM seed -836953848 1783557084 2013144722 -859890130 -1711283810 220691833 1487167417 -1825440938 -1249937939 -335104151 -944646267 2050241209 1134630291 260285321 1029661154 101754316 1399151460 721815072 -552113185 -1678844304 -1797108598 -415430759 -2058462867 -734645354 219227602 1612613990 -808424958 346713533 -505955527 -136206517 -2112406294 1729876212 2102034558
REM
CELL 1.54180   50.00000   50.00000   50.00000   90.00000   90.00000   90.00000
LATT -1
SFAC C  
C      1  0.4524470000000  0.4439980000000  0.5179440000000 1.0
C      1  0.4946330000000  0.4883670000000  0.5276540000000 1.0
C      1  0.5093410000000  0.4931560000000  0.5565590000000 1.0
C      1  0.4819170000000  0.4655440000000  0.5841070000000 1.0
C      1  0.4590980000000  0.5811690000000  0.4994380000000 1.0
C      1  0.5214100000000  0.4929040000000  0.4730790000000 1.0
C      1  0.4776310000000  0.5015150000000  0.4345950000000 1.0
C      1  0.4882150000000  0.5912730000000  0.5032000000000 1.0
C      1  0.4598050000000  0.4586320000000  0.5678960000000 1.0
C      1  0.5034690000000  0.4731660000000  0.5048060000000 1.0
C      1  0.5549000000000  0.5218590000000  0.4351250000000 1.0
C      1  0.5623010000000  0.5165180000000  0.4942680000000 1.0
C      1  0.5286830000000  0.5111580000000  0.4226440000000 1.0
C      1  0.4452270000000  0.5335910000000  0.4541540000000 1.0
C      1  0.5170960000000  0.4468350000000  0.5556800000000 1.0
C      1  0.5322480000000  0.4723400000000  0.4505860000000 1.0
C      1  0.5607140000000  0.4778790000000  0.4510030000000 1.0
C      1  0.5477700000000  0.5408950000000  0.4520690000000 1.0
C      1  0.5475050000000  0.4288660000000  0.4710040000000 1.0
C      1  0.4622560000000  0.4850960000000  0.5802070000000 1.0
C      1  0.5596260000000  0.4414050000000  0.5221240000000 1.0
C      1  0.4670460000000  0.4446270000000  0.5434840000000 1.0
C      1  0.5212780000000  0.5414200000000  0.5216080000000 1.0
C      1  0.5038030000000  0.5448080000000  0.5605100000000 1.0
C      1  0.4973360000000  0.4336380000000  0.4575480000000 1.0
C      1  0.4332400000000  0.4710040000000  0.4798460000000 1.0
C      1  0.5705560000000  0.4672530000000  0.5183280000000 1.0
C      1  0.4431200000000  0.4919860000000  0.5215040000000 1.0
C      1  0.5563480000000  0.4767500000000  0.5424110000000 1.0
C      1  0.4813840000000  0.5201380000000  0.4943850000000 1.0
C      1  0.4952640000000  0.4386620000000  0.5379570000000 1.0
C      1  0.5260970000000  0.4833610000000  0.4197010000000 1.0
C      1  0.4906170000000  0.5385300000000  0.5163050000000 1.0
C      1  0.5071140000000  0.5683230000000  0.5481280000000 1.0
C      1  0.4700180000000  0.4386520000000  0.4690150000000 1.0
C      1  0.5322650000000  0.5209260000000  0.5356770000000 1.0
C      1  0.5070660000000  0.4684550000000  0.5721670000000 1.0
C      1  0.5799000000000  0.4993380000000  0.4786370000000 1.0
C      1  0.5742000000000  0.5018810000000  0.4490100000000 1.0
C      1  0.4357750000000  0.4660030000000  0.5089750000000 1.0
C      1  0.4721320000000  0.4348130000000  0.4981420000000 1.0
C      1  0.4532510000000  0.5264000000000  0.5519240000000 1.0
C      1  0.5398260000000  0.4997110000000  0.5502970000000 1.0
C      1  0.4661510000000  0.5444960000000  0.5317840000000 1.0
C      1  0.4974140000000  0.5188150000000  0.5694500000000 1.0
C      1  0.4197370000000  0.4968810000000  0.4759590000000 1.0
C      1  0.5412860000000  0.5380930000000  0.4950880000000 1.0
C      1  0.5582910000000  0.4269400000000  0.4981890000000 1.0
C      1  0.5706930000000  0.4447560000000  0.4791520000000 1.0
C      1  0.4457270000000  0.5598890000000  0.5159480000000 1.0
C      1  0.5749370000000  0.4720380000000  0.4898830000000 1.0
C      1  0.5006390000000  0.5472910000000  0.4433980000000 1.0
C      1  0.4580480000000  0.5650890000000  0.4767980000000 1.0
C      1  0.5250900000000  0.4412050000000  0.4568360000000 1.0
C      1  0.4565240000000  0.4637180000000  0.4627310000000 1.0
C      1  0.5402790000000  0.5587430000000  0.4708260000000 1.0
C      1  0.4276360000000  0.5427850000000  0.4993590000000 1.0
C      1  0.4711910000000  0.5013120000000  0.5163700000000 1.0
C      1  0.5022650000000  0.5830300000000  0.5263090000000 1.0
C      1  0.4975100000000  0.4444260000000  0.5093110000000 1.0
C      1  0.4998850000000  0.5226570000000  0.4299980000000 1.0
C      1  0.5442800000000  0.4500670000000  0.5454820000000 1.0
C      1  0.5365360000000  0.5101070000000  0.4888650000000 1.0
C      1  0.4692670000000  0.5122160000000  0.5719710000000 1.0
C      1  0.4302600000000  0.5090840000000  0.5424220000000 1.0
C      1  0.5136830000000  0.5689150000000  0.4607990000000 1.0
C      1  0.4666620000000  0.5388990000000  0.4731900000000 1.0
C      1  0.4594590000000  0.5154380000000  0.4375700000000 1.0
C      1  0.4948760000000  0.4912560000000  0.4802270000000 1.0
C      1  0.4233820000000  0.5261580000000  0.4757120000000 1.0
C      1  0.5068650000000  0.5794790000000  0.4858820000000 1.0
C      1  0.4774980000000  0.4833740000000  0.4567910000000 1.0
END
