TITL C-883726-8501-156 -0.862795850257445 125000 -19499.315553202 0 0 131 (C1) n - 1
REM
REM in /home/nfs/bkarasulu/CARBON/AIRSS/Generating-Clusters/ReaxFF-fromJPCA2015/Units_Real/with-SteepDescent/Only-C1/SD-CG/Try1-3A/FIRE-CG
REM
REM
REM
REM
REM
REM ./C.cell (11c1c37f851c82e70ff6c80c92926a4b)
REM
REM compiler GCC version 9.2.1 20190827 (Red Hat 9.2.1-1)
REM options -cpp -mtune=generic -march=x86-64 -g -O0 -fpre-include=/usr/include/finclude/math-vector-fortran.h
REM seed -1918847818 782457631 -872616392 1495011711 873586040 -1691613357 1890582939 -2057111486 -1552169346 430437898 230621910 335292853 -777942202 1996947686 1322229966 52664305 -272449003 1373784130 1483412041 1547732738 1419772128 499990549 -1636964145 1891952500 1329498 -694111760 177804617 -1547811554 1478651339 69993224 787691393 950002672 -639041805
REM
CELL 1.54180   50.00000   50.00000   50.00000   90.00000   90.00000   90.00000
LATT -1
SFAC C  
C      1  0.5202770000000  0.5196440000000  0.5898890000000 1.0
C      1  0.4141300000000  0.5212220000000  0.4632010000000 1.0
C      1  0.4790690000000  0.5753890000000  0.4539190000000 1.0
C      1  0.5051810000000  0.4959530000000  0.4579310000000 1.0
C      1  0.5758470000000  0.5019170000000  0.5484480000000 1.0
C      1  0.4011430000000  0.5062730000000  0.4842260000000 1.0
C      1  0.4761780000000  0.4952730000000  0.5425920000000 1.0
C      1  0.5109510000000  0.4543440000000  0.4083900000000 1.0
C      1  0.4667270000000  0.4246590000000  0.5499680000000 1.0
C      1  0.4127360000000  0.5262410000000  0.5347980000000 1.0
C      1  0.5264850000000  0.5516970000000  0.5909930000000 1.0
C      1  0.5146300000000  0.5853850000000  0.5517250000000 1.0
C      1  0.5701030000000  0.4720720000000  0.5512810000000 1.0
C      1  0.4943490000000  0.4614920000000  0.5873720000000 1.0
C      1  0.5411080000000  0.4342310000000  0.4641260000000 1.0
C      1  0.4871500000000  0.4761600000000  0.4452570000000 1.0
C      1  0.5177450000000  0.4660490000000  0.5058330000000 1.0
C      1  0.4796030000000  0.5283340000000  0.4548560000000 1.0
C      1  0.3978010000000  0.5209610000000  0.5086900000000 1.0
C      1  0.5167640000000  0.4326150000000  0.4251380000000 1.0
C      1  0.4773540000000  0.4249990000000  0.4970260000000 1.0
C      1  0.5740310000000  0.4865870000000  0.4369100000000 1.0
C      1  0.5301920000000  0.4916010000000  0.4102800000000 1.0
C      1  0.5334780000000  0.4850890000000  0.4599200000000 1.0
C      1  0.4611260000000  0.4155260000000  0.5204040000000 1.0
C      1  0.5064960000000  0.5421790000000  0.5374900000000 1.0
C      1  0.4718510000000  0.5282400000000  0.5060410000000 1.0
C      1  0.4959110000000  0.5964180000000  0.5064770000000 1.0
C      1  0.4742460000000  0.4579630000000  0.5051770000000 1.0
C      1  0.5349360000000  0.5739640000000  0.4583810000000 1.0
C      1  0.4902440000000  0.5149180000000  0.5255690000000 1.0
C      1  0.5198310000000  0.5648460000000  0.6116270000000 1.0
C      1  0.5454360000000  0.5612280000000  0.4338970000000 1.0
C      1  0.5239940000000  0.4053860000000  0.4903160000000 1.0
C      1  0.4494010000000  0.5340230000000  0.4224320000000 1.0
C      1  0.5625530000000  0.4388730000000  0.5852480000000 1.0
C      1  0.4326800000000  0.4599210000000  0.5724660000000 1.0
C      1  0.4723950000000  0.5509160000000  0.4349500000000 1.0
C      1  0.4684990000000  0.4807290000000  0.4871300000000 1.0
C      1  0.4680370000000  0.5916920000000  0.5054450000000 1.0
C      1  0.5626600000000  0.5716630000000  0.5242070000000 1.0
C      1  0.5535530000000  0.4359340000000  0.5154450000000 1.0
C      1  0.5352280000000  0.4530960000000  0.5815460000000 1.0
C      1  0.5892730000000  0.5442600000000  0.4873770000000 1.0
C      1  0.5533040000000  0.5326870000000  0.4279060000000 1.0
C      1  0.5414020000000  0.5049740000000  0.5763510000000 1.0
C      1  0.4151320000000  0.4773710000000  0.4956610000000 1.0
C      1  0.5942270000000  0.4594890000000  0.5046460000000 1.0
C      1  0.5943850000000  0.4508750000000  0.4755680000000 1.0
C      1  0.4582410000000  0.5088260000000  0.4533740000000 1.0
C      1  0.5219080000000  0.4591360000000  0.4760670000000 1.0
C      1  0.5387660000000  0.5815340000000  0.5111040000000 1.0
C      1  0.5440770000000  0.4770540000000  0.5678090000000 1.0
C      1  0.4352930000000  0.5426560000000  0.5393960000000 1.0
C      1  0.4535300000000  0.4733940000000  0.4123500000000 1.0
C      1  0.5079150000000  0.4392630000000  0.5800970000000 1.0
C      1  0.4856390000000  0.4703300000000  0.5316330000000 1.0
C      1  0.4808390000000  0.5343790000000  0.5830210000000 1.0
C      1  0.4420680000000  0.4912470000000  0.5014650000000 1.0
C      1  0.5273930000000  0.4466300000000  0.5252280000000 1.0
C      1  0.4328710000000  0.5129850000000  0.4385920000000 1.0
C      1  0.5521720000000  0.5002350000000  0.4769150000000 1.0
C      1  0.5871420000000  0.5316700000000  0.4612330000000 1.0
C      1  0.5489830000000  0.4205570000000  0.4903590000000 1.0
C      1  0.4604920000000  0.4230940000000  0.4682600000000 1.0
C      1  0.5733610000000  0.4543430000000  0.5240480000000 1.0
C      1  0.4139630000000  0.4749440000000  0.5495510000000 1.0
C      1  0.4618570000000  0.4816380000000  0.4582710000000 1.0
C      1  0.5754800000000  0.5693310000000  0.4957880000000 1.0
C      1  0.4503930000000  0.5027780000000  0.5624050000000 1.0
C      1  0.5574130000000  0.5592160000000  0.5503130000000 1.0
C      1  0.5193890000000  0.4112940000000  0.4620720000000 1.0
C      1  0.5336290000000  0.5290060000000  0.5378510000000 1.0
C      1  0.4600660000000  0.4431100000000  0.4164150000000 1.0
C      1  0.5351600000000  0.5683490000000  0.5659130000000 1.0
C      1  0.4690360000000  0.5203190000000  0.4058130000000 1.0
C      1  0.4521970000000  0.4359590000000  0.4434570000000 1.0
C      1  0.5353620000000  0.5166310000000  0.4936870000000 1.0
C      1  0.4958300000000  0.4235600000000  0.5576380000000 1.0
C      1  0.5044000000000  0.4807700000000  0.4011400000000 1.0
C      1  0.4840940000000  0.5454070000000  0.5561090000000 1.0
C      1  0.4506900000000  0.5296970000000  0.5833490000000 1.0
C      1  0.5799330000000  0.4936750000000  0.4801010000000 1.0
C      1  0.5155950000000  0.5424960000000  0.4019480000000 1.0
C      1  0.5413800000000  0.4443430000000  0.4353780000000 1.0
C      1  0.4582400000000  0.5572320000000  0.5443740000000 1.0
C      1  0.4872480000000  0.5388800000000  0.4823840000000 1.0
C      1  0.4937920000000  0.5103980000000  0.5930750000000 1.0
C      1  0.4646990000000  0.5853930000000  0.5337660000000 1.0
C      1  0.4279440000000  0.5391200000000  0.4814980000000 1.0
C      1  0.4330160000000  0.4628090000000  0.4494940000000 1.0
C      1  0.4374540000000  0.4294030000000  0.5120740000000 1.0
C      1  0.5062350000000  0.5854660000000  0.4580460000000 1.0
C      1  0.4511360000000  0.4807740000000  0.5820810000000 1.0
C      1  0.4872390000000  0.5427640000000  0.4073810000000 1.0
C      1  0.5963690000000  0.4891520000000  0.5036450000000 1.0
C      1  0.5897650000000  0.4752820000000  0.4587700000000 1.0
C      1  0.5753120000000  0.5164180000000  0.4390330000000 1.0
C      1  0.4227680000000  0.5030020000000  0.5501630000000 1.0
C      1  0.5340360000000  0.5198130000000  0.4107360000000 1.0
C      1  0.4789830000000  0.4827310000000  0.5932360000000 1.0
C      1  0.4352790000000  0.4308400000000  0.4823550000000 1.0
C      1  0.5793170000000  0.5309940000000  0.5126440000000 1.0
C      1  0.5473780000000  0.4742200000000  0.4306460000000 1.0
C      1  0.5844370000000  0.4541480000000  0.5738650000000 1.0
C      1  0.5567630000000  0.5233640000000  0.5575160000000 1.0
C      1  0.4436430000000  0.5613400000000  0.4768850000000 1.0
C      1  0.4452790000000  0.5193720000000  0.5001720000000 1.0
C      1  0.4486710000000  0.4558520000000  0.5197140000000 1.0
C      1  0.4418230000000  0.4329430000000  0.5703990000000 1.0
C      1  0.5062840000000  0.6057970000000  0.4798660000000 1.0
C      1  0.5012020000000  0.4104770000000  0.5082170000000 1.0
C      1  0.4049070000000  0.4674220000000  0.5242420000000 1.0
C      1  0.4942690000000  0.4956630000000  0.4844840000000 1.0
C      1  0.5146510000000  0.5363930000000  0.4772520000000 1.0
C      1  0.5494990000000  0.5765100000000  0.4834250000000 1.0
C      1  0.5110420000000  0.4228800000000  0.5333610000000 1.0
C      1  0.4638670000000  0.4561920000000  0.5448620000000 1.0
C      1  0.5300590000000  0.5680200000000  0.4090190000000 1.0
C      1  0.4862790000000  0.5931450000000  0.5534500000000 1.0
C      1  0.5500120000000  0.5296850000000  0.5143180000000 1.0
C      1  0.4212670000000  0.4554760000000  0.4754000000000 1.0
C      1  0.5124690000000  0.5753340000000  0.5234230000000 1.0
C      1  0.4322500000000  0.5406300000000  0.5967900000000 1.0
C      1  0.4971680000000  0.4255460000000  0.4495430000000 1.0
C      1  0.4765650000000  0.4914680000000  0.4086820000000 1.0
C      1  0.4321400000000  0.4835090000000  0.4284740000000 1.0
C      1  0.4605670000000  0.5820510000000  0.4762610000000 1.0
C      1  0.5123790000000  0.4960410000000  0.5071690000000 1.0
C      1  0.4975340000000  0.4527410000000  0.4594940000000 1.0
C      1  0.5923720000000  0.5080960000000  0.5256450000000 1.0
END
