TITL C-883735-9890-406 86.7066715484114 125000 -26861.6661886236 0 0 181 (C1) n - 1
REM
REM in /home/nfs/bkarasulu/CARBON/AIRSS/Generating-Clusters/ReaxFF-fromJPCA2015/Units_Real/with-SteepDescent/Only-C1/SD-CG/Try1-3A/FIRE-CG
REM
REM
REM
REM
REM
REM ./C.cell (11c1c37f851c82e70ff6c80c92926a4b)
REM
REM compiler GCC version 9.2.1 20190827 (Red Hat 9.2.1-1)
REM options -cpp -mtune=generic -march=x86-64 -g -O0 -fpre-include=/usr/include/finclude/math-vector-fortran.h
REM seed 773863130 -735714092 -1276202573 -1973987666 -1056267231 274173366 -433257295 -2133274515 -775878414 2112274400 -791203348 1187570551 90589410 -225255401 -974976246 -332705902 -337181026 -1640764956 -1025754790 1804017877 -1635481442 1605741257 312305713 -497066597 -1104099716 2073928017 -988592167 -425405630 -1946046341 1697316027 706535529 746676365 -1930867750
REM
CELL 1.54180   50.00000   50.00000   50.00000   90.00000   90.00000   90.00000
LATT -1
SFAC C  
C      1  0.5345760000000  0.4936760000000  0.5585900000000 1.0
C      1  0.5937920000000  0.4977350000000  0.4559590000000 1.0
C      1  0.3915680000000  0.4969590000000  0.5232480000000 1.0
C      1  0.5304980000000  0.5040890000000  0.6033550000000 1.0
C      1  0.4623840000000  0.4833650000000  0.5881810000000 1.0
C      1  0.4495320000000  0.4572800000000  0.4133550000000 1.0
C      1  0.4748230000000  0.5356580000000  0.4020000000000 1.0
C      1  0.5682790000000  0.5304000000000  0.5768840000000 1.0
C      1  0.5723810000000  0.4291490000000  0.5581260000000 1.0
C      1  0.4998140000000  0.5296380000000  0.5517040000000 1.0
C      1  0.5217170000000  0.4081630000000  0.5174620000000 1.0
C      1  0.4049170000000  0.5720580000000  0.5086610000000 1.0
C      1  0.5122260000000  0.5500290000000  0.4549250000000 1.0
C      1  0.5637440000000  0.4877570000000  0.4881550000000 1.0
C      1  0.5391890000000  0.3851580000000  0.4860210000000 1.0
C      1  0.5020580000000  0.5577370000000  0.5143340000000 1.0
C      1  0.4271000000000  0.5492060000000  0.5676130000000 1.0
C      1  0.5660100000000  0.5632880000000  0.5052530000000 1.0
C      1  0.5102960000000  0.4355520000000  0.5967100000000 1.0
C      1  0.4780550000000  0.4182720000000  0.5367460000000 1.0
C      1  0.5927150000000  0.5522590000000  0.4968520000000 1.0
C      1  0.4780030000000  0.5032210000000  0.4932510000000 1.0
C      1  0.4652100000000  0.5807090000000  0.5595970000000 1.0
C      1  0.5419190000000  0.5746960000000  0.4857940000000 1.0
C      1  0.5259620000000  0.4202850000000  0.5760300000000 1.0
C      1  0.3818450000000  0.5253230000000  0.4819050000000 1.0
C      1  0.4239180000000  0.5656610000000  0.4636210000000 1.0
C      1  0.5832850000000  0.4794070000000  0.4364350000000 1.0
C      1  0.4909870000000  0.4107220000000  0.4659420000000 1.0
C      1  0.4532590000000  0.4484570000000  0.4943920000000 1.0
C      1  0.5500910000000  0.4669410000000  0.4751510000000 1.0
C      1  0.5222200000000  0.5500060000000  0.4189530000000 1.0
C      1  0.4612300000000  0.4759200000000  0.4515960000000 1.0
C      1  0.4947540000000  0.5267430000000  0.4545120000000 1.0
C      1  0.5232350000000  0.5571710000000  0.5344680000000 1.0
C      1  0.4766020000000  0.5876700000000  0.5124720000000 1.0
C      1  0.4494100000000  0.4347070000000  0.4348060000000 1.0
C      1  0.5350410000000  0.5651730000000  0.5807890000000 1.0
C      1  0.5649340000000  0.4447790000000  0.5338340000000 1.0
C      1  0.4742370000000  0.4586760000000  0.5739320000000 1.0
C      1  0.5490180000000  0.4807730000000  0.3969990000000 1.0
C      1  0.4869410000000  0.5706080000000  0.5775240000000 1.0
C      1  0.6007930000000  0.4659280000000  0.5431420000000 1.0
C      1  0.4474000000000  0.5170190000000  0.4698900000000 1.0
C      1  0.5715710000000  0.5348450000000  0.4327620000000 1.0
C      1  0.5283310000000  0.6010490000000  0.4462490000000 1.0
C      1  0.4382900000000  0.5715070000000  0.5517180000000 1.0
C      1  0.4394850000000  0.4263550000000  0.5660800000000 1.0
C      1  0.4714510000000  0.4620210000000  0.5455130000000 1.0
C      1  0.5391360000000  0.4110660000000  0.4460850000000 1.0
C      1  0.5424430000000  0.5698960000000  0.4154340000000 1.0
C      1  0.4672730000000  0.5296200000000  0.4501520000000 1.0
C      1  0.4387220000000  0.4270580000000  0.4814600000000 1.0
C      1  0.4970200000000  0.4629680000000  0.5136810000000 1.0
C      1  0.4739250000000  0.5618160000000  0.4169320000000 1.0
C      1  0.4975320000000  0.4449890000000  0.4051850000000 1.0
C      1  0.6090090000000  0.4914420000000  0.5310810000000 1.0
C      1  0.5166660000000  0.4644360000000  0.6007780000000 1.0
C      1  0.4803660000000  0.4873030000000  0.4302690000000 1.0
C      1  0.4331710000000  0.4818690000000  0.4431750000000 1.0
C      1  0.5302470000000  0.5481670000000  0.4783390000000 1.0
C      1  0.5555740000000  0.5357460000000  0.5088100000000 1.0
C      1  0.5069570000000  0.4902530000000  0.6101630000000 1.0
C      1  0.3971140000000  0.5423910000000  0.5041830000000 1.0
C      1  0.4044560000000  0.4804990000000  0.4515870000000 1.0
C      1  0.5117640000000  0.5353780000000  0.4960320000000 1.0
C      1  0.3989740000000  0.5236540000000  0.5298310000000 1.0
C      1  0.5132890000000  0.5834320000000  0.5741940000000 1.0
C      1  0.4260560000000  0.5821960000000  0.5263660000000 1.0
C      1  0.4193280000000  0.5204430000000  0.4668560000000 1.0
C      1  0.5510490000000  0.5905100000000  0.4606400000000 1.0
C      1  0.4706490000000  0.4574830000000  0.4710020000000 1.0
C      1  0.5574090000000  0.4923060000000  0.5980740000000 1.0
C      1  0.5241680000000  0.5377140000000  0.5904260000000 1.0
C      1  0.4944870000000  0.4410080000000  0.4654170000000 1.0
C      1  0.4988550000000  0.5801190000000  0.4961700000000 1.0
C      1  0.4653970000000  0.5591560000000  0.4443380000000 1.0
C      1  0.4977110000000  0.5434950000000  0.5780470000000 1.0
C      1  0.5139840000000  0.4554340000000  0.4491200000000 1.0
C      1  0.5291730000000  0.5003560000000  0.3912090000000 1.0
C      1  0.4074420000000  0.5187550000000  0.4406020000000 1.0
C      1  0.4928090000000  0.4173860000000  0.4170090000000 1.0
C      1  0.5000000000000  0.4890220000000  0.5045060000000 1.0
C      1  0.5740760000000  0.5268040000000  0.5321970000000 1.0
C      1  0.5730680000000  0.4728840000000  0.5337280000000 1.0
C      1  0.5222290000000  0.3961850000000  0.4653880000000 1.0
C      1  0.4766260000000  0.4882820000000  0.5370410000000 1.0
C      1  0.4078900000000  0.4537040000000  0.4625990000000 1.0
C      1  0.4238120000000  0.5358050000000  0.4252710000000 1.0
C      1  0.4919730000000  0.4024420000000  0.5164680000000 1.0
C      1  0.4057250000000  0.4634160000000  0.4899580000000 1.0
C      1  0.5096980000000  0.5987710000000  0.5490100000000 1.0
C      1  0.5584320000000  0.3904830000000  0.5074760000000 1.0
C      1  0.5747420000000  0.5025130000000  0.5766400000000 1.0
C      1  0.4987540000000  0.6002530000000  0.4555590000000 1.0
C      1  0.4352800000000  0.5998600000000  0.5035770000000 1.0
C      1  0.5948760000000  0.4530630000000  0.4875720000000 1.0
C      1  0.4118970000000  0.5262140000000  0.5556160000000 1.0
C      1  0.5663310000000  0.4160550000000  0.4937920000000 1.0
C      1  0.4352740000000  0.5112040000000  0.4117500000000 1.0
C      1  0.4633120000000  0.5149380000000  0.4210650000000 1.0
C      1  0.5637670000000  0.4648530000000  0.5882400000000 1.0
C      1  0.5488980000000  0.4569890000000  0.4150240000000 1.0
C      1  0.4535760000000  0.5024200000000  0.5293430000000 1.0
C      1  0.5932030000000  0.4856220000000  0.4836260000000 1.0
C      1  0.5790200000000  0.4325580000000  0.4719060000000 1.0
C      1  0.5525260000000  0.5130340000000  0.4283850000000 1.0
C      1  0.4342060000000  0.4724500000000  0.4992830000000 1.0
C      1  0.4927920000000  0.5721570000000  0.4629960000000 1.0
C      1  0.5386070000000  0.4241980000000  0.4968120000000 1.0
C      1  0.4760170000000  0.5057120000000  0.5729380000000 1.0
C      1  0.5223680000000  0.5093160000000  0.5111040000000 1.0
C      1  0.4630810000000  0.6090700000000  0.4967840000000 1.0
C      1  0.5586620000000  0.4345740000000  0.4539890000000 1.0
C      1  0.5897570000000  0.5525730000000  0.4680370000000 1.0
C      1  0.5825070000000  0.4533610000000  0.5699300000000 1.0
C      1  0.4305570000000  0.4780610000000  0.5775120000000 1.0
C      1  0.4740900000000  0.4448700000000  0.5215370000000 1.0
C      1  0.5300130000000  0.5983070000000  0.5281840000000 1.0
C      1  0.6091490000000  0.5032400000000  0.5060250000000 1.0
C      1  0.4598350000000  0.5223010000000  0.6084190000000 1.0
C      1  0.5334200000000  0.4676120000000  0.5754530000000 1.0
C      1  0.4769660000000  0.4647210000000  0.4085660000000 1.0
C      1  0.4610180000000  0.5277310000000  0.5629990000000 1.0
C      1  0.4483830000000  0.5393450000000  0.5861800000000 1.0
C      1  0.4283180000000  0.4525490000000  0.5657900000000 1.0
C      1  0.4173130000000  0.5853050000000  0.4853800000000 1.0
C      1  0.5476580000000  0.5746300000000  0.5337550000000 1.0
C      1  0.5385360000000  0.5217660000000  0.5681870000000 1.0
C      1  0.5029990000000  0.5043990000000  0.4403090000000 1.0
C      1  0.5182890000000  0.4110220000000  0.4277410000000 1.0
C      1  0.6007080000000  0.4484360000000  0.5150270000000 1.0
C      1  0.4570750000000  0.5315060000000  0.5333270000000 1.0
C      1  0.4727190000000  0.4173990000000  0.4385530000000 1.0
C      1  0.3844390000000  0.4999760000000  0.4700040000000 1.0
C      1  0.5306010000000  0.4758660000000  0.4590210000000 1.0
C      1  0.5238490000000  0.5927660000000  0.5009860000000 1.0
C      1  0.4752870000000  0.4981560000000  0.6120440000000 1.0
C      1  0.5739880000000  0.5741250000000  0.4534920000000 1.0
C      1  0.5207840000000  0.4528820000000  0.4214050000000 1.0
C      1  0.5241450000000  0.4590680000000  0.5150960000000 1.0
C      1  0.4353700000000  0.4092220000000  0.5177390000000 1.0
C      1  0.5762460000000  0.5469380000000  0.5551080000000 1.0
C      1  0.5250080000000  0.4438260000000  0.5597480000000 1.0
C      1  0.5016250000000  0.5708500000000  0.4137340000000 1.0
C      1  0.4320980000000  0.4836330000000  0.5256290000000 1.0
C      1  0.4198940000000  0.5441990000000  0.4820730000000 1.0
C      1  0.4295050000000  0.4347340000000  0.4558310000000 1.0
C      1  0.5233580000000  0.5911320000000  0.4192200000000 1.0
C      1  0.5255910000000  0.5293750000000  0.5397680000000 1.0
C      1  0.4080870000000  0.4803910000000  0.5423030000000 1.0
C      1  0.4972490000000  0.5003350000000  0.5538250000000 1.0
C      1  0.5664990000000  0.5632340000000  0.4279190000000 1.0
C      1  0.4128830000000  0.4982270000000  0.5654870000000 1.0
C      1  0.4482280000000  0.4032960000000  0.4931970000000 1.0
C      1  0.4829300000000  0.5315350000000  0.4922070000000 1.0
C      1  0.4827460000000  0.4332880000000  0.5858170000000 1.0
C      1  0.4299860000000  0.4204010000000  0.5411460000000 1.0
C      1  0.5367210000000  0.4445090000000  0.5346130000000 1.0
C      1  0.4797990000000  0.6107480000000  0.4736470000000 1.0
C      1  0.5231860000000  0.5274950000000  0.3939580000000 1.0
C      1  0.4324110000000  0.4816000000000  0.4139300000000 1.0
C      1  0.4377650000000  0.5599590000000  0.4381130000000 1.0
C      1  0.5432360000000  0.3973830000000  0.5340430000000 1.0
C      1  0.4819750000000  0.5949580000000  0.5406070000000 1.0
C      1  0.4695810000000  0.4174920000000  0.5647230000000 1.0
C      1  0.5574990000000  0.5681780000000  0.5623030000000 1.0
C      1  0.5482640000000  0.5099990000000  0.4964760000000 1.0
C      1  0.5627420000000  0.4969810000000  0.5478480000000 1.0
C      1  0.5694440000000  0.4523900000000  0.4365530000000 1.0
C      1  0.5697950000000  0.4936920000000  0.4146120000000 1.0
C      1  0.5337350000000  0.4506880000000  0.4899490000000 1.0
C      1  0.4517080000000  0.4957870000000  0.4872760000000 1.0
C      1  0.5311190000000  0.5004590000000  0.4444170000000 1.0
C      1  0.4718890000000  0.5476490000000  0.5141340000000 1.0
C      1  0.4776960000000  0.4016900000000  0.4910160000000 1.0
C      1  0.3875500000000  0.4851070000000  0.4962270000000 1.0
C      1  0.4970610000000  0.5230100000000  0.3906690000000 1.0
C      1  0.5909990000000  0.5271550000000  0.4527830000000 1.0
C      1  0.5991060000000  0.5291680000000  0.5145820000000 1.0
C      1  0.5490450000000  0.4103250000000  0.5600310000000 1.0
END
