TITL C-883731-9874-367 3.56980090701191 125000 -23574.2838612822 0 0 157 (C1) n - 1
REM
REM in /home/nfs/bkarasulu/CARBON/AIRSS/Generating-Clusters/ReaxFF-fromJPCA2015/Units_Real/with-SteepDescent/Only-C1/SD-CG/Try1-3A/FIRE-CG
REM
REM
REM
REM
REM
REM ./C.cell (11c1c37f851c82e70ff6c80c92926a4b)
REM
REM compiler GCC version 9.2.1 20190827 (Red Hat 9.2.1-1)
REM options -cpp -mtune=generic -march=x86-64 -g -O0 -fpre-include=/usr/include/finclude/math-vector-fortran.h
REM seed 1236601937 -2066747207 1413034653 -606090223 -116151452 577734983 -386912365 -241114999 -1399411093 -225649161 -1033333780 881547951 -529775654 -1811313315 -676861022 -1832435528 802653403 -1918662532 483336600 1548245729 -801493284 1221330760 1516892471 -24415080 -1415177378 -1982948155 100485321 -2047145533 208385520 -1551510050 -1854679891 -2002960334 -1711164482
REM
CELL 1.54180   50.00000   50.00000   50.00000   90.00000   90.00000   90.00000
LATT -1
SFAC C  
C      1  0.5709700000000  0.5226050000000  0.5753030000000 1.0
C      1  0.4519940000000  0.4617380000000  0.5721500000000 1.0
C      1  0.5350450000000  0.4614620000000  0.4627600000000 1.0
C      1  0.4346500000000  0.4647720000000  0.4651290000000 1.0
C      1  0.5858970000000  0.5476680000000  0.4695770000000 1.0
C      1  0.4742580000000  0.4533400000000  0.5902540000000 1.0
C      1  0.4796200000000  0.4398840000000  0.4296680000000 1.0
C      1  0.5445350000000  0.5212250000000  0.5411060000000 1.0
C      1  0.4626060000000  0.4323880000000  0.5312570000000 1.0
C      1  0.5714330000000  0.4791820000000  0.5430080000000 1.0
C      1  0.4297550000000  0.5111390000000  0.4173310000000 1.0
C      1  0.4131820000000  0.5519750000000  0.4874110000000 1.0
C      1  0.4936130000000  0.5160580000000  0.4870720000000 1.0
C      1  0.5194400000000  0.4033060000000  0.4833060000000 1.0
C      1  0.5486260000000  0.3984360000000  0.5385640000000 1.0
C      1  0.4235590000000  0.5776400000000  0.4991280000000 1.0
C      1  0.4588870000000  0.4956310000000  0.5119100000000 1.0
C      1  0.4156820000000  0.5017850000000  0.5005560000000 1.0
C      1  0.5248110000000  0.5823990000000  0.5314940000000 1.0
C      1  0.4954370000000  0.3889410000000  0.5299480000000 1.0
C      1  0.4672060000000  0.5463270000000  0.4164480000000 1.0
C      1  0.5856710000000  0.5448230000000  0.5603610000000 1.0
C      1  0.5591020000000  0.5804630000000  0.4950790000000 1.0
C      1  0.4738070000000  0.5107490000000  0.3897520000000 1.0
C      1  0.5680200000000  0.5712040000000  0.4682250000000 1.0
C      1  0.4139740000000  0.4689020000000  0.4468630000000 1.0
C      1  0.5157950000000  0.4220810000000  0.4374980000000 1.0
C      1  0.5472930000000  0.5768530000000  0.4473850000000 1.0
C      1  0.5383490000000  0.4861300000000  0.5880590000000 1.0
C      1  0.5444750000000  0.4621390000000  0.4351440000000 1.0
C      1  0.5148000000000  0.5363420000000  0.3912650000000 1.0
C      1  0.4468060000000  0.5009490000000  0.4874630000000 1.0
C      1  0.5057520000000  0.4667680000000  0.4674220000000 1.0
C      1  0.5497630000000  0.4461570000000  0.4839870000000 1.0
C      1  0.4810450000000  0.5831440000000  0.4448860000000 1.0
C      1  0.5342660000000  0.5661260000000  0.5782780000000 1.0
C      1  0.4964880000000  0.5063880000000  0.5369670000000 1.0
C      1  0.5089190000000  0.5813120000000  0.4859840000000 1.0
C      1  0.4176730000000  0.5482650000000  0.4590720000000 1.0
C      1  0.4690720000000  0.5458980000000  0.5812100000000 1.0
C      1  0.4958210000000  0.5336070000000  0.5729270000000 1.0
C      1  0.4660400000000  0.5211470000000  0.4795890000000 1.0
C      1  0.5114090000000  0.3851540000000  0.5048790000000 1.0
C      1  0.5534640000000  0.5046810000000  0.5000670000000 1.0
C      1  0.5318320000000  0.5884970000000  0.5026840000000 1.0
C      1  0.5256880000000  0.5001220000000  0.5379720000000 1.0
C      1  0.4483360000000  0.4736290000000  0.5244180000000 1.0
C      1  0.4216780000000  0.5269120000000  0.5522210000000 1.0
C      1  0.5207130000000  0.4393550000000  0.5955960000000 1.0
C      1  0.5327400000000  0.5029010000000  0.4575240000000 1.0
C      1  0.4909240000000  0.4610720000000  0.4444460000000 1.0
C      1  0.4801560000000  0.6028330000000  0.5292030000000 1.0
C      1  0.4743010000000  0.4584930000000  0.4882440000000 1.0
C      1  0.4907420000000  0.4860920000000  0.5571320000000 1.0
C      1  0.5908870000000  0.4802460000000  0.5205560000000 1.0
C      1  0.4205910000000  0.4502500000000  0.4829160000000 1.0
C      1  0.4869940000000  0.4967640000000  0.5113030000000 1.0
C      1  0.6075150000000  0.5268930000000  0.5124130000000 1.0
C      1  0.5938610000000  0.5492800000000  0.4980500000000 1.0
C      1  0.5265160000000  0.4424380000000  0.4207000000000 1.0
C      1  0.4921770000000  0.4671580000000  0.6065110000000 1.0
C      1  0.4364490000000  0.5880840000000  0.5230900000000 1.0
C      1  0.5799960000000  0.4502240000000  0.4756630000000 1.0
C      1  0.4714920000000  0.5556330000000  0.4996490000000 1.0
C      1  0.4921970000000  0.5369220000000  0.5392560000000 1.0
C      1  0.4542490000000  0.5809610000000  0.4315330000000 1.0
C      1  0.4626610000000  0.5482330000000  0.4732780000000 1.0
C      1  0.4739590000000  0.5040460000000  0.4438940000000 1.0
C      1  0.4924660000000  0.4676270000000  0.5086110000000 1.0
C      1  0.5933590000000  0.4989730000000  0.4720190000000 1.0
C      1  0.5024210000000  0.4336510000000  0.5484430000000 1.0
C      1  0.4874090000000  0.4827630000000  0.4294550000000 1.0
C      1  0.5549120000000  0.5094030000000  0.4740360000000 1.0
C      1  0.4503370000000  0.4381700000000  0.4309220000000 1.0
C      1  0.5522200000000  0.4124340000000  0.5620980000000 1.0
C      1  0.4001100000000  0.5206330000000  0.5332960000000 1.0
C      1  0.5667270000000  0.4421590000000  0.5841870000000 1.0
C      1  0.5456730000000  0.4637370000000  0.5441460000000 1.0
C      1  0.5085950000000  0.5765940000000  0.5794280000000 1.0
C      1  0.5375260000000  0.5365300000000  0.5184410000000 1.0
C      1  0.5247000000000  0.4782310000000  0.5600720000000 1.0
C      1  0.5709700000000  0.5657260000000  0.5429250000000 1.0
C      1  0.4639760000000  0.4073680000000  0.4916750000000 1.0
C      1  0.4834970000000  0.5368120000000  0.3935070000000 1.0
C      1  0.5636410000000  0.5215350000000  0.4082740000000 1.0
C      1  0.5093740000000  0.4962070000000  0.4727180000000 1.0
C      1  0.4612470000000  0.5718200000000  0.5696950000000 1.0
C      1  0.5456440000000  0.5752410000000  0.5517360000000 1.0
C      1  0.4481720000000  0.4200520000000  0.4541410000000 1.0
C      1  0.4052110000000  0.5281180000000  0.5039620000000 1.0
C      1  0.5326630000000  0.5531170000000  0.4444470000000 1.0
C      1  0.4873850000000  0.5957140000000  0.4708000000000 1.0
C      1  0.4976500000000  0.4378450000000  0.5780600000000 1.0
C      1  0.5338090000000  0.5234970000000  0.4076360000000 1.0
C      1  0.4381920000000  0.4839170000000  0.4083870000000 1.0
C      1  0.5254130000000  0.5383490000000  0.5851440000000 1.0
C      1  0.4255890000000  0.4597250000000  0.5103530000000 1.0
C      1  0.5130620000000  0.5512480000000  0.5219140000000 1.0
C      1  0.5475710000000  0.5312820000000  0.4923060000000 1.0
C      1  0.4573310000000  0.5189400000000  0.5824910000000 1.0
C      1  0.5646320000000  0.5704690000000  0.4260220000000 1.0
C      1  0.4056080000000  0.4923740000000  0.5266950000000 1.0
C      1  0.4368560000000  0.5898330000000  0.4763230000000 1.0
C      1  0.4888500000000  0.4738820000000  0.4020530000000 1.0
C      1  0.5240130000000  0.3827790000000  0.5309440000000 1.0
C      1  0.5600560000000  0.4666520000000  0.5882950000000 1.0
C      1  0.4357630000000  0.4096860000000  0.5012550000000 1.0
C      1  0.4147610000000  0.4444870000000  0.5324640000000 1.0
C      1  0.5447850000000  0.4164940000000  0.4887830000000 1.0
C      1  0.4553200000000  0.5218650000000  0.4273680000000 1.0
C      1  0.5023700000000  0.4090530000000  0.4592710000000 1.0
C      1  0.5668270000000  0.5486290000000  0.4123460000000 1.0
C      1  0.4130280000000  0.5222360000000  0.4411300000000 1.0
C      1  0.5839310000000  0.4206500000000  0.5052930000000 1.0
C      1  0.4989790000000  0.4463690000000  0.4081780000000 1.0
C      1  0.4321780000000  0.5081970000000  0.5718590000000 1.0
C      1  0.5373430000000  0.4588640000000  0.5151700000000 1.0
C      1  0.5464490000000  0.4232430000000  0.5872160000000 1.0
C      1  0.5973990000000  0.4369940000000  0.4917940000000 1.0
C      1  0.5202780000000  0.4666850000000  0.6066620000000 1.0
C      1  0.4403980000000  0.5742310000000  0.5487070000000 1.0
C      1  0.5002680000000  0.5992890000000  0.5448960000000 1.0
C      1  0.4926720000000  0.5260990000000  0.4447060000000 1.0
C      1  0.6018940000000  0.4993560000000  0.5012360000000 1.0
C      1  0.4282280000000  0.4223300000000  0.4761210000000 1.0
C      1  0.4832790000000  0.5064820000000  0.5770070000000 1.0
C      1  0.5687570000000  0.5082740000000  0.5498510000000 1.0
C      1  0.5756060000000  0.5073720000000  0.4316080000000 1.0
C      1  0.5698860000000  0.4781860000000  0.4342410000000 1.0
C      1  0.4836290000000  0.4126810000000  0.5417510000000 1.0
C      1  0.5610130000000  0.4072060000000  0.5113460000000 1.0
C      1  0.4724210000000  0.4071440000000  0.4638800000000 1.0
C      1  0.5452420000000  0.5183390000000  0.5878460000000 1.0
C      1  0.4075570000000  0.4968810000000  0.4477080000000 1.0
C      1  0.5999050000000  0.5351430000000  0.5380110000000 1.0
C      1  0.4706290000000  0.4331310000000  0.5025410000000 1.0
C      1  0.4582350000000  0.4781280000000  0.4708860000000 1.0
C      1  0.4663820000000  0.5432130000000  0.5256060000000 1.0
C      1  0.4621250000000  0.6028440000000  0.4835080000000 1.0
C      1  0.5771690000000  0.5677730000000  0.5139550000000 1.0
C      1  0.5858970000000  0.4737870000000  0.4578850000000 1.0
C      1  0.4856400000000  0.5894200000000  0.5705430000000 1.0
C      1  0.4325110000000  0.4606740000000  0.4242420000000 1.0
C      1  0.4325990000000  0.5720490000000  0.4532600000000 1.0
C      1  0.4661030000000  0.4649770000000  0.5468070000000 1.0
C      1  0.4405270000000  0.5461990000000  0.5394700000000 1.0
C      1  0.5352700000000  0.4879680000000  0.5125900000000 1.0
C      1  0.4786270000000  0.5519040000000  0.4476380000000 1.0
C      1  0.4112320000000  0.4706640000000  0.5470990000000 1.0
C      1  0.4631600000000  0.4849980000000  0.3912370000000 1.0
C      1  0.4584180000000  0.6062470000000  0.5128870000000 1.0
C      1  0.4282190000000  0.4789380000000  0.5696070000000 1.0
C      1  0.5004620000000  0.5548230000000  0.4957160000000 1.0
C      1  0.4340630000000  0.4228840000000  0.5273150000000 1.0
C      1  0.5880530000000  0.5219860000000  0.4544440000000 1.0
C      1  0.5097010000000  0.4514140000000  0.5255560000000 1.0
C      1  0.5222850000000  0.5258900000000  0.4398520000000 1.0
END
