TITL C-884140-4336-465 119.853136137547 125000 -26099.1293540978 0 0 177 (C1) n - 1
REM
REM in /home/nfs/bkarasulu/CARBON/AIRSS/Generating-Clusters/ReaxFF-fromJPCA2015/Units_Real/with-SteepDescent/Only-C1/SD-CG/Try1-3A/FIRE-CG
REM
REM
REM
REM
REM
REM ./C.cell (11c1c37f851c82e70ff6c80c92926a4b)
REM
REM compiler GCC version 9.2.1 20190827 (Red Hat 9.2.1-1)
REM options -cpp -mtune=generic -march=x86-64 -g -O0 -fpre-include=/usr/include/finclude/math-vector-fortran.h
REM seed 538482823 594902581 1274931342 -2021393186 -1455783560 -1171884343 -610207965 1804475617 -175419736 -489763467 -762369854 -1501128770 -557232446 808245282 -1939498875 368452318 793047923 -2034694883 -675572038 1257612741 -1787594840 1297007901 -1088997505 -1782609721 -737819849 -1761759316 1775608846 799148177 -221944649 1884664779 -1757096578 455717977 -2072129518
REM
CELL 1.54180   50.00000   50.00000   50.00000   90.00000   90.00000   90.00000
LATT -1
SFAC C  
C      1  0.5253370000000  0.4466610000000  0.5357430000000 1.0
C      1  0.4323440000000  0.4556610000000  0.4303070000000 1.0
C      1  0.5569070000000  0.4740270000000  0.4804950000000 1.0
C      1  0.5277990000000  0.5387530000000  0.4800700000000 1.0
C      1  0.5794150000000  0.5720690000000  0.5119120000000 1.0
C      1  0.4143300000000  0.5662400000000  0.5314130000000 1.0
C      1  0.5539630000000  0.5352100000000  0.4501830000000 1.0
C      1  0.4956170000000  0.4973710000000  0.4702920000000 1.0
C      1  0.5119950000000  0.5879080000000  0.5573620000000 1.0
C      1  0.4241250000000  0.4978380000000  0.4506500000000 1.0
C      1  0.5106350000000  0.5482600000000  0.5681060000000 1.0
C      1  0.4779720000000  0.5538190000000  0.4302640000000 1.0
C      1  0.5569800000000  0.4559460000000  0.5030410000000 1.0
C      1  0.5582150000000  0.5369020000000  0.5224470000000 1.0
C      1  0.4083350000000  0.4322920000000  0.4878650000000 1.0
C      1  0.5536650000000  0.5084660000000  0.5142760000000 1.0
C      1  0.4812310000000  0.4519630000000  0.5870710000000 1.0
C      1  0.5473390000000  0.4252930000000  0.5668390000000 1.0
C      1  0.5726390000000  0.4354880000000  0.4535260000000 1.0
C      1  0.4935770000000  0.5452700000000  0.5909050000000 1.0
C      1  0.4661600000000  0.5576600000000  0.5578440000000 1.0
C      1  0.4997180000000  0.4127340000000  0.4604690000000 1.0
C      1  0.5585280000000  0.5770060000000  0.4357800000000 1.0
C      1  0.4500030000000  0.4342670000000  0.5220130000000 1.0
C      1  0.5555840000000  0.4880760000000  0.5316900000000 1.0
C      1  0.5937760000000  0.5306430000000  0.4461840000000 1.0
C      1  0.5098860000000  0.5117110000000  0.4360030000000 1.0
C      1  0.4656940000000  0.5958130000000  0.4520780000000 1.0
C      1  0.5785580000000  0.4684440000000  0.6009520000000 1.0
C      1  0.4689240000000  0.4187320000000  0.5066730000000 1.0
C      1  0.4757310000000  0.5020780000000  0.5057900000000 1.0
C      1  0.5120540000000  0.5074060000000  0.5443730000000 1.0
C      1  0.4141280000000  0.4730570000000  0.5576560000000 1.0
C      1  0.5918020000000  0.5016890000000  0.4444840000000 1.0
C      1  0.6016250000000  0.5392530000000  0.5513750000000 1.0
C      1  0.4289660000000  0.4136590000000  0.4824520000000 1.0
C      1  0.4372460000000  0.5737830000000  0.5120820000000 1.0
C      1  0.5090240000000  0.5567580000000  0.4049200000000 1.0
C      1  0.5015710000000  0.4918550000000  0.5157820000000 1.0
C      1  0.5708500000000  0.5459690000000  0.4297980000000 1.0
C      1  0.5068170000000  0.4336180000000  0.4793530000000 1.0
C      1  0.4495560000000  0.4132100000000  0.4643800000000 1.0
C      1  0.6105270000000  0.4735300000000  0.5077780000000 1.0
C      1  0.3967470000000  0.5392730000000  0.4678510000000 1.0
C      1  0.6101600000000  0.5209910000000  0.4834150000000 1.0
C      1  0.4336790000000  0.4085940000000  0.5544460000000 1.0
C      1  0.5252660000000  0.5075990000000  0.4102830000000 1.0
C      1  0.4978760000000  0.4503100000000  0.5448780000000 1.0
C      1  0.5390190000000  0.4703160000000  0.4580130000000 1.0
C      1  0.5855150000000  0.5193620000000  0.5656930000000 1.0
C      1  0.4922400000000  0.5946320000000  0.4438120000000 1.0
C      1  0.4426410000000  0.4628460000000  0.4772110000000 1.0
C      1  0.4887290000000  0.4193940000000  0.5586250000000 1.0
C      1  0.5393980000000  0.4666040000000  0.5220530000000 1.0
C      1  0.4586680000000  0.5592890000000  0.5300460000000 1.0
C      1  0.5274950000000  0.5269510000000  0.4532360000000 1.0
C      1  0.4906390000000  0.5696350000000  0.5726470000000 1.0
C      1  0.5276160000000  0.4374630000000  0.5864020000000 1.0
C      1  0.5849470000000  0.4342410000000  0.4800850000000 1.0
C      1  0.4535740000000  0.5107520000000  0.5511150000000 1.0
C      1  0.4417450000000  0.5990660000000  0.4663270000000 1.0
C      1  0.4216650000000  0.5231620000000  0.5121420000000 1.0
C      1  0.5386000000000  0.5565610000000  0.5182300000000 1.0
C      1  0.5582360000000  0.5316550000000  0.4060390000000 1.0
C      1  0.4407520000000  0.5570900000000  0.4832230000000 1.0
C      1  0.3921830000000  0.5208790000000  0.5493560000000 1.0
C      1  0.4400430000000  0.4702390000000  0.5750970000000 1.0
C      1  0.5821340000000  0.4602360000000  0.4391570000000 1.0
C      1  0.4541720000000  0.4439320000000  0.5827940000000 1.0
C      1  0.4716360000000  0.5357760000000  0.4503700000000 1.0
C      1  0.4019750000000  0.4837570000000  0.4626390000000 1.0
C      1  0.4690980000000  0.5283750000000  0.5075700000000 1.0
C      1  0.5365490000000  0.6010430000000  0.5049020000000 1.0
C      1  0.4387450000000  0.4846840000000  0.4259760000000 1.0
C      1  0.4080990000000  0.4537600000000  0.5361180000000 1.0
C      1  0.4818470000000  0.5195080000000  0.5854110000000 1.0
C      1  0.5488050000000  0.4180940000000  0.4532540000000 1.0
C      1  0.4690660000000  0.6066850000000  0.5354170000000 1.0
C      1  0.4813430000000  0.5468720000000  0.4021170000000 1.0
C      1  0.4693940000000  0.4901800000000  0.4298760000000 1.0
C      1  0.4417340000000  0.4763810000000  0.5024500000000 1.0
C      1  0.6004540000000  0.4738740000000  0.4570760000000 1.0
C      1  0.5546270000000  0.5026880000000  0.4104060000000 1.0
C      1  0.4706200000000  0.5457980000000  0.4832300000000 1.0
C      1  0.4586870000000  0.4643050000000  0.5237270000000 1.0
C      1  0.5428110000000  0.5886370000000  0.4526470000000 1.0
C      1  0.4241540000000  0.5326100000000  0.4826830000000 1.0
C      1  0.5737040000000  0.4875720000000  0.4275680000000 1.0
C      1  0.5308810000000  0.4190600000000  0.4293890000000 1.0
C      1  0.5337440000000  0.4199610000000  0.5283540000000 1.0
C      1  0.5121910000000  0.6125120000000  0.5137740000000 1.0
C      1  0.5081450000000  0.6059220000000  0.4668720000000 1.0
C      1  0.5292060000000  0.5905430000000  0.4774640000000 1.0
C      1  0.4905900000000  0.4367240000000  0.5019150000000 1.0
C      1  0.5671160000000  0.4390630000000  0.5504800000000 1.0
C      1  0.4025360000000  0.5400380000000  0.5283270000000 1.0
C      1  0.4433670000000  0.5131320000000  0.4664160000000 1.0
C      1  0.5259570000000  0.4661080000000  0.5915810000000 1.0
C      1  0.4998210000000  0.4297140000000  0.5848300000000 1.0
C      1  0.5793610000000  0.5604760000000  0.4852960000000 1.0
C      1  0.4042730000000  0.5624800000000  0.4519050000000 1.0
C      1  0.5335980000000  0.4031990000000  0.5528930000000 1.0
C      1  0.5391600000000  0.5788720000000  0.5542030000000 1.0
C      1  0.5619220000000  0.5329830000000  0.5788670000000 1.0
C      1  0.5100140000000  0.5507610000000  0.5186460000000 1.0
C      1  0.4552840000000  0.4370730000000  0.4404120000000 1.0
C      1  0.4274190000000  0.5722990000000  0.5571830000000 1.0
C      1  0.5293090000000  0.5352690000000  0.4006830000000 1.0
C      1  0.5398220000000  0.4986170000000  0.5513450000000 1.0
C      1  0.5062650000000  0.4842940000000  0.6062060000000 1.0
C      1  0.4445670000000  0.5992440000000  0.4963170000000 1.0
C      1  0.5114730000000  0.4041370000000  0.5177010000000 1.0
C      1  0.4199380000000  0.4486820000000  0.4670080000000 1.0
C      1  0.4683220000000  0.6114330000000  0.5053070000000 1.0
C      1  0.4906060000000  0.4707390000000  0.4625340000000 1.0
C      1  0.4469390000000  0.5937740000000  0.5494900000000 1.0
C      1  0.5068560000000  0.5351840000000  0.5426840000000 1.0
C      1  0.4500340000000  0.4941540000000  0.5925250000000 1.0
C      1  0.5709830000000  0.4357550000000  0.5204930000000 1.0
C      1  0.4186460000000  0.4929360000000  0.5088030000000 1.0
C      1  0.5148490000000  0.5643630000000  0.4801210000000 1.0
C      1  0.4819710000000  0.5144030000000  0.4367170000000 1.0
C      1  0.5014130000000  0.4166100000000  0.4312290000000 1.0
C      1  0.5446610000000  0.4074360000000  0.4804670000000 1.0
C      1  0.4237090000000  0.4285870000000  0.5330700000000 1.0
C      1  0.4671230000000  0.3991570000000  0.4833910000000 1.0
C      1  0.5677730000000  0.4169220000000  0.4973650000000 1.0
C      1  0.5447070000000  0.4981390000000  0.4886610000000 1.0
C      1  0.6144910000000  0.4987540000000  0.4959880000000 1.0
C      1  0.4876730000000  0.4530760000000  0.4013540000000 1.0
C      1  0.4945520000000  0.3894770000000  0.4767910000000 1.0
C      1  0.4507120000000  0.5308020000000  0.5280680000000 1.0
C      1  0.5444440000000  0.4781760000000  0.5714360000000 1.0
C      1  0.5158940000000  0.5022430000000  0.4913670000000 1.0
C      1  0.5398150000000  0.4595920000000  0.4317820000000 1.0
C      1  0.4795000000000  0.4819770000000  0.4038630000000 1.0
C      1  0.4644900000000  0.4992060000000  0.3854170000000 1.0
C      1  0.4370440000000  0.4996230000000  0.3965690000000 1.0
C      1  0.4327200000000  0.5719860000000  0.4584930000000 1.0
C      1  0.5879540000000  0.4897300000000  0.5563690000000 1.0
C      1  0.4344540000000  0.5290010000000  0.3928130000000 1.0
C      1  0.4647300000000  0.5290100000000  0.3856810000000 1.0
C      1  0.5142870000000  0.4484960000000  0.3892310000000 1.0
C      1  0.4987730000000  0.6051490000000  0.5393870000000 1.0
C      1  0.4942590000000  0.6146710000000  0.4912940000000 1.0
C      1  0.4097680000000  0.5012450000000  0.5623100000000 1.0
C      1  0.3988340000000  0.4796880000000  0.4921310000000 1.0
C      1  0.4930400000000  0.5598260000000  0.4967850000000 1.0
C      1  0.5720590000000  0.4654930000000  0.5674800000000 1.0
C      1  0.5563500000000  0.5455000000000  0.4759430000000 1.0
C      1  0.4998860000000  0.5012190000000  0.5700120000000 1.0
C      1  0.5017500000000  0.5691300000000  0.4307230000000 1.0
C      1  0.5653810000000  0.4920480000000  0.6042230000000 1.0
C      1  0.5487710000000  0.5146050000000  0.5984520000000 1.0
C      1  0.6010910000000  0.5439520000000  0.4709170000000 1.0
C      1  0.5861810000000  0.5478680000000  0.5262090000000 1.0
C      1  0.4005600000000  0.4540110000000  0.5072270000000 1.0
C      1  0.6000720000000  0.4602380000000  0.4829470000000 1.0
C      1  0.4577040000000  0.4192940000000  0.5675070000000 1.0
C      1  0.4797820000000  0.4335700000000  0.4222070000000 1.0
C      1  0.5357090000000  0.4419450000000  0.4100110000000 1.0
C      1  0.5198830000000  0.3941350000000  0.4914240000000 1.0
C      1  0.5204090000000  0.5073240000000  0.5973930000000 1.0
C      1  0.4416870000000  0.5487100000000  0.5698200000000 1.0
C      1  0.4598690000000  0.4819190000000  0.5513950000000 1.0
C      1  0.5050730000000  0.3974810000000  0.5461050000000 1.0
C      1  0.4885980000000  0.4606670000000  0.5188490000000 1.0
C      1  0.4364720000000  0.5167190000000  0.5742790000000 1.0
C      1  0.4769990000000  0.4963590000000  0.6032040000000 1.0
C      1  0.4637490000000  0.4606960000000  0.4580330000000 1.0
C      1  0.5515840000000  0.5833530000000  0.5232480000000 1.0
C      1  0.5145110000000  0.4588170000000  0.4692210000000 1.0
C      1  0.4870410000000  0.4726940000000  0.5649290000000 1.0
C      1  0.4680010000000  0.5005500000000  0.4787160000000 1.0
C      1  0.4080060000000  0.4604320000000  0.4453110000000 1.0
C      1  0.5944060000000  0.4837890000000  0.5295660000000 1.0
C      1  0.5501900000000  0.5569340000000  0.5683080000000 1.0
END
