TITL C-883735-9890-191 38.595364350439 125000 -27192.5096715579 0 0 181 (C1) n - 1
REM
REM in /home/nfs/bkarasulu/CARBON/AIRSS/Generating-Clusters/ReaxFF-fromJPCA2015/Units_Real/with-SteepDescent/Only-C1/SD-CG/Try1-3A/FIRE-CG
REM
REM
REM
REM
REM
REM ./C.cell (11c1c37f851c82e70ff6c80c92926a4b)
REM
REM compiler GCC version 9.2.1 20190827 (Red Hat 9.2.1-1)
REM options -cpp -mtune=generic -march=x86-64 -g -O0 -fpre-include=/usr/include/finclude/math-vector-fortran.h
REM seed -1370839783 116053504 546601129 319415694 -1379956241 11614583 407962791 630786460 -1218865350 302017912 2125176481 180049500 -522968393 -1458353868 85787910 1067038416 1772476919 -45004844 705700405 -835629299 478575680 633306066 38447559 -699461880 -385706984 -292582554 -1139802048 1216243858 1555095968 -546897732 -976471303 -2099181155 -1149184295
REM
CELL 1.54180   50.00000   50.00000   50.00000   90.00000   90.00000   90.00000
LATT -1
SFAC C  
C      1  0.5330610000000  0.4862360000000  0.5997530000000 1.0
C      1  0.5241490000000  0.4846560000000  0.5666360000000 1.0
C      1  0.4178560000000  0.5609040000000  0.4961050000000 1.0
C      1  0.4281650000000  0.5005190000000  0.4118710000000 1.0
C      1  0.4946330000000  0.4374270000000  0.4741300000000 1.0
C      1  0.5449710000000  0.4732300000000  0.5207350000000 1.0
C      1  0.4393060000000  0.4921650000000  0.4672510000000 1.0
C      1  0.4973560000000  0.5167470000000  0.4477930000000 1.0
C      1  0.5093850000000  0.5590650000000  0.5943200000000 1.0
C      1  0.5810190000000  0.5535340000000  0.4603040000000 1.0
C      1  0.4554830000000  0.5702200000000  0.4281710000000 1.0
C      1  0.4526010000000  0.4884440000000  0.4924720000000 1.0
C      1  0.5455970000000  0.5560940000000  0.4221750000000 1.0
C      1  0.5728100000000  0.4958170000000  0.4600030000000 1.0
C      1  0.5000170000000  0.5341440000000  0.6063920000000 1.0
C      1  0.5475080000000  0.5923950000000  0.4550120000000 1.0
C      1  0.4976600000000  0.4537340000000  0.3878710000000 1.0
C      1  0.4512170000000  0.5963560000000  0.4710690000000 1.0
C      1  0.5538980000000  0.4353810000000  0.4185150000000 1.0
C      1  0.5635830000000  0.4468170000000  0.5821080000000 1.0
C      1  0.6068980000000  0.4812840000000  0.4786850000000 1.0
C      1  0.5156460000000  0.5028990000000  0.3843020000000 1.0
C      1  0.4936050000000  0.5701310000000  0.5126600000000 1.0
C      1  0.4370370000000  0.4604360000000  0.5912810000000 1.0
C      1  0.6004500000000  0.5518370000000  0.5057120000000 1.0
C      1  0.4508230000000  0.3998760000000  0.5433990000000 1.0
C      1  0.4489730000000  0.5192040000000  0.5978660000000 1.0
C      1  0.5256890000000  0.5383750000000  0.4855720000000 1.0
C      1  0.4207320000000  0.5882890000000  0.5123570000000 1.0
C      1  0.5673290000000  0.5769030000000  0.4702540000000 1.0
C      1  0.4977650000000  0.5536760000000  0.5370590000000 1.0
C      1  0.5049510000000  0.5837220000000  0.4239340000000 1.0
C      1  0.5063240000000  0.4270650000000  0.3928190000000 1.0
C      1  0.4816370000000  0.4904330000000  0.5487470000000 1.0
C      1  0.4973020000000  0.5559260000000  0.4203290000000 1.0
C      1  0.4755180000000  0.5388920000000  0.4867880000000 1.0
C      1  0.5350010000000  0.5581560000000  0.5802830000000 1.0
C      1  0.5003330000000  0.4840220000000  0.6234830000000 1.0
C      1  0.5229230000000  0.3992770000000  0.4773720000000 1.0
C      1  0.5395650000000  0.4070960000000  0.4539370000000 1.0
C      1  0.5341820000000  0.5813530000000  0.4305900000000 1.0
C      1  0.4269680000000  0.5802150000000  0.5403380000000 1.0
C      1  0.4339350000000  0.4823280000000  0.5687520000000 1.0
C      1  0.5029030000000  0.4785960000000  0.3852260000000 1.0
C      1  0.5602860000000  0.4266810000000  0.4458950000000 1.0
C      1  0.5465290000000  0.5031140000000  0.4530520000000 1.0
C      1  0.4998810000000  0.4052910000000  0.5562190000000 1.0
C      1  0.5292200000000  0.5066290000000  0.4774780000000 1.0
C      1  0.5200880000000  0.4041210000000  0.4331560000000 1.0
C      1  0.5459110000000  0.4916660000000  0.4982260000000 1.0
C      1  0.4181530000000  0.5569350000000  0.4653870000000 1.0
C      1  0.4815760000000  0.5920730000000  0.5575570000000 1.0
C      1  0.5726760000000  0.5654230000000  0.5480660000000 1.0
C      1  0.5137380000000  0.4258080000000  0.5404360000000 1.0
C      1  0.5703360000000  0.4906240000000  0.5660560000000 1.0
C      1  0.5794050000000  0.4427790000000  0.4616030000000 1.0
C      1  0.4121610000000  0.4636000000000  0.5579380000000 1.0
C      1  0.5835790000000  0.5418150000000  0.5624960000000 1.0
C      1  0.6154160000000  0.5340010000000  0.5232770000000 1.0
C      1  0.4127770000000  0.4723710000000  0.5298320000000 1.0
C      1  0.4272400000000  0.4241420000000  0.4572660000000 1.0
C      1  0.4362340000000  0.4146050000000  0.4823200000000 1.0
C      1  0.4296600000000  0.5135900000000  0.5771820000000 1.0
C      1  0.4107800000000  0.5555270000000  0.5457670000000 1.0
C      1  0.5678210000000  0.4916260000000  0.4072450000000 1.0
C      1  0.4714770000000  0.5397750000000  0.6021990000000 1.0
C      1  0.5287740000000  0.4102040000000  0.5607900000000 1.0
C      1  0.4785940000000  0.3893800000000  0.5433810000000 1.0
C      1  0.4573650000000  0.4749770000000  0.5512450000000 1.0
C      1  0.4688200000000  0.4098630000000  0.4271590000000 1.0
C      1  0.5044380000000  0.6018420000000  0.5410670000000 1.0
C      1  0.4612540000000  0.5799810000000  0.5153270000000 1.0
C      1  0.5492370000000  0.5472200000000  0.4974990000000 1.0
C      1  0.4685810000000  0.4988360000000  0.5918610000000 1.0
C      1  0.5294060000000  0.4205580000000  0.4115460000000 1.0
C      1  0.5328930000000  0.4673260000000  0.4356440000000 1.0
C      1  0.4784970000000  0.5896530000000  0.4346320000000 1.0
C      1  0.5861130000000  0.4353810000000  0.4880800000000 1.0
C      1  0.4125890000000  0.5292630000000  0.5602710000000 1.0
C      1  0.5960430000000  0.5237220000000  0.5431510000000 1.0
C      1  0.4601540000000  0.4485760000000  0.5425490000000 1.0
C      1  0.5329440000000  0.5951090000000  0.5442580000000 1.0
C      1  0.4434480000000  0.5702680000000  0.4556220000000 1.0
C      1  0.6011030000000  0.4590930000000  0.4996800000000 1.0
C      1  0.4624940000000  0.4712180000000  0.5999610000000 1.0
C      1  0.4449940000000  0.5549470000000  0.5114880000000 1.0
C      1  0.5082680000000  0.5988050000000  0.5105700000000 1.0
C      1  0.5187390000000  0.5146420000000  0.5204590000000 1.0
C      1  0.4825590000000  0.4217120000000  0.4065450000000 1.0
C      1  0.4676710000000  0.4641940000000  0.4332920000000 1.0
C      1  0.5584010000000  0.4751480000000  0.5908960000000 1.0
C      1  0.4682500000000  0.5572210000000  0.5785140000000 1.0
C      1  0.4629310000000  0.3906260000000  0.5186940000000 1.0
C      1  0.5147830000000  0.4511270000000  0.4896990000000 1.0
C      1  0.5993740000000  0.5395650000000  0.4787860000000 1.0
C      1  0.5161590000000  0.5119030000000  0.5702890000000 1.0
C      1  0.5663860000000  0.5211820000000  0.5729560000000 1.0
C      1  0.4925950000000  0.3998630000000  0.4454530000000 1.0
C      1  0.5481900000000  0.5752890000000  0.5605020000000 1.0
C      1  0.5136640000000  0.5181590000000  0.4253160000000 1.0
C      1  0.5015230000000  0.4716920000000  0.5561560000000 1.0
C      1  0.4872660000000  0.5423020000000  0.4448650000000 1.0
C      1  0.5542420000000  0.4656210000000  0.4199420000000 1.0
C      1  0.5959570000000  0.4729370000000  0.5526010000000 1.0
C      1  0.4936200000000  0.3955300000000  0.4729300000000 1.0
C      1  0.4716500000000  0.4437590000000  0.5138640000000 1.0
C      1  0.5895120000000  0.4711660000000  0.4582290000000 1.0
C      1  0.3932460000000  0.5175950000000  0.5395750000000 1.0
C      1  0.3994800000000  0.5159850000000  0.4799880000000 1.0
C      1  0.4447190000000  0.4274460000000  0.5532010000000 1.0
C      1  0.4432220000000  0.4245400000000  0.4326690000000 1.0
C      1  0.5372090000000  0.4482270000000  0.5069910000000 1.0
C      1  0.5482390000000  0.4790550000000  0.5493250000000 1.0
C      1  0.4758100000000  0.5405370000000  0.5529710000000 1.0
C      1  0.4667890000000  0.4928830000000  0.4279680000000 1.0
C      1  0.5800840000000  0.5679460000000  0.5196200000000 1.0
C      1  0.5206410000000  0.4320750000000  0.5959620000000 1.0
C      1  0.4033240000000  0.4590980000000  0.4874280000000 1.0
C      1  0.5145660000000  0.5061400000000  0.6134790000000 1.0
C      1  0.5236170000000  0.6001490000000  0.4674000000000 1.0
C      1  0.5764460000000  0.5164340000000  0.4219480000000 1.0
C      1  0.5384990000000  0.5289380000000  0.5772100000000 1.0
C      1  0.4435610000000  0.4518100000000  0.4222450000000 1.0
C      1  0.4953610000000  0.4624550000000  0.5090870000000 1.0
C      1  0.5060880000000  0.4534240000000  0.5359820000000 1.0
C      1  0.4234930000000  0.4738720000000  0.4229750000000 1.0
C      1  0.4524040000000  0.5113350000000  0.4485520000000 1.0
C      1  0.4554150000000  0.5874980000000  0.5438810000000 1.0
C      1  0.5111000000000  0.4707080000000  0.4518180000000 1.0
C      1  0.4459110000000  0.4502650000000  0.5034690000000 1.0
C      1  0.4116650000000  0.5306030000000  0.4578680000000 1.0
C      1  0.4434130000000  0.5995510000000  0.4984480000000 1.0
C      1  0.4833060000000  0.4612160000000  0.6199460000000 1.0
C      1  0.4655010000000  0.4013610000000  0.4904830000000 1.0
C      1  0.3958290000000  0.5394220000000  0.4971870000000 1.0
C      1  0.4761170000000  0.4267770000000  0.4934620000000 1.0
C      1  0.4301150000000  0.5249320000000  0.4299150000000 1.0
C      1  0.4835250000000  0.4873640000000  0.4943820000000 1.0
C      1  0.4931260000000  0.5191700000000  0.3914230000000 1.0
C      1  0.4664830000000  0.5285430000000  0.3962270000000 1.0
C      1  0.4631770000000  0.5411710000000  0.4606250000000 1.0
C      1  0.5440390000000  0.5048480000000  0.3980670000000 1.0
C      1  0.5701400000000  0.4139820000000  0.5002900000000 1.0
C      1  0.4186930000000  0.4762520000000  0.4518300000000 1.0
C      1  0.5012940000000  0.6073930000000  0.4789760000000 1.0
C      1  0.5698420000000  0.5426520000000  0.4334950000000 1.0
C      1  0.6125350000000  0.5115840000000  0.4812510000000 1.0
C      1  0.5709730000000  0.5009290000000  0.4889310000000 1.0
C      1  0.4695000000000  0.5225600000000  0.5101750000000 1.0
C      1  0.4905980000000  0.5038140000000  0.5188010000000 1.0
C      1  0.4879170000000  0.5773420000000  0.5825600000000 1.0
C      1  0.4378180000000  0.4755570000000  0.5138420000000 1.0
C      1  0.5434890000000  0.4012070000000  0.4984510000000 1.0
C      1  0.5226270000000  0.5412480000000  0.5301340000000 1.0
C      1  0.4559560000000  0.5010490000000  0.4016870000000 1.0
C      1  0.3974770000000  0.4881070000000  0.4936840000000 1.0
C      1  0.5829850000000  0.4510650000000  0.5627000000000 1.0
C      1  0.5025970000000  0.4447320000000  0.6085290000000 1.0
C      1  0.4892500000000  0.4514260000000  0.4490340000000 1.0
C      1  0.5699370000000  0.5186650000000  0.5299600000000 1.0
C      1  0.6304720000000  0.5152960000000  0.5045820000000 1.0
C      1  0.4545460000000  0.5358860000000  0.5304750000000 1.0
C      1  0.5417860000000  0.5196900000000  0.5367880000000 1.0
C      1  0.3914270000000  0.5430840000000  0.5263530000000 1.0
C      1  0.4260580000000  0.4417630000000  0.5714770000000 1.0
C      1  0.5371910000000  0.5956010000000  0.5158450000000 1.0
C      1  0.4775160000000  0.6025180000000  0.4614910000000 1.0
C      1  0.3939820000000  0.4934070000000  0.5221690000000 1.0
C      1  0.5482350000000  0.4233280000000  0.5141960000000 1.0
C      1  0.5214450000000  0.5424760000000  0.4110600000000 1.0
C      1  0.4219760000000  0.4344660000000  0.4980930000000 1.0
C      1  0.5691120000000  0.5259500000000  0.5022600000000 1.0
C      1  0.5591830000000  0.5781320000000  0.5004940000000 1.0
C      1  0.4871430000000  0.5124640000000  0.5683490000000 1.0
C      1  0.5009740000000  0.5526780000000  0.4887070000000 1.0
C      1  0.5365990000000  0.5057490000000  0.4265670000000 1.0
C      1  0.4090300000000  0.4501410000000  0.4612820000000 1.0
C      1  0.5426780000000  0.4242140000000  0.5827750000000 1.0
C      1  0.5987310000000  0.4638180000000  0.5269170000000 1.0
C      1  0.4498430000000  0.5448750000000  0.4161810000000 1.0
C      1  0.5017360000000  0.4955980000000  0.4689820000000 1.0
END
