TITL C-884140-4336-453 0.52657915448029 125000 -25382.5239842451 0 0 169 (C1) n - 1
REM
REM in /home/nfs/bkarasulu/CARBON/AIRSS/Generating-Clusters/ReaxFF-fromJPCA2015/Units_Real/with-SteepDescent/Only-C1/SD-CG/Try1-3A/FIRE-CG
REM
REM
REM
REM
REM
REM ./C.cell (11c1c37f851c82e70ff6c80c92926a4b)
REM
REM compiler GCC version 9.2.1 20190827 (Red Hat 9.2.1-1)
REM options -cpp -mtune=generic -march=x86-64 -g -O0 -fpre-include=/usr/include/finclude/math-vector-fortran.h
REM seed 1782538377 559659570 1082366021 -310526526 -1768683361 432201041 453672466 1618229108 847644704 150114919 -1836742971 -1479929154 -370751915 -1675009464 -1562029251 1750398144 1995625260 344338869 -79593820 -684569862 1238266371 -1750475860 1186850990 -1993594981 514139918 -886762560 1512965144 234389340 1197450507 916503436 -2116684716 -320132372 146078811
REM
CELL 1.54180   50.00000   50.00000   50.00000   90.00000   90.00000   90.00000
LATT -1
SFAC C  
C      1  0.5645500000000  0.5223380000000  0.4708270000000 1.0
C      1  0.4979230000000  0.4761260000000  0.5113150000000 1.0
C      1  0.4457680000000  0.5148280000000  0.6015590000000 1.0
C      1  0.5359690000000  0.4913590000000  0.5045160000000 1.0
C      1  0.4236860000000  0.4512570000000  0.5419450000000 1.0
C      1  0.5915450000000  0.4686490000000  0.5636970000000 1.0
C      1  0.4567550000000  0.5464530000000  0.4697940000000 1.0
C      1  0.5568270000000  0.4335450000000  0.4998350000000 1.0
C      1  0.5862830000000  0.4571800000000  0.5140330000000 1.0
C      1  0.4413210000000  0.4369210000000  0.5625480000000 1.0
C      1  0.4961800000000  0.5064690000000  0.6054610000000 1.0
C      1  0.5789320000000  0.5773140000000  0.5012700000000 1.0
C      1  0.5041480000000  0.4778100000000  0.4364920000000 1.0
C      1  0.4114370000000  0.4776990000000  0.5468340000000 1.0
C      1  0.4308970000000  0.4331090000000  0.4611600000000 1.0
C      1  0.5242000000000  0.4670370000000  0.5143520000000 1.0
C      1  0.5392160000000  0.5167210000000  0.3969770000000 1.0
C      1  0.4195640000000  0.5307640000000  0.4414640000000 1.0
C      1  0.4453100000000  0.5407410000000  0.4952100000000 1.0
C      1  0.4876190000000  0.5436920000000  0.5518050000000 1.0
C      1  0.5258540000000  0.5846640000000  0.5613450000000 1.0
C      1  0.4596470000000  0.5818510000000  0.5241350000000 1.0
C      1  0.5551650000000  0.5940750000000  0.4926210000000 1.0
C      1  0.4834310000000  0.5295530000000  0.5027180000000 1.0
C      1  0.3940220000000  0.5073060000000  0.5040240000000 1.0
C      1  0.5844550000000  0.5442130000000  0.5413930000000 1.0
C      1  0.4319590000000  0.5834550000000  0.4695900000000 1.0
C      1  0.4602440000000  0.4782840000000  0.4565770000000 1.0
C      1  0.5080840000000  0.4119280000000  0.4534630000000 1.0
C      1  0.4512720000000  0.4184410000000  0.5484620000000 1.0
C      1  0.5066800000000  0.4770780000000  0.5535900000000 1.0
C      1  0.5401180000000  0.5511840000000  0.5131510000000 1.0
C      1  0.4414450000000  0.4675740000000  0.4992010000000 1.0
C      1  0.4658320000000  0.4448730000000  0.5031860000000 1.0
C      1  0.5848560000000  0.4956420000000  0.5569320000000 1.0
C      1  0.4233780000000  0.4583280000000  0.4478330000000 1.0
C      1  0.4822020000000  0.5815920000000  0.4874260000000 1.0
C      1  0.4599720000000  0.5191590000000  0.4113520000000 1.0
C      1  0.4973220000000  0.4258760000000  0.4275270000000 1.0
C      1  0.5091810000000  0.5227470000000  0.4547000000000 1.0
C      1  0.4362460000000  0.5062980000000  0.4260990000000 1.0
C      1  0.5551990000000  0.4913200000000  0.5500100000000 1.0
C      1  0.4560890000000  0.5173700000000  0.5037600000000 1.0
C      1  0.5798410000000  0.5654550000000  0.4745330000000 1.0
C      1  0.4937630000000  0.6048990000000  0.4707990000000 1.0
C      1  0.4005290000000  0.5664320000000  0.4944760000000 1.0
C      1  0.4185750000000  0.5832260000000  0.5441710000000 1.0
C      1  0.5306310000000  0.6015900000000  0.5088510000000 1.0
C      1  0.4756660000000  0.4975220000000  0.4012710000000 1.0
C      1  0.5315620000000  0.5100810000000  0.4437130000000 1.0
C      1  0.5655070000000  0.4360860000000  0.5594070000000 1.0
C      1  0.4647000000000  0.5513510000000  0.5957430000000 1.0
C      1  0.4577290000000  0.4806880000000  0.5620240000000 1.0
C      1  0.5156850000000  0.5524190000000  0.5979580000000 1.0
C      1  0.5522970000000  0.5761610000000  0.5695550000000 1.0
C      1  0.4695240000000  0.3996110000000  0.5390840000000 1.0
C      1  0.4929120000000  0.4838600000000  0.4849330000000 1.0
C      1  0.4490120000000  0.4028550000000  0.4917710000000 1.0
C      1  0.5018620000000  0.5553900000000  0.4120240000000 1.0
C      1  0.4820960000000  0.4571210000000  0.5241650000000 1.0
C      1  0.4343260000000  0.4725370000000  0.4253280000000 1.0
C      1  0.4800930000000  0.5749500000000  0.5883800000000 1.0
C      1  0.4286380000000  0.5438200000000  0.5397830000000 1.0
C      1  0.5197270000000  0.4696630000000  0.3824160000000 1.0
C      1  0.5478390000000  0.4072660000000  0.4966910000000 1.0
C      1  0.4301410000000  0.4258560000000  0.4906290000000 1.0
C      1  0.6111650000000  0.5174250000000  0.4880610000000 1.0
C      1  0.5024250000000  0.5020380000000  0.5383780000000 1.0
C      1  0.5768720000000  0.5593190000000  0.5651030000000 1.0
C      1  0.4258720000000  0.4965340000000  0.5935420000000 1.0
C      1  0.5717810000000  0.4537650000000  0.5824200000000 1.0
C      1  0.5310060000000  0.5678870000000  0.4470400000000 1.0
C      1  0.5858030000000  0.4487390000000  0.5422110000000 1.0
C      1  0.4551410000000  0.5083120000000  0.5544220000000 1.0
C      1  0.5798020000000  0.4876460000000  0.5072790000000 1.0
C      1  0.5881330000000  0.4819470000000  0.4538540000000 1.0
C      1  0.4303000000000  0.5223340000000  0.5576920000000 1.0
C      1  0.5450700000000  0.5254580000000  0.5877930000000 1.0
C      1  0.5196220000000  0.5255170000000  0.6042700000000 1.0
C      1  0.4995710000000  0.5107020000000  0.4806530000000 1.0
C      1  0.4159050000000  0.5604280000000  0.5556740000000 1.0
C      1  0.4016870000000  0.5254430000000  0.4604030000000 1.0
C      1  0.5581910000000  0.5520130000000  0.5861870000000 1.0
C      1  0.5417300000000  0.5139140000000  0.5611910000000 1.0
C      1  0.4920750000000  0.4596420000000  0.3766690000000 1.0
C      1  0.5182350000000  0.4967800000000  0.3932110000000 1.0
C      1  0.4955140000000  0.4781780000000  0.6034760000000 1.0
C      1  0.4871390000000  0.5879080000000  0.5297030000000 1.0
C      1  0.4710750000000  0.5239610000000  0.6066080000000 1.0
C      1  0.5082190000000  0.5502760000000  0.4582710000000 1.0
C      1  0.5682240000000  0.4907050000000  0.4756060000000 1.0
C      1  0.5681030000000  0.4284900000000  0.4524870000000 1.0
C      1  0.4371300000000  0.5565580000000  0.4499160000000 1.0
C      1  0.4671650000000  0.4389660000000  0.5821340000000 1.0
C      1  0.4921740000000  0.4249850000000  0.5755500000000 1.0
C      1  0.4248010000000  0.4460250000000  0.5122870000000 1.0
C      1  0.5473700000000  0.4615400000000  0.5943570000000 1.0
C      1  0.5921480000000  0.5329210000000  0.4693650000000 1.0
C      1  0.5159660000000  0.6056450000000  0.4870440000000 1.0
C      1  0.5367590000000  0.4002460000000  0.4481160000000 1.0
C      1  0.4546040000000  0.4563540000000  0.4131370000000 1.0
C      1  0.4620340000000  0.3992580000000  0.4658090000000 1.0
C      1  0.4331820000000  0.4781980000000  0.4683980000000 1.0
C      1  0.5354230000000  0.4345940000000  0.5545590000000 1.0
C      1  0.5278140000000  0.5424980000000  0.4080770000000 1.0
C      1  0.5109790000000  0.5788610000000  0.4272800000000 1.0
C      1  0.4458750000000  0.4747620000000  0.5884980000000 1.0
C      1  0.5453390000000  0.5498890000000  0.4295810000000 1.0
C      1  0.5238880000000  0.4315600000000  0.4165400000000 1.0
C      1  0.4799390000000  0.5183730000000  0.5470570000000 1.0
C      1  0.5138570000000  0.5491080000000  0.5346140000000 1.0
C      1  0.4707650000000  0.5862800000000  0.4297330000000 1.0
C      1  0.4704450000000  0.3943070000000  0.5101210000000 1.0
C      1  0.5519740000000  0.4673150000000  0.4224720000000 1.0
C      1  0.4710070000000  0.5585110000000  0.5689260000000 1.0
C      1  0.4450060000000  0.5012980000000  0.4538180000000 1.0
C      1  0.4804770000000  0.4654370000000  0.5517720000000 1.0
C      1  0.4561560000000  0.5917260000000  0.4800320000000 1.0
C      1  0.4322270000000  0.5945220000000  0.5222930000000 1.0
C      1  0.5562800000000  0.4049650000000  0.4688390000000 1.0
C      1  0.5966960000000  0.5169150000000  0.5403470000000 1.0
C      1  0.3819600000000  0.5195570000000  0.4812850000000 1.0
C      1  0.4136380000000  0.4990510000000  0.5663140000000 1.0
C      1  0.5313930000000  0.4648820000000  0.5443440000000 1.0
C      1  0.4873580000000  0.4720960000000  0.4595210000000 1.0
C      1  0.5323720000000  0.4803300000000  0.4454780000000 1.0
C      1  0.5359330000000  0.4541010000000  0.4019990000000 1.0
C      1  0.5228070000000  0.4013820000000  0.5109030000000 1.0
C      1  0.5751960000000  0.4845570000000  0.4235070000000 1.0
C      1  0.3855100000000  0.5456510000000  0.4933360000000 1.0
C      1  0.5094370000000  0.5771460000000  0.5863050000000 1.0
C      1  0.5204010000000  0.4597170000000  0.5985480000000 1.0
C      1  0.5621040000000  0.5040340000000  0.4086580000000 1.0
C      1  0.5148890000000  0.5927660000000  0.5350380000000 1.0
C      1  0.5824380000000  0.4413970000000  0.4900350000000 1.0
C      1  0.4177400000000  0.5879330000000  0.4950170000000 1.0
C      1  0.5106490000000  0.4348050000000  0.4762720000000 1.0
C      1  0.4998460000000  0.4940060000000  0.4138070000000 1.0
C      1  0.5559720000000  0.4988940000000  0.5225500000000 1.0
C      1  0.4706670000000  0.4624440000000  0.5992730000000 1.0
C      1  0.4956820000000  0.4074980000000  0.5516930000000 1.0
C      1  0.4414040000000  0.4942290000000  0.5122410000000 1.0
C      1  0.4126600000000  0.4951820000000  0.5209390000000 1.0
C      1  0.4693930000000  0.4333040000000  0.4267180000000 1.0
C      1  0.5421060000000  0.5348700000000  0.4905820000000 1.0
C      1  0.5255570000000  0.5205320000000  0.5388210000000 1.0
C      1  0.5182930000000  0.4360520000000  0.5807140000000 1.0
C      1  0.4684310000000  0.4705860000000  0.3908780000000 1.0
C      1  0.5840040000000  0.4501780000000  0.4623890000000 1.0
C      1  0.6047980000000  0.5061450000000  0.4623160000000 1.0
C      1  0.5679360000000  0.5574150000000  0.5205130000000 1.0
C      1  0.4969510000000  0.3919000000000  0.4978790000000 1.0
C      1  0.5544160000000  0.5265710000000  0.4432660000000 1.0
C      1  0.4836660000000  0.5574300000000  0.4704980000000 1.0
C      1  0.4977590000000  0.5534990000000  0.5096360000000 1.0
C      1  0.5477740000000  0.4201320000000  0.4305940000000 1.0
C      1  0.5200230000000  0.4114650000000  0.5375890000000 1.0
C      1  0.5434940000000  0.4747590000000  0.4733990000000 1.0
C      1  0.5561070000000  0.5790600000000  0.4669120000000 1.0
C      1  0.4882330000000  0.4388370000000  0.4882380000000 1.0
C      1  0.4901950000000  0.3933720000000  0.4698960000000 1.0
C      1  0.6028450000000  0.5064830000000  0.5137360000000 1.0
C      1  0.4538580000000  0.5647720000000  0.4250370000000 1.0
C      1  0.5237060000000  0.5132950000000  0.4942800000000 1.0
C      1  0.4731140000000  0.5451650000000  0.4141240000000 1.0
C      1  0.4460090000000  0.5559170000000  0.5191160000000 1.0
C      1  0.5356760000000  0.4493080000000  0.4881390000000 1.0
C      1  0.4525950000000  0.4200070000000  0.4470600000000 1.0
C      1  0.4934330000000  0.5986480000000  0.4398460000000 1.0
END
