TITL C-883733-4178-426 -0.829662994215725 125000 -14507.9937476006 0 0 97 (C1) n - 1
REM
REM in /home/nfs/bkarasulu/CARBON/AIRSS/Generating-Clusters/ReaxFF-fromJPCA2015/Units_Real/with-SteepDescent/Only-C1/SD-CG/Try1-3A/FIRE-CG
REM
REM
REM
REM
REM
REM ./C.cell (11c1c37f851c82e70ff6c80c92926a4b)
REM
REM compiler GCC version 9.2.1 20190827 (Red Hat 9.2.1-1)
REM options -cpp -mtune=generic -march=x86-64 -g -O0 -fpre-include=/usr/include/finclude/math-vector-fortran.h
REM seed -1878230832 2051871760 -259711273 -1370987500 -24877298 -954398510 -2050976393 670499750 -950226243 -1961734865 -1499452253 -1943137452 -189809205 -2070591568 1582548334 -31432498 516449441 -1118816857 -109469020 566376027 444881890 -21389446 -1331747656 1960718779 1324153995 -486289152 -2112960290 2052904095 334952624 14918130 1223637936 624326655 -1457636261
REM
CELL 1.54180   50.00000   50.00000   50.00000   90.00000   90.00000   90.00000
LATT -1
SFAC C  
C      1  0.4550470000000  0.5503240000000  0.5143770000000 1.0
C      1  0.5338960000000  0.4367570000000  0.4629480000000 1.0
C      1  0.5362400000000  0.4784980000000  0.5739180000000 1.0
C      1  0.5558370000000  0.4520020000000  0.5100590000000 1.0
C      1  0.5195340000000  0.4156810000000  0.4767060000000 1.0
C      1  0.5113720000000  0.4876200000000  0.5859780000000 1.0
C      1  0.4513770000000  0.4620780000000  0.5819780000000 1.0
C      1  0.4843260000000  0.5691440000000  0.5379170000000 1.0
C      1  0.5443240000000  0.5794050000000  0.4721060000000 1.0
C      1  0.5131840000000  0.4939730000000  0.4136180000000 1.0
C      1  0.4699280000000  0.5228430000000  0.4177810000000 1.0
C      1  0.4875140000000  0.4127390000000  0.5344890000000 1.0
C      1  0.4644970000000  0.4848160000000  0.5961280000000 1.0
C      1  0.5768420000000  0.4734540000000  0.5143000000000 1.0
C      1  0.5253300000000  0.5758240000000  0.5462960000000 1.0
C      1  0.5041330000000  0.5085530000000  0.5341750000000 1.0
C      1  0.4881080000000  0.4415390000000  0.4456890000000 1.0
C      1  0.5539520000000  0.4496880000000  0.4803680000000 1.0
C      1  0.5577070000000  0.5243460000000  0.5682790000000 1.0
C      1  0.4235780000000  0.4985130000000  0.4636700000000 1.0
C      1  0.5252560000000  0.5183690000000  0.4104650000000 1.0
C      1  0.4482890000000  0.5175280000000  0.5590220000000 1.0
C      1  0.4812010000000  0.5158930000000  0.4692900000000 1.0
C      1  0.5564630000000  0.5388620000000  0.4373730000000 1.0
C      1  0.5350640000000  0.4918490000000  0.4967280000000 1.0
C      1  0.4783390000000  0.4264580000000  0.4897710000000 1.0
C      1  0.5276300000000  0.4747930000000  0.4320750000000 1.0
C      1  0.4644570000000  0.4830160000000  0.4301600000000 1.0
C      1  0.5270140000000  0.5375830000000  0.4887220000000 1.0
C      1  0.4618660000000  0.4564890000000  0.4411340000000 1.0
C      1  0.4654620000000  0.4519130000000  0.4843110000000 1.0
C      1  0.4440720000000  0.5619810000000  0.4508280000000 1.0
C      1  0.5611760000000  0.5610450000000  0.5109580000000 1.0
C      1  0.4222800000000  0.5229030000000  0.5093910000000 1.0
C      1  0.5282750000000  0.4932870000000  0.5240010000000 1.0
C      1  0.4378620000000  0.4570970000000  0.5176770000000 1.0
C      1  0.5473610000000  0.5138960000000  0.4816060000000 1.0
C      1  0.5808420000000  0.4878240000000  0.4881570000000 1.0
C      1  0.4900570000000  0.4336570000000  0.5568590000000 1.0
C      1  0.4281680000000  0.5480830000000  0.4674610000000 1.0
C      1  0.4301860000000  0.5464800000000  0.4980700000000 1.0
C      1  0.5534680000000  0.5469680000000  0.5790170000000 1.0
C      1  0.5066170000000  0.5276720000000  0.5565870000000 1.0
C      1  0.4361190000000  0.4532680000000  0.4564450000000 1.0
C      1  0.4612440000000  0.5279630000000  0.5340810000000 1.0
C      1  0.4302380000000  0.5220770000000  0.4525210000000 1.0
C      1  0.4605000000000  0.5688280000000  0.4322660000000 1.0
C      1  0.4166340000000  0.4988990000000  0.5222590000000 1.0
C      1  0.4670800000000  0.4142230000000  0.5139590000000 1.0
C      1  0.5787170000000  0.5169250000000  0.4885970000000 1.0
C      1  0.5117400000000  0.4759650000000  0.4902440000000 1.0
C      1  0.4943540000000  0.5677550000000  0.4131110000000 1.0
C      1  0.4280240000000  0.4979590000000  0.5505320000000 1.0
C      1  0.4201170000000  0.4734400000000  0.4734150000000 1.0
C      1  0.4736460000000  0.5736520000000  0.5127870000000 1.0
C      1  0.5524770000000  0.5133830000000  0.4508000000000 1.0
C      1  0.4757460000000  0.5034960000000  0.5291080000000 1.0
C      1  0.5147300000000  0.5818230000000  0.4739950000000 1.0
C      1  0.4392290000000  0.4362630000000  0.4793170000000 1.0
C      1  0.5036910000000  0.5579660000000  0.5552020000000 1.0
C      1  0.4964750000000  0.5123960000000  0.5791530000000 1.0
C      1  0.4727130000000  0.4761470000000  0.4783690000000 1.0
C      1  0.5477250000000  0.5850020000000  0.5008110000000 1.0
C      1  0.5158930000000  0.4510220000000  0.4433920000000 1.0
C      1  0.4396370000000  0.4721050000000  0.5565680000000 1.0
C      1  0.4990790000000  0.4650000000000  0.5133940000000 1.0
C      1  0.5010910000000  0.5830800000000  0.5011900000000 1.0
C      1  0.5384810000000  0.5434120000000  0.5149460000000 1.0
C      1  0.5355050000000  0.4552560000000  0.5560060000000 1.0
C      1  0.5595630000000  0.5465530000000  0.5341320000000 1.0
C      1  0.4418510000000  0.4295590000000  0.5085300000000 1.0
C      1  0.5509980000000  0.5637360000000  0.5564130000000 1.0
C      1  0.5291020000000  0.4237960000000  0.5024990000000 1.0
C      1  0.4917130000000  0.4899400000000  0.4744000000000 1.0
C      1  0.5239670000000  0.5865310000000  0.5188810000000 1.0
C      1  0.5023530000000  0.5305770000000  0.4785060000000 1.0
C      1  0.4919580000000  0.4201360000000  0.4651240000000 1.0
C      1  0.4203100000000  0.4748600000000  0.5044480000000 1.0
C      1  0.5180550000000  0.5589730000000  0.4106700000000 1.0
C      1  0.4597260000000  0.5129320000000  0.4435390000000 1.0
C      1  0.4854150000000  0.4579600000000  0.5343990000000 1.0
C      1  0.5779560000000  0.5397710000000  0.4726360000000 1.0
C      1  0.5405220000000  0.5417870000000  0.4109540000000 1.0
C      1  0.4902960000000  0.4694340000000  0.5961970000000 1.0
C      1  0.5200560000000  0.4305720000000  0.5541370000000 1.0
C      1  0.5375470000000  0.4667210000000  0.5288930000000 1.0
C      1  0.5166640000000  0.4172870000000  0.5276620000000 1.0
C      1  0.5665760000000  0.4728740000000  0.4676040000000 1.0
C      1  0.4671860000000  0.5095360000000  0.5807000000000 1.0
C      1  0.5740730000000  0.4864410000000  0.5401350000000 1.0
C      1  0.5523520000000  0.4849550000000  0.4444540000000 1.0
C      1  0.4605620000000  0.4747780000000  0.5344350000000 1.0
C      1  0.4708740000000  0.5526660000000  0.4120420000000 1.0
C      1  0.4768360000000  0.4475800000000  0.5820380000000 1.0
C      1  0.4822830000000  0.4968470000000  0.4118740000000 1.0
C      1  0.5631940000000  0.5589430000000  0.4578480000000 1.0
C      1  0.5589930000000  0.4955070000000  0.5639410000000 1.0
END
