TITL C-884135-4325-350 0.360193556418465 125000 -6458.39953161515 0 0 45 (C1) n - 1
REM
REM in /home/nfs/bkarasulu/CARBON/AIRSS/Generating-Clusters/ReaxFF-fromJPCA2015/Units_Real/with-SteepDescent/Only-C1/SD-CG/Try1-3A/FIRE-CG
REM
REM
REM
REM
REM
REM ./C.cell (11c1c37f851c82e70ff6c80c92926a4b)
REM
REM compiler GCC version 9.2.1 20190827 (Red Hat 9.2.1-1)
REM options -cpp -mtune=generic -march=x86-64 -g -O0 -fpre-include=/usr/include/finclude/math-vector-fortran.h
REM seed -1757854940 -2084236688 -898380266 951009933 -964353829 -49692728 1531021120 -2048633962 1827124838 -431178748 -1340037723 1573832500 -165476073 1843870320 -1688480539 1697022297 -65644535 -151834221 -1871869058 1679490064 -1751149696 154598584 -14586953 1800555126 -1421972810 732418351 -491120897 -141648013 -1984535144 1850979180 -1343114722 1559925174 1517738623
REM
CELL 1.54180   50.00000   50.00000   50.00000   90.00000   90.00000   90.00000
LATT -1
SFAC C  
C      1  0.5352470000000  0.5427630000000  0.4758950000000 1.0
C      1  0.4765550000000  0.5538490000000  0.4949150000000 1.0
C      1  0.4758660000000  0.4841160000000  0.4526890000000 1.0
C      1  0.4734300000000  0.5239740000000  0.5613000000000 1.0
C      1  0.5162600000000  0.4974170000000  0.4297880000000 1.0
C      1  0.5436030000000  0.4750260000000  0.5238240000000 1.0
C      1  0.5056830000000  0.4526640000000  0.4805440000000 1.0
C      1  0.4578900000000  0.5276450000000  0.4623330000000 1.0
C      1  0.4343320000000  0.5292350000000  0.5090440000000 1.0
C      1  0.5725860000000  0.4681980000000  0.5274700000000 1.0
C      1  0.4658470000000  0.5082230000000  0.4437300000000 1.0
C      1  0.5141460000000  0.4995200000000  0.5566460000000 1.0
C      1  0.4489360000000  0.4650010000000  0.4988590000000 1.0
C      1  0.5404290000000  0.4822640000000  0.4410220000000 1.0
C      1  0.4721420000000  0.5535660000000  0.4676410000000 1.0
C      1  0.5210500000000  0.4953940000000  0.4573700000000 1.0
C      1  0.5248790000000  0.5590350000000  0.4603740000000 1.0
C      1  0.4339230000000  0.5257740000000  0.5372140000000 1.0
C      1  0.5791970000000  0.4910810000000  0.5127410000000 1.0
C      1  0.5022770000000  0.5270480000000  0.5564660000000 1.0
C      1  0.5500110000000  0.4486820000000  0.5261600000000 1.0
C      1  0.5330900000000  0.4452430000000  0.4786770000000 1.0
C      1  0.5407800000000  0.5247400000000  0.4943250000000 1.0
C      1  0.4916190000000  0.4927210000000  0.5014660000000 1.0
C      1  0.5001920000000  0.5603190000000  0.4610820000000 1.0
C      1  0.4677740000000  0.4949620000000  0.5588310000000 1.0
C      1  0.4987920000000  0.4798590000000  0.4734320000000 1.0
C      1  0.4457920000000  0.4870010000000  0.5407280000000 1.0
C      1  0.5048890000000  0.4469060000000  0.5083590000000 1.0
C      1  0.4468530000000  0.5157130000000  0.4861740000000 1.0
C      1  0.4900300000000  0.4691730000000  0.5235110000000 1.0
C      1  0.5047180000000  0.5370960000000  0.5295110000000 1.0
C      1  0.4637740000000  0.4915180000000  0.4915390000000 1.0
C      1  0.5326890000000  0.4393510000000  0.5073420000000 1.0
C      1  0.4922990000000  0.4808880000000  0.5518690000000 1.0
C      1  0.4792330000000  0.5506310000000  0.5222570000000 1.0
C      1  0.5311160000000  0.4996320000000  0.5332050000000 1.0
C      1  0.5670450000000  0.5073740000000  0.4924050000000 1.0
C      1  0.5506320000000  0.4637330000000  0.4624560000000 1.0
C      1  0.5166880000000  0.5156050000000  0.5118330000000 1.0
C      1  0.4583770000000  0.5389280000000  0.5418200000000 1.0
C      1  0.5639260000000  0.4844750000000  0.4757700000000 1.0
C      1  0.4871950000000  0.4961690000000  0.4290670000000 1.0
C      1  0.4295730000000  0.5028150000000  0.5219180000000 1.0
C      1  0.4586370000000  0.4646700000000  0.5263990000000 1.0
END
