TITL C-883732-77-3 -98275.1949140986 125000 -6650.25188716156 0 0 46 (C1) n - 1
REM
REM in /home/nfs/bkarasulu/CARBON/AIRSS/Generating-Clusters/ReaxFF-fromJPCA2015/Units_Real/with-SteepDescent/Only-C1/SD-CG/Try1-3A/FIRE-CG
REM
REM
REM
REM
REM
REM ./C.cell (11c1c37f851c82e70ff6c80c92926a4b)
REM
REM compiler GCC version 9.2.1 20190827 (Red Hat 9.2.1-1)
REM options -cpp -mtune=generic -march=x86-64 -g -O0 -fpre-include=/usr/include/finclude/math-vector-fortran.h
REM seed 2004583596 -794636952 -1009812192 1248700271 -1572429070 -1091014460 -1837671639 1005635549 -152376249 1124856949 -811604301 -841972899 132913077 1092306253 679049043 131496181 1421367045 -1180431738 -2118140399 201002668 1357431942 -1953525400 -1358438425 -114295928 217429867 -631395192 -1953944049 -1858121779 -1638142796 1200026667 1379574630 623208593 -1961809014
REM
CELL 1.54180   50.00000   50.00000   50.00000   90.00000   90.00000   90.00000
LATT -1
SFAC C  
C      1  0.5460200000000  0.5351030000000  0.4872330000000 1.0
C      1  0.5681390000000  0.5031150000000  0.5120860000000 1.0
C      1  0.4542890000000  0.5420570000000  0.5168120000000 1.0
C      1  0.5003530000000  0.5057810000000  0.4311200000000 1.0
C      1  0.4686520000000  0.4464950000000  0.5399700000000 1.0
C      1  0.4789290000000  0.5581980000000  0.5055360000000 1.0
C      1  0.4633390000000  0.4790420000000  0.4565630000000 1.0
C      1  0.5457580000000  0.4927140000000  0.4514810000000 1.0
C      1  0.4887390000000  0.4496280000000  0.4695230000000 1.0
C      1  0.5235480000000  0.5577120000000  0.5369250000000 1.0
C      1  0.5252950000000  0.5056160000000  0.5353990000000 1.0
C      1  0.4960560000000  0.4380050000000  0.5414230000000 1.0
C      1  0.5742050000000  0.4978460000000  0.4830030000000 1.0
C      1  0.4888000000000  0.5276790000000  0.4454010000000 1.0
C      1  0.5312070000000  0.5323290000000  0.5487490000000 1.0
C      1  0.5196180000000  0.4577800000000  0.5435040000000 1.0
C      1  0.4402170000000  0.5304940000000  0.4678500000000 1.0
C      1  0.4342050000000  0.4749230000000  0.5176620000000 1.0
C      1  0.5168160000000  0.5376380000000  0.4942850000000 1.0
C      1  0.4708390000000  0.4740450000000  0.4839900000000 1.0
C      1  0.4318920000000  0.5073980000000  0.4830700000000 1.0
C      1  0.4855430000000  0.4924970000000  0.5566340000000 1.0
C      1  0.5095310000000  0.4572150000000  0.4512140000000 1.0
C      1  0.4841430000000  0.5527020000000  0.4783610000000 1.0
C      1  0.4557810000000  0.5229480000000  0.5358950000000 1.0
C      1  0.5329370000000  0.4547380000000  0.4954160000000 1.0
C      1  0.5187580000000  0.4844220000000  0.4429670000000 1.0
C      1  0.4961210000000  0.4937010000000  0.4929670000000 1.0
C      1  0.5495910000000  0.4876480000000  0.5277360000000 1.0
C      1  0.4434340000000  0.4573730000000  0.5382330000000 1.0
C      1  0.4676560000000  0.5417470000000  0.4575580000000 1.0
C      1  0.5670230000000  0.4748020000000  0.4644480000000 1.0
C      1  0.5190920000000  0.4787380000000  0.4933560000000 1.0
C      1  0.5069340000000  0.5141780000000  0.5099480000000 1.0
C      1  0.5156120000000  0.4404010000000  0.4758620000000 1.0
C      1  0.5620210000000  0.5322070000000  0.5114560000000 1.0
C      1  0.4588880000000  0.5030580000000  0.5561180000000 1.0
C      1  0.5075030000000  0.5599550000000  0.5124250000000 1.0
C      1  0.5513580000000  0.5471460000000  0.5346480000000 1.0
C      1  0.4378190000000  0.4860390000000  0.5429230000000 1.0
C      1  0.4340060000000  0.5340100000000  0.4956120000000 1.0
C      1  0.5413990000000  0.4597090000000  0.5244170000000 1.0
C      1  0.5107750000000  0.4840870000000  0.5544120000000 1.0
C      1  0.5563080000000  0.5159380000000  0.4678980000000 1.0
C      1  0.4774380000000  0.4895220000000  0.4356920000000 1.0
C      1  0.4434150000000  0.4816220000000  0.4922190000000 1.0
END
