TITL C-884130-5973-226 5.39041838281024 125000 -15288.433946638 0 0 103 (C1) n - 1
REM
REM in /home/nfs/bkarasulu/CARBON/AIRSS/Generating-Clusters/ReaxFF-fromJPCA2015/Units_Real/with-SteepDescent/Only-C1/SD-CG/Try1-3A/FIRE-CG
REM
REM
REM
REM
REM
REM ./C.cell (11c1c37f851c82e70ff6c80c92926a4b)
REM
REM compiler GCC version 9.2.1 20190827 (Red Hat 9.2.1-1)
REM options -cpp -mtune=generic -march=x86-64 -g -O0 -fpre-include=/usr/include/finclude/math-vector-fortran.h
REM seed -888683340 -1731630327 573189515 416078767 1704225118 389057710 124758826 1431533290 1532336926 -1601685726 -433643221 2024448412 919911950 186944063 42487442 1266757 -1913965292 -603150839 -65917758 188104367 -389475241 -1013064307 -1575735214 -296542223 788745224 -225041119 -867564737 -1231889334 -619020879 1306817965 -774632592 -1218121732 -749617688
REM
CELL 1.54180   50.00000   50.00000   50.00000   90.00000   90.00000   90.00000
LATT -1
SFAC C  
C      1  0.4773730000000  0.5890630000000  0.5046420000000 1.0
C      1  0.4282580000000  0.5211400000000  0.5502420000000 1.0
C      1  0.4727930000000  0.5044740000000  0.4099710000000 1.0
C      1  0.5008160000000  0.4862520000000  0.5862660000000 1.0
C      1  0.5863460000000  0.5256810000000  0.5314190000000 1.0
C      1  0.4743230000000  0.4686310000000  0.4604860000000 1.0
C      1  0.5438660000000  0.5012280000000  0.4817550000000 1.0
C      1  0.5877020000000  0.5270550000000  0.4805880000000 1.0
C      1  0.5798580000000  0.4727550000000  0.4822710000000 1.0
C      1  0.5427050000000  0.4930400000000  0.5825780000000 1.0
C      1  0.4642210000000  0.4440040000000  0.4489820000000 1.0
C      1  0.5201360000000  0.5358940000000  0.5688070000000 1.0
C      1  0.4983160000000  0.5488300000000  0.4294700000000 1.0
C      1  0.5596500000000  0.4643140000000  0.4624740000000 1.0
C      1  0.5804260000000  0.5400130000000  0.5067260000000 1.0
C      1  0.5464400000000  0.4355730000000  0.4933400000000 1.0
C      1  0.5281540000000  0.5005760000000  0.5208750000000 1.0
C      1  0.5481670000000  0.5775440000000  0.4641730000000 1.0
C      1  0.5788130000000  0.5395870000000  0.4544070000000 1.0
C      1  0.4823890000000  0.5049940000000  0.5370390000000 1.0
C      1  0.4543060000000  0.4757540000000  0.4796590000000 1.0
C      1  0.5254650000000  0.4689130000000  0.5845330000000 1.0
C      1  0.5692900000000  0.4564680000000  0.5358990000000 1.0
C      1  0.4680280000000  0.5719490000000  0.4797490000000 1.0
C      1  0.5497730000000  0.4885340000000  0.5073800000000 1.0
C      1  0.5057530000000  0.4868730000000  0.5321030000000 1.0
C      1  0.4361130000000  0.4300390000000  0.5419290000000 1.0
C      1  0.5172350000000  0.5586650000000  0.4498140000000 1.0
C      1  0.5238260000000  0.4670690000000  0.4198450000000 1.0
C      1  0.5513830000000  0.4385650000000  0.5500300000000 1.0
C      1  0.5138780000000  0.5750900000000  0.5223540000000 1.0
C      1  0.5626380000000  0.4587640000000  0.5070990000000 1.0
C      1  0.5663830000000  0.5261340000000  0.5533650000000 1.0
C      1  0.5434430000000  0.5442950000000  0.5531540000000 1.0
C      1  0.5155610000000  0.5455750000000  0.4893870000000 1.0
C      1  0.4999420000000  0.4612850000000  0.5170970000000 1.0
C      1  0.5739280000000  0.5705330000000  0.4535240000000 1.0
C      1  0.5264530000000  0.4209620000000  0.5078950000000 1.0
C      1  0.4882790000000  0.5462200000000  0.4866760000000 1.0
C      1  0.4964070000000  0.4964000000000  0.4106570000000 1.0
C      1  0.4640730000000  0.4405420000000  0.5438140000000 1.0
C      1  0.5089240000000  0.4697370000000  0.4940160000000 1.0
C      1  0.4185260000000  0.4606990000000  0.5069410000000 1.0
C      1  0.4771980000000  0.5196000000000  0.4878140000000 1.0
C      1  0.5361100000000  0.4803090000000  0.4642010000000 1.0
C      1  0.4412200000000  0.5583610000000  0.4828790000000 1.0
C      1  0.4723350000000  0.4585980000000  0.5214780000000 1.0
C      1  0.5653220000000  0.4997150000000  0.5650500000000 1.0
C      1  0.5031080000000  0.4773010000000  0.4707180000000 1.0
C      1  0.4406030000000  0.4391200000000  0.4673850000000 1.0
C      1  0.4738780000000  0.4807380000000  0.5802020000000 1.0
C      1  0.4494930000000  0.5477740000000  0.4349370000000 1.0
C      1  0.5331710000000  0.4195650000000  0.5361710000000 1.0
C      1  0.5297370000000  0.4440820000000  0.5701560000000 1.0
C      1  0.4983780000000  0.4237990000000  0.5024840000000 1.0
C      1  0.5387440000000  0.5636680000000  0.4873620000000 1.0
C      1  0.4420870000000  0.5542670000000  0.5114230000000 1.0
C      1  0.5528140000000  0.4364130000000  0.4664730000000 1.0
C      1  0.4647380000000  0.5706550000000  0.5234470000000 1.0
C      1  0.5080910000000  0.5831030000000  0.4659180000000 1.0
C      1  0.4759880000000  0.5249160000000  0.5577410000000 1.0
C      1  0.4723830000000  0.4117190000000  0.4967950000000 1.0
C      1  0.4853670000000  0.4072830000000  0.5218570000000 1.0
C      1  0.4490880000000  0.5289030000000  0.5703020000000 1.0
C      1  0.5159860000000  0.4394710000000  0.4321890000000 1.0
C      1  0.5053920000000  0.5870860000000  0.4968140000000 1.0
C      1  0.4284190000000  0.4917800000000  0.5498280000000 1.0
C      1  0.5402290000000  0.5216460000000  0.4221960000000 1.0
C      1  0.4902900000000  0.4340170000000  0.4433800000000 1.0
C      1  0.4151350000000  0.5100700000000  0.5088460000000 1.0
C      1  0.5278550000000  0.4311900000000  0.4565710000000 1.0
C      1  0.4601010000000  0.4794830000000  0.5064060000000 1.0
C      1  0.4462480000000  0.4237390000000  0.4908970000000 1.0
C      1  0.5198530000000  0.5107460000000  0.5837900000000 1.0
C      1  0.5814500000000  0.4804900000000  0.5488260000000 1.0
C      1  0.4178990000000  0.4842240000000  0.5239740000000 1.0
C      1  0.4260690000000  0.5125660000000  0.4829890000000 1.0
C      1  0.4497470000000  0.5239340000000  0.4138980000000 1.0
C      1  0.4123070000000  0.4938490000000  0.4706980000000 1.0
C      1  0.4259660000000  0.5327910000000  0.5235040000000 1.0
C      1  0.5585400000000  0.5590520000000  0.5090580000000 1.0
C      1  0.4336520000000  0.5436710000000  0.4583290000000 1.0
C      1  0.4846360000000  0.4198190000000  0.5482390000000 1.0
C      1  0.4331390000000  0.5038600000000  0.4086480000000 1.0
C      1  0.4945990000000  0.5472310000000  0.5602390000000 1.0
C      1  0.5243880000000  0.4941880000000  0.4131170000000 1.0
C      1  0.4262140000000  0.4652600000000  0.4775930000000 1.0
C      1  0.4813990000000  0.5828270000000  0.4548260000000 1.0
C      1  0.4735150000000  0.5642060000000  0.4336350000000 1.0
C      1  0.4170000000000  0.5191730000000  0.4578470000000 1.0
C      1  0.5994690000000  0.4984910000000  0.5332110000000 1.0
C      1  0.4899980000000  0.5659320000000  0.5379190000000 1.0
C      1  0.5267470000000  0.5478110000000  0.4230900000000 1.0
C      1  0.4998940000000  0.5053070000000  0.4769030000000 1.0
C      1  0.5122680000000  0.4238990000000  0.5566750000000 1.0
C      1  0.5851100000000  0.4995260000000  0.4813440000000 1.0
C      1  0.5602430000000  0.5277920000000  0.4381350000000 1.0
C      1  0.4458330000000  0.4805610000000  0.5737250000000 1.0
C      1  0.4672590000000  0.5054500000000  0.5121440000000 1.0
C      1  0.5398340000000  0.5626460000000  0.5308220000000 1.0
C      1  0.4430020000000  0.5060110000000  0.5861580000000 1.0
C      1  0.5219560000000  0.5163330000000  0.4921940000000 1.0
C      1  0.4281470000000  0.4342700000000  0.5131170000000 1.0
END
