TITL C-883733-4178-36 11276421.4715696 125000 -26949.7716928784 0 0 184 (C1) n - 1
REM
REM in /home/nfs/bkarasulu/CARBON/AIRSS/Generating-Clusters/ReaxFF-fromJPCA2015/Units_Real/with-SteepDescent/Only-C1/SD-CG/Try1-3A/FIRE-CG
REM
REM
REM
REM
REM
REM ./C.cell (11c1c37f851c82e70ff6c80c92926a4b)
REM
REM compiler GCC version 9.2.1 20190827 (Red Hat 9.2.1-1)
REM options -cpp -mtune=generic -march=x86-64 -g -O0 -fpre-include=/usr/include/finclude/math-vector-fortran.h
REM seed 1401456127 -2060259802 1044665302 -482032958 -1781135170 1173201720 194054679 858712183 -705485896 -1738466062 -273036407 -208055716 -1945174111 1623138540 -1346117221 1318694135 56579267 -1716318811 835405068 -1983134829 1345589279 -1466895310 286291040 -1608653508 -229808874 -875854041 668886185 -142889202 738774064 -33340168 84624170 -890206120 161718599
REM
CELL 1.54180   50.00000   50.00000   50.00000   90.00000   90.00000   90.00000
LATT -1
SFAC C  
C      1  0.4614330000000  0.4321450000000  0.5743950000000 1.0
C      1  0.5095620000000  0.5695040000000  0.5805780000000 1.0
C      1  0.5579900000000  0.5726460000000  0.4248810000000 1.0
C      1  0.5320620000000  0.5484890000000  0.4090500000000 1.0
C      1  0.4992270000000  0.5195460000000  0.4528950000000 1.0
C      1  0.4441550000000  0.5510450000000  0.5395510000000 1.0
C      1  0.5515550000000  0.5606090000000  0.5902020000000 1.0
C      1  0.5530560000000  0.5580640000000  0.4854260000000 1.0
C      1  0.5183530000000  0.4725430000000  0.3920860000000 1.0
C      1  0.5603250000000  0.4785000000000  0.5849890000000 1.0
C      1  0.4771110000000  0.5425700000000  0.3960340000000 1.0
C      1  0.4105920000000  0.5195570000000  0.5475220000000 1.0
C      1  0.5187820000000  0.5058580000000  0.6143120000000 1.0
C      1  0.4435820000000  0.5037630000000  0.5861160000000 1.0
C      1  0.4507970000000  0.4995250000000  0.4309690000000 1.0
C      1  0.5089320000000  0.3860510000000  0.4544150000000 1.0
C      1  0.4236880000000  0.4229490000000  0.4674240000000 1.0
C      1  0.5059160000000  0.4666780000000  0.6136020000000 1.0
C      1  0.4699500000000  0.4504850000000  0.4001190000000 1.0
C      1  0.4691840000000  0.5995280000000  0.5429610000000 1.0
C      1  0.5266110000000  0.4683580000000  0.5924910000000 1.0
C      1  0.5481050000000  0.4274230000000  0.4421030000000 1.0
C      1  0.5109970000000  0.3978000000000  0.5450920000000 1.0
C      1  0.5006570000000  0.5244230000000  0.5622010000000 1.0
C      1  0.4060750000000  0.4450010000000  0.4564600000000 1.0
C      1  0.5603400000000  0.5372870000000  0.5197540000000 1.0
C      1  0.5824510000000  0.5290210000000  0.4664520000000 1.0
C      1  0.5157080000000  0.5990130000000  0.5138790000000 1.0
C      1  0.5633620000000  0.4579870000000  0.5073390000000 1.0
C      1  0.5327700000000  0.4638710000000  0.5017360000000 1.0
C      1  0.4933170000000  0.4161550000000  0.5552650000000 1.0
C      1  0.4676040000000  0.4873670000000  0.3809190000000 1.0
C      1  0.5625110000000  0.5658880000000  0.5645620000000 1.0
C      1  0.4667210000000  0.4917400000000  0.5058560000000 1.0
C      1  0.4816420000000  0.5634920000000  0.5001840000000 1.0
C      1  0.5823970000000  0.5790740000000  0.5226020000000 1.0
C      1  0.4342700000000  0.4784640000000  0.4202400000000 1.0
C      1  0.4848890000000  0.5251340000000  0.6035370000000 1.0
C      1  0.5326360000000  0.4927610000000  0.5085910000000 1.0
C      1  0.5363700000000  0.5235390000000  0.3972910000000 1.0
C      1  0.5682420000000  0.4266050000000  0.4641370000000 1.0
C      1  0.5657280000000  0.4300990000000  0.4939220000000 1.0
C      1  0.5326280000000  0.5464610000000  0.5216220000000 1.0
C      1  0.5218820000000  0.5268080000000  0.5424510000000 1.0
C      1  0.4347590000000  0.4354390000000  0.5375410000000 1.0
C      1  0.4692280000000  0.4621590000000  0.4511390000000 1.0
C      1  0.4955230000000  0.5649700000000  0.4548660000000 1.0
C      1  0.4895240000000  0.5984800000000  0.5595250000000 1.0
C      1  0.5114150000000  0.6036240000000  0.4851080000000 1.0
C      1  0.5451900000000  0.4824300000000  0.4625270000000 1.0
C      1  0.4892230000000  0.4681030000000  0.3861170000000 1.0
C      1  0.5130170000000  0.3753790000000  0.4786970000000 1.0
C      1  0.4596780000000  0.5567350000000  0.5710960000000 1.0
C      1  0.5874780000000  0.5544370000000  0.4496420000000 1.0
C      1  0.6062740000000  0.4542340000000  0.5110550000000 1.0
C      1  0.4768990000000  0.5173460000000  0.5475980000000 1.0
C      1  0.5391330000000  0.5526550000000  0.4612140000000 1.0
C      1  0.3909530000000  0.5078800000000  0.5319080000000 1.0
C      1  0.5322750000000  0.5744300000000  0.4409840000000 1.0
C      1  0.5306970000000  0.4790180000000  0.5486160000000 1.0
C      1  0.5530850000000  0.4511540000000  0.4269420000000 1.0
C      1  0.4480840000000  0.3922850000000  0.5097860000000 1.0
C      1  0.5828890000000  0.4890330000000  0.4384080000000 1.0
C      1  0.4133420000000  0.4566040000000  0.5022700000000 1.0
C      1  0.4487820000000  0.6013320000000  0.4493840000000 1.0
C      1  0.5580490000000  0.5953020000000  0.4690420000000 1.0
C      1  0.4482070000000  0.4699630000000  0.3956740000000 1.0
C      1  0.5368740000000  0.5803000000000  0.5233500000000 1.0
C      1  0.4492460000000  0.5141310000000  0.4557280000000 1.0
C      1  0.5162400000000  0.5370270000000  0.4928380000000 1.0
C      1  0.5896940000000  0.4446780000000  0.4595070000000 1.0
C      1  0.4227740000000  0.4506610000000  0.5621500000000 1.0
C      1  0.5622020000000  0.5819810000000  0.4989300000000 1.0
C      1  0.4662220000000  0.3912730000000  0.5332160000000 1.0
C      1  0.4198930000000  0.5821900000000  0.4738310000000 1.0
C      1  0.4370890000000  0.5839270000000  0.4982670000000 1.0
C      1  0.3926150000000  0.5256750000000  0.5107110000000 1.0
C      1  0.4425910000000  0.4525590000000  0.5827380000000 1.0
C      1  0.4263440000000  0.4618070000000  0.4432120000000 1.0
C      1  0.5300020000000  0.4980400000000  0.3921990000000 1.0
C      1  0.5805580000000  0.4889260000000  0.5087620000000 1.0
C      1  0.4873070000000  0.4424590000000  0.5662920000000 1.0
C      1  0.4739740000000  0.5367750000000  0.5060070000000 1.0
C      1  0.6076140000000  0.5165830000000  0.5354060000000 1.0
C      1  0.4971750000000  0.4920540000000  0.6233520000000 1.0
C      1  0.5594640000000  0.4095600000000  0.5108530000000 1.0
C      1  0.4335450000000  0.4135730000000  0.5198750000000 1.0
C      1  0.4279910000000  0.5837440000000  0.4452260000000 1.0
C      1  0.4970540000000  0.4055450000000  0.4373480000000 1.0
C      1  0.4199060000000  0.5008840000000  0.5696970000000 1.0
C      1  0.4236500000000  0.4761540000000  0.5211330000000 1.0
C      1  0.4707230000000  0.5411710000000  0.5314280000000 1.0
C      1  0.4332870000000  0.5249340000000  0.5300930000000 1.0
C      1  0.4895600000000  0.5522780000000  0.5715020000000 1.0
C      1  0.4472020000000  0.4074560000000  0.4578790000000 1.0
C      1  0.4550930000000  0.5608410000000  0.4072620000000 1.0
C      1  0.4003930000000  0.5618860000000  0.4809730000000 1.0
C      1  0.6021870000000  0.5576610000000  0.5261300000000 1.0
C      1  0.5702160000000  0.4521710000000  0.5798520000000 1.0
C      1  0.4346770000000  0.4407410000000  0.4879450000000 1.0
C      1  0.4050070000000  0.4938090000000  0.4738670000000 1.0
C      1  0.5049170000000  0.5482360000000  0.4030550000000 1.0
C      1  0.3962840000000  0.5392870000000  0.4629160000000 1.0
C      1  0.4478860000000  0.4742700000000  0.5372280000000 1.0
C      1  0.4732000000000  0.4887160000000  0.5394360000000 1.0
C      1  0.5437240000000  0.5326610000000  0.5951230000000 1.0
C      1  0.6053420000000  0.4571520000000  0.4828230000000 1.0
C      1  0.4540980000000  0.4778570000000  0.5944740000000 1.0
C      1  0.4604480000000  0.5295560000000  0.5904070000000 1.0
C      1  0.5816630000000  0.4464930000000  0.5533700000000 1.0
C      1  0.4935600000000  0.3808710000000  0.5283800000000 1.0
C      1  0.4311010000000  0.5080130000000  0.4777170000000 1.0
C      1  0.5441330000000  0.4405880000000  0.5896800000000 1.0
C      1  0.4084360000000  0.4755300000000  0.5604020000000 1.0
C      1  0.5279500000000  0.4668070000000  0.4196800000000 1.0
C      1  0.5701560000000  0.5406620000000  0.5523420000000 1.0
C      1  0.4682880000000  0.5150560000000  0.3902580000000 1.0
C      1  0.5298050000000  0.5973030000000  0.4612990000000 1.0
C      1  0.4995100000000  0.5068710000000  0.4272130000000 1.0
C      1  0.5117490000000  0.4848320000000  0.5714960000000 1.0
C      1  0.5796550000000  0.4599850000000  0.4366820000000 1.0
C      1  0.4899470000000  0.4324700000000  0.4852960000000 1.0
C      1  0.4701540000000  0.4423860000000  0.4287200000000 1.0
C      1  0.4950450000000  0.5187360000000  0.5022680000000 1.0
C      1  0.5608930000000  0.5840490000000  0.5413430000000 1.0
C      1  0.5908250000000  0.4911340000000  0.5382310000000 1.0
C      1  0.4724900000000  0.5322340000000  0.4574460000000 1.0
C      1  0.6016510000000  0.4617310000000  0.5380910000000 1.0
C      1  0.4686400000000  0.4151010000000  0.4387780000000 1.0
C      1  0.5303870000000  0.5784650000000  0.5863910000000 1.0
C      1  0.5702610000000  0.5456230000000  0.4272240000000 1.0
C      1  0.5600880000000  0.4441230000000  0.5335020000000 1.0
C      1  0.5131210000000  0.5072990000000  0.5228590000000 1.0
C      1  0.4030250000000  0.5536310000000  0.5089930000000 1.0
C      1  0.4828180000000  0.6068260000000  0.4809680000000 1.0
C      1  0.5383290000000  0.5017860000000  0.4822710000000 1.0
C      1  0.4775220000000  0.4745830000000  0.6111460000000 1.0
C      1  0.4758660000000  0.6095510000000  0.4518670000000 1.0
C      1  0.5157110000000  0.5293970000000  0.6063900000000 1.0
C      1  0.4661330000000  0.5879100000000  0.4960820000000 1.0
C      1  0.4306650000000  0.5594890000000  0.4255850000000 1.0
C      1  0.5554000000000  0.4985420000000  0.4406660000000 1.0
C      1  0.4266720000000  0.5666790000000  0.5189890000000 1.0
C      1  0.4733500000000  0.5080700000000  0.4161050000000 1.0
C      1  0.6005680000000  0.5406540000000  0.5503360000000 1.0
C      1  0.5124940000000  0.4459100000000  0.5191700000000 1.0
C      1  0.4441390000000  0.4608590000000  0.4664050000000 1.0
C      1  0.4440140000000  0.5114560000000  0.5050620000000 1.0
C      1  0.5114780000000  0.4832040000000  0.4381780000000 1.0
C      1  0.5556230000000  0.5274820000000  0.4471770000000 1.0
C      1  0.4665260000000  0.4073330000000  0.5581900000000 1.0
C      1  0.6040550000000  0.5319070000000  0.5106130000000 1.0
C      1  0.5117840000000  0.4409780000000  0.4666340000000 1.0
C      1  0.4594450000000  0.4492960000000  0.5284330000000 1.0
C      1  0.4859320000000  0.4038320000000  0.4824840000000 1.0
C      1  0.5714950000000  0.4958350000000  0.5658590000000 1.0
C      1  0.5597400000000  0.5197350000000  0.5734340000000 1.0
C      1  0.5500790000000  0.3976990000000  0.5323940000000 1.0
C      1  0.5749320000000  0.5812390000000  0.4493070000000 1.0
C      1  0.5989510000000  0.4861050000000  0.4854980000000 1.0
C      1  0.5950290000000  0.5028820000000  0.4613480000000 1.0
C      1  0.4118140000000  0.5405900000000  0.4368490000000 1.0
C      1  0.3897540000000  0.5174630000000  0.4818450000000 1.0
C      1  0.4751080000000  0.5553480000000  0.4417660000000 1.0
C      1  0.5312010000000  0.4498200000000  0.5409340000000 1.0
C      1  0.5301000000000  0.4612670000000  0.4734440000000 1.0
C      1  0.3993160000000  0.4650280000000  0.4776940000000 1.0
C      1  0.4916110000000  0.4776030000000  0.4602520000000 1.0
C      1  0.4847140000000  0.4442100000000  0.5127020000000 1.0
C      1  0.3972230000000  0.4799070000000  0.5328210000000 1.0
C      1  0.5202130000000  0.5194710000000  0.4721430000000 1.0
C      1  0.5182430000000  0.4257810000000  0.4429890000000 1.0
C      1  0.4714720000000  0.5793180000000  0.4226330000000 1.0
C      1  0.4589080000000  0.3938320000000  0.4809730000000 1.0
C      1  0.4951330000000  0.6072740000000  0.5331730000000 1.0
C      1  0.4898140000000  0.4705820000000  0.5586710000000 1.0
C      1  0.4954700000000  0.5902450000000  0.4384280000000 1.0
C      1  0.5058800000000  0.3753300000000  0.5033240000000 1.0
C      1  0.4864680000000  0.4917920000000  0.4853530000000 1.0
C      1  0.5377010000000  0.3938510000000  0.5573050000000 1.0
C      1  0.5048010000000  0.5618500000000  0.4821620000000 1.0
C      1  0.5772690000000  0.5220490000000  0.5008730000000 1.0
C      1  0.5393990000000  0.4145650000000  0.5789140000000 1.0
C      1  0.4649620000000  0.5855840000000  0.5681350000000 1.0
END
