TITL C-884137-4758-81 0.108549034723498 125000 -15280.9609898328 0 0 103 (C1) n - 1
REM
REM in /home/nfs/bkarasulu/CARBON/AIRSS/Generating-Clusters/ReaxFF-fromJPCA2015/Units_Real/with-SteepDescent/Only-C1/SD-CG/Try1-3A/FIRE-CG
REM
REM
REM
REM
REM
REM ./C.cell (11c1c37f851c82e70ff6c80c92926a4b)
REM
REM compiler GCC version 9.2.1 20190827 (Red Hat 9.2.1-1)
REM options -cpp -mtune=generic -march=x86-64 -g -O0 -fpre-include=/usr/include/finclude/math-vector-fortran.h
REM seed -8961171 -1928793336 -236075883 31007813 -1894864240 1943904582 428609609 -968643167 -1378236285 -1753683586 945980902 -1667723946 1032665167 1522009309 350941715 1209261299 -1412113293 -1261116139 -170361273 83293731 1632380942 -351544280 -1572361518 1849506057 2121181807 -657062605 306775759 -626956507 -1029507487 -825899734 1254371947 86725449 -79161478
REM
CELL 1.54180   50.00000   50.00000   50.00000   90.00000   90.00000   90.00000
LATT -1
SFAC C  
C      1  0.4554900000000  0.4468430000000  0.5365890000000 1.0
C      1  0.5510500000000  0.4710050000000  0.5748580000000 1.0
C      1  0.4786590000000  0.5493500000000  0.4316150000000 1.0
C      1  0.5991640000000  0.4889660000000  0.4807510000000 1.0
C      1  0.5729990000000  0.4742400000000  0.5271120000000 1.0
C      1  0.4704610000000  0.5095160000000  0.5206270000000 1.0
C      1  0.4711030000000  0.4688040000000  0.5501940000000 1.0
C      1  0.4203480000000  0.5020060000000  0.4996360000000 1.0
C      1  0.5658480000000  0.5031520000000  0.5288260000000 1.0
C      1  0.4731680000000  0.5150630000000  0.4707090000000 1.0
C      1  0.5180710000000  0.5074450000000  0.4623470000000 1.0
C      1  0.4988050000000  0.4802720000000  0.5844900000000 1.0
C      1  0.5360360000000  0.4377380000000  0.5097380000000 1.0
C      1  0.5573150000000  0.5479100000000  0.5525390000000 1.0
C      1  0.4937570000000  0.4181080000000  0.5221970000000 1.0
C      1  0.5600980000000  0.5169430000000  0.5037500000000 1.0
C      1  0.4245220000000  0.5303190000000  0.5597740000000 1.0
C      1  0.5387410000000  0.5744560000000  0.4953190000000 1.0
C      1  0.4617700000000  0.5359220000000  0.5245230000000 1.0
C      1  0.5698680000000  0.5492260000000  0.5277850000000 1.0
C      1  0.4764750000000  0.4774640000000  0.4970360000000 1.0
C      1  0.4460400000000  0.4478620000000  0.4524580000000 1.0
C      1  0.4243860000000  0.4887830000000  0.5265610000000 1.0
C      1  0.4434070000000  0.5066740000000  0.4558360000000 1.0
C      1  0.4477370000000  0.5802270000000  0.5133840000000 1.0
C      1  0.5604880000000  0.4531180000000  0.5034990000000 1.0
C      1  0.4630160000000  0.5243320000000  0.5781120000000 1.0
C      1  0.4297020000000  0.4604680000000  0.5243980000000 1.0
C      1  0.5282350000000  0.5282970000000  0.5030640000000 1.0
C      1  0.5207280000000  0.5325510000000  0.4755430000000 1.0
C      1  0.5242430000000  0.4252050000000  0.4870690000000 1.0
C      1  0.5047190000000  0.5567050000000  0.4685910000000 1.0
C      1  0.5567460000000  0.5525970000000  0.4508980000000 1.0
C      1  0.4270410000000  0.4605060000000  0.4719420000000 1.0
C      1  0.5244290000000  0.4187550000000  0.4366510000000 1.0
C      1  0.5103550000000  0.5070880000000  0.5818680000000 1.0
C      1  0.4912600000000  0.5811830000000  0.5077630000000 1.0
C      1  0.4837550000000  0.4534970000000  0.4947430000000 1.0
C      1  0.5281950000000  0.5560080000000  0.5156400000000 1.0
C      1  0.4898740000000  0.5875910000000  0.5371340000000 1.0
C      1  0.4898330000000  0.5222180000000  0.4242860000000 1.0
C      1  0.5216900000000  0.5232750000000  0.4224410000000 1.0
C      1  0.5267650000000  0.4308040000000  0.5745130000000 1.0
C      1  0.4590020000000  0.4252300000000  0.4641160000000 1.0
C      1  0.4816200000000  0.4088560000000  0.4700200000000 1.0
C      1  0.5602250000000  0.5617200000000  0.4796000000000 1.0
C      1  0.4316840000000  0.4483770000000  0.4980270000000 1.0
C      1  0.5639260000000  0.4590480000000  0.4478170000000 1.0
C      1  0.4326330000000  0.5395290000000  0.5151150000000 1.0
C      1  0.5560400000000  0.4990160000000  0.4827150000000 1.0
C      1  0.4744120000000  0.5461460000000  0.4747080000000 1.0
C      1  0.4615790000000  0.5846030000000  0.5374710000000 1.0
C      1  0.5734610000000  0.5450980000000  0.5003360000000 1.0
C      1  0.4918180000000  0.4827050000000  0.3980030000000 1.0
C      1  0.5921140000000  0.4803650000000  0.5052360000000 1.0
C      1  0.5124970000000  0.4923370000000  0.5351780000000 1.0
C      1  0.5310630000000  0.5479530000000  0.4321110000000 1.0
C      1  0.5277710000000  0.5082460000000  0.5585970000000 1.0
C      1  0.4566870000000  0.5518870000000  0.4514420000000 1.0
C      1  0.4253970000000  0.4890440000000  0.4743050000000 1.0
C      1  0.5188400000000  0.4612750000000  0.5710980000000 1.0
C      1  0.5524920000000  0.4313070000000  0.5603090000000 1.0
C      1  0.5106820000000  0.4772070000000  0.4200190000000 1.0
C      1  0.5152410000000  0.5014620000000  0.5058400000000 1.0
C      1  0.5117020000000  0.5810250000000  0.4869990000000 1.0
C      1  0.5079540000000  0.5725000000000  0.5559560000000 1.0
C      1  0.4917500000000  0.5044910000000  0.4520820000000 1.0
C      1  0.4694410000000  0.5610700000000  0.5027200000000 1.0
C      1  0.4349760000000  0.5580290000000  0.5554380000000 1.0
C      1  0.5083490000000  0.4459100000000  0.5202500000000 1.0
C      1  0.5121930000000  0.4646780000000  0.5421750000000 1.0
C      1  0.4901720000000  0.5550870000000  0.5701760000000 1.0
C      1  0.5591340000000  0.4864980000000  0.4389200000000 1.0
C      1  0.5001200000000  0.4105740000000  0.4936420000000 1.0
C      1  0.4265860000000  0.5657660000000  0.5277090000000 1.0
C      1  0.5654240000000  0.4560920000000  0.4764210000000 1.0
C      1  0.4281950000000  0.5017950000000  0.5538550000000 1.0
C      1  0.5667180000000  0.4585040000000  0.5550970000000 1.0
C      1  0.4349890000000  0.5346770000000  0.4610100000000 1.0
C      1  0.4245460000000  0.5297370000000  0.4888820000000 1.0
C      1  0.5748410000000  0.5016470000000  0.4600540000000 1.0
C      1  0.4894470000000  0.4731380000000  0.4424320000000 1.0
C      1  0.5292230000000  0.4869220000000  0.4820110000000 1.0
C      1  0.4711540000000  0.5015890000000  0.4104260000000 1.0
C      1  0.4973390000000  0.4226220000000  0.4485530000000 1.0
C      1  0.4826420000000  0.5020110000000  0.4963600000000 1.0
C      1  0.4704340000000  0.4770120000000  0.5782430000000 1.0
C      1  0.4908200000000  0.5297520000000  0.5842620000000 1.0
C      1  0.5768630000000  0.5332830000000  0.4525250000000 1.0
C      1  0.4696400000000  0.4184450000000  0.5376980000000 1.0
C      1  0.5542030000000  0.5176250000000  0.5519450000000 1.0
C      1  0.5379460000000  0.4442110000000  0.4462620000000 1.0
C      1  0.5338200000000  0.4959450000000  0.4265120000000 1.0
C      1  0.4499800000000  0.4989430000000  0.5746880000000 1.0
C      1  0.4605970000000  0.4670680000000  0.4342910000000 1.0
C      1  0.4502240000000  0.4928820000000  0.4281720000000 1.0
C      1  0.4953070000000  0.4508120000000  0.4640260000000 1.0
C      1  0.5051400000000  0.5600630000000  0.4374850000000 1.0
C      1  0.4829990000000  0.4930450000000  0.5391100000000 1.0
C      1  0.4596740000000  0.4408940000000  0.5026480000000 1.0
C      1  0.5331190000000  0.5630690000000  0.5437670000000 1.0
C      1  0.4629370000000  0.5458140000000  0.5569280000000 1.0
C      1  0.5238270000000  0.4528680000000  0.4713960000000 1.0
END
