TITL C-883732-77-138 -31.6471262718222 125000 -9398.55580124236 0 0 63 (C1) n - 1
REM
REM in /home/nfs/bkarasulu/CARBON/AIRSS/Generating-Clusters/ReaxFF-fromJPCA2015/Units_Real/with-SteepDescent/Only-C1/SD-CG/Try1-3A/FIRE-CG
REM
REM
REM
REM
REM
REM ./C.cell (11c1c37f851c82e70ff6c80c92926a4b)
REM
REM compiler GCC version 9.2.1 20190827 (Red Hat 9.2.1-1)
REM options -cpp -mtune=generic -march=x86-64 -g -O0 -fpre-include=/usr/include/finclude/math-vector-fortran.h
REM seed -1814733522 -230876688 206932014 -2049210710 1391029661 723842253 -1155617428 225301800 767465000 -1195270714 -389243684 -2053919005 -2147374030 266973416 -1592086286 1990973233 2109684491 -813775551 1724282440 -71460551 -1361764577 1072603649 -1744889906 -537680752 1489863599 -1919642709 -938009565 -1681802499 -1304198833 -1268759079 884688454 -175782457 1547950103
REM
CELL 1.54180   50.00000   50.00000   50.00000   90.00000   90.00000   90.00000
LATT -1
SFAC C  
C      1  0.4788300000000  0.5472280000000  0.5088300000000 1.0
C      1  0.5458680000000  0.4565060000000  0.4974090000000 1.0
C      1  0.5612420000000  0.5069320000000  0.5467590000000 1.0
C      1  0.5415760000000  0.5685910000000  0.5082310000000 1.0
C      1  0.5564520000000  0.4799810000000  0.5053250000000 1.0
C      1  0.5538290000000  0.5382940000000  0.4689110000000 1.0
C      1  0.4888310000000  0.4419620000000  0.4787640000000 1.0
C      1  0.4724250000000  0.5015040000000  0.4492030000000 1.0
C      1  0.4806240000000  0.4927030000000  0.4991270000000 1.0
C      1  0.4513640000000  0.4983260000000  0.4959300000000 1.0
C      1  0.4813190000000  0.4753230000000  0.4452750000000 1.0
C      1  0.5678310000000  0.4865300000000  0.4673430000000 1.0
C      1  0.5469040000000  0.5539180000000  0.5334520000000 1.0
C      1  0.4642070000000  0.4287200000000  0.4925490000000 1.0
C      1  0.5162730000000  0.5170390000000  0.5399980000000 1.0
C      1  0.4925820000000  0.5194570000000  0.4925130000000 1.0
C      1  0.5343060000000  0.4996020000000  0.5593930000000 1.0
C      1  0.4457370000000  0.5086390000000  0.4537290000000 1.0
C      1  0.5108940000000  0.4761200000000  0.4468510000000 1.0
C      1  0.4485960000000  0.5411770000000  0.5158780000000 1.0
C      1  0.5394990000000  0.5505780000000  0.4457090000000 1.0
C      1  0.4400550000000  0.5408370000000  0.4899250000000 1.0
C      1  0.5098130000000  0.4839340000000  0.5764390000000 1.0
C      1  0.5371390000000  0.5433500000000  0.4925870000000 1.0
C      1  0.4658130000000  0.5564420000000  0.4620810000000 1.0
C      1  0.4920750000000  0.5182250000000  0.4613430000000 1.0
C      1  0.5346770000000  0.4972980000000  0.4915020000000 1.0
C      1  0.4426500000000  0.5370200000000  0.4624890000000 1.0
C      1  0.4290320000000  0.4686120000000  0.5155370000000 1.0
C      1  0.4669540000000  0.4762390000000  0.5480250000000 1.0
C      1  0.5655530000000  0.5306590000000  0.5296720000000 1.0
C      1  0.5029360000000  0.5794040000000  0.4735550000000 1.0
C      1  0.5206820000000  0.5471480000000  0.5431910000000 1.0
C      1  0.5407060000000  0.4708110000000  0.5506970000000 1.0
C      1  0.5091060000000  0.4215450000000  0.5410060000000 1.0
C      1  0.4944690000000  0.4692740000000  0.5576450000000 1.0
C      1  0.4694640000000  0.4517730000000  0.4575100000000 1.0
C      1  0.5752540000000  0.5233480000000  0.5025570000000 1.0
C      1  0.5194380000000  0.4582900000000  0.5100170000000 1.0
C      1  0.4597490000000  0.4318610000000  0.5214620000000 1.0
C      1  0.4913430000000  0.5500140000000  0.5365070000000 1.0
C      1  0.4302670000000  0.4978350000000  0.5170380000000 1.0
C      1  0.4894870000000  0.5446040000000  0.4487510000000 1.0
C      1  0.4868080000000  0.5233570000000  0.5481960000000 1.0
C      1  0.4790940000000  0.5677110000000  0.4860450000000 1.0
C      1  0.5176070000000  0.4544660000000  0.5401350000000 1.0
C      1  0.5212190000000  0.5205350000000  0.5051570000000 1.0
C      1  0.4952310000000  0.4673480000000  0.4970140000000 1.0
C      1  0.4502040000000  0.4582820000000  0.5324540000000 1.0
C      1  0.5290920000000  0.4520330000000  0.4524810000000 1.0
C      1  0.4416080000000  0.5183950000000  0.5339520000000 1.0
C      1  0.5146050000000  0.4299730000000  0.4623240000000 1.0
C      1  0.5734150000000  0.5141210000000  0.4747600000000 1.0
C      1  0.4338030000000  0.4911310000000  0.4734590000000 1.0
C      1  0.4469170000000  0.4443100000000  0.4746760000000 1.0
C      1  0.5179570000000  0.5792020000000  0.4969650000000 1.0
C      1  0.4290650000000  0.4646350000000  0.4857570000000 1.0
C      1  0.5218180000000  0.4925850000000  0.4666790000000 1.0
C      1  0.4844520000000  0.4236430000000  0.5293310000000 1.0
C      1  0.5541980000000  0.4610160000000  0.4698730000000 1.0
C      1  0.4636290000000  0.5056830000000  0.5480810000000 1.0
C      1  0.5610360000000  0.4815350000000  0.5329020000000 1.0
C      1  0.5123910000000  0.5623840000000  0.4490420000000 1.0
END
