TITL C-884136-4169-291 21.8883383652743 125000 -20109.2958539496 0 0 135 (C1) n - 1
REM
REM in /home/nfs/bkarasulu/CARBON/AIRSS/Generating-Clusters/ReaxFF-fromJPCA2015/Units_Real/with-SteepDescent/Only-C1/SD-CG/Try1-3A/FIRE-CG
REM
REM
REM
REM
REM
REM ./C.cell (11c1c37f851c82e70ff6c80c92926a4b)
REM
REM compiler GCC version 9.2.1 20190827 (Red Hat 9.2.1-1)
REM options -cpp -mtune=generic -march=x86-64 -g -O0 -fpre-include=/usr/include/finclude/math-vector-fortran.h
REM seed -780716152 19945451 1001763644 -750307051 1105779372 1784181411 1794230317 -1258022776 -1121841511 1118688108 -1398817899 -1745521389 -1141554515 232719751 -1413124982 1982448419 -975905012 2038052013 1473277813 435473644 -1946693158 1989482613 1434363032 -1335781324 87573396 -757332429 -459949503 605448690 1836539957 -1972973190 -655880862 1293797089 -709449357
REM
CELL 1.54180   50.00000   50.00000   50.00000   90.00000   90.00000   90.00000
LATT -1
SFAC C  
C      1  0.5665210000000  0.4580170000000  0.4330490000000 1.0
C      1  0.4918470000000  0.5800350000000  0.4747130000000 1.0
C      1  0.4702080000000  0.5906510000000  0.5135270000000 1.0
C      1  0.5840040000000  0.5584260000000  0.5105230000000 1.0
C      1  0.5651330000000  0.6043260000000  0.5068430000000 1.0
C      1  0.5298950000000  0.4556080000000  0.4631180000000 1.0
C      1  0.4051710000000  0.5006500000000  0.5003590000000 1.0
C      1  0.4755430000000  0.5025450000000  0.5921900000000 1.0
C      1  0.5166330000000  0.4026760000000  0.5142310000000 1.0
C      1  0.5449560000000  0.4562360000000  0.4877140000000 1.0
C      1  0.4710300000000  0.3892890000000  0.4892120000000 1.0
C      1  0.4287280000000  0.4438080000000  0.4505350000000 1.0
C      1  0.5743810000000  0.5797230000000  0.4934170000000 1.0
C      1  0.5391830000000  0.5030270000000  0.5079610000000 1.0
C      1  0.4735340000000  0.4711670000000  0.4999190000000 1.0
C      1  0.5432340000000  0.4431170000000  0.4401720000000 1.0
C      1  0.5125660000000  0.6038930000000  0.5170180000000 1.0
C      1  0.5416170000000  0.6012190000000  0.5257160000000 1.0
C      1  0.5125680000000  0.5817370000000  0.4510180000000 1.0
C      1  0.4884420000000  0.3921600000000  0.5137390000000 1.0
C      1  0.5107170000000  0.4441820000000  0.5112300000000 1.0
C      1  0.4792250000000  0.4380360000000  0.4644100000000 1.0
C      1  0.5302540000000  0.4700210000000  0.5544840000000 1.0
C      1  0.4635190000000  0.5811480000000  0.4658240000000 1.0
C      1  0.4532290000000  0.5170860000000  0.4737510000000 1.0
C      1  0.4999910000000  0.5689220000000  0.5526180000000 1.0
C      1  0.4868900000000  0.4205300000000  0.5510960000000 1.0
C      1  0.4901480000000  0.5270570000000  0.5863530000000 1.0
C      1  0.5408220000000  0.5176950000000  0.4832180000000 1.0
C      1  0.4261930000000  0.5551270000000  0.4592420000000 1.0
C      1  0.5898600000000  0.4923190000000  0.4702520000000 1.0
C      1  0.5842900000000  0.5139540000000  0.5243420000000 1.0
C      1  0.5812040000000  0.4704420000000  0.5509820000000 1.0
C      1  0.5693850000000  0.4791480000000  0.4129480000000 1.0
C      1  0.4804540000000  0.4599270000000  0.4045340000000 1.0
C      1  0.4592880000000  0.5140810000000  0.4227750000000 1.0
C      1  0.4778370000000  0.5055870000000  0.4630500000000 1.0
C      1  0.4300900000000  0.5641190000000  0.4883160000000 1.0
C      1  0.4385310000000  0.4651840000000  0.4312270000000 1.0
C      1  0.5913950000000  0.4857480000000  0.5256950000000 1.0
C      1  0.4979890000000  0.5434290000000  0.4261820000000 1.0
C      1  0.5253680000000  0.5574360000000  0.5390570000000 1.0
C      1  0.5895920000000  0.4920520000000  0.4300680000000 1.0
C      1  0.4685650000000  0.4256800000000  0.4397830000000 1.0
C      1  0.5190450000000  0.4704210000000  0.5931460000000 1.0
C      1  0.5253590000000  0.4488760000000  0.5730970000000 1.0
C      1  0.4227940000000  0.4623910000000  0.5015230000000 1.0
C      1  0.4397720000000  0.4953370000000  0.4342470000000 1.0
C      1  0.5648920000000  0.5432880000000  0.5574240000000 1.0
C      1  0.4903750000000  0.5928500000000  0.5323200000000 1.0
C      1  0.5030260000000  0.4228280000000  0.4680100000000 1.0
C      1  0.4324290000000  0.4898040000000  0.4964290000000 1.0
C      1  0.4527490000000  0.5600460000000  0.4478000000000 1.0
C      1  0.5014020000000  0.4706510000000  0.5043030000000 1.0
C      1  0.4915790000000  0.5288480000000  0.4927930000000 1.0
C      1  0.4686440000000  0.5409970000000  0.4316120000000 1.0
C      1  0.5596550000000  0.4339240000000  0.5002560000000 1.0
C      1  0.5004510000000  0.5202430000000  0.4675270000000 1.0
C      1  0.4905370000000  0.4786160000000  0.4227840000000 1.0
C      1  0.5851180000000  0.5204040000000  0.4732940000000 1.0
C      1  0.5292270000000  0.5112580000000  0.4267300000000 1.0
C      1  0.4498680000000  0.5385660000000  0.4932490000000 1.0
C      1  0.4346220000000  0.5242120000000  0.5688460000000 1.0
C      1  0.5090320000000  0.5640490000000  0.5815160000000 1.0
C      1  0.5200770000000  0.4227920000000  0.4932620000000 1.0
C      1  0.5543790000000  0.4814670000000  0.4962580000000 1.0
C      1  0.5191160000000  0.5524810000000  0.5107400000000 1.0
C      1  0.4268600000000  0.4905860000000  0.5364970000000 1.0
C      1  0.4867810000000  0.4665290000000  0.5501980000000 1.0
C      1  0.5056220000000  0.5192740000000  0.4120410000000 1.0
C      1  0.4440160000000  0.4192930000000  0.4564660000000 1.0
C      1  0.5376890000000  0.5455570000000  0.4899240000000 1.0
C      1  0.5504550000000  0.5707540000000  0.4744240000000 1.0
C      1  0.4476720000000  0.5030540000000  0.5844700000000 1.0
C      1  0.4363680000000  0.4540570000000  0.4768350000000 1.0
C      1  0.5218270000000  0.5576910000000  0.4378490000000 1.0
C      1  0.5095620000000  0.6021800000000  0.4878530000000 1.0
C      1  0.4580570000000  0.4476020000000  0.4204100000000 1.0
C      1  0.5572320000000  0.4253770000000  0.5299760000000 1.0
C      1  0.5481840000000  0.5777290000000  0.5410160000000 1.0
C      1  0.4318150000000  0.4484200000000  0.5506230000000 1.0
C      1  0.4522580000000  0.5869310000000  0.4917660000000 1.0
C      1  0.5557070000000  0.5136270000000  0.5300490000000 1.0
C      1  0.4122150000000  0.5305390000000  0.4648830000000 1.0
C      1  0.4649780000000  0.4574890000000  0.4774010000000 1.0
C      1  0.4864000000000  0.4793360000000  0.4520840000000 1.0
C      1  0.4650040000000  0.5469010000000  0.5163450000000 1.0
C      1  0.4271560000000  0.5166830000000  0.5427170000000 1.0
C      1  0.5743220000000  0.5631460000000  0.5395640000000 1.0
C      1  0.4491200000000  0.5624940000000  0.5367290000000 1.0
C      1  0.5815800000000  0.4501150000000  0.5072710000000 1.0
C      1  0.5306800000000  0.4123010000000  0.5382740000000 1.0
C      1  0.5073340000000  0.4953900000000  0.5185770000000 1.0
C      1  0.5148690000000  0.4226250000000  0.5597670000000 1.0
C      1  0.4909330000000  0.4437060000000  0.5331840000000 1.0
C      1  0.5401820000000  0.5283940000000  0.5520490000000 1.0
C      1  0.4837520000000  0.5529240000000  0.5737750000000 1.0
C      1  0.5424750000000  0.4918240000000  0.5874600000000 1.0
C      1  0.4483990000000  0.4517550000000  0.5752840000000 1.0
C      1  0.4341930000000  0.4430550000000  0.5218240000000 1.0
C      1  0.4021220000000  0.5295960000000  0.4929580000000 1.0
C      1  0.4919680000000  0.5570380000000  0.5006850000000 1.0
C      1  0.5140720000000  0.4794530000000  0.4606760000000 1.0
C      1  0.5034070000000  0.4429470000000  0.4089590000000 1.0
C      1  0.4038130000000  0.5078060000000  0.5284880000000 1.0
C      1  0.5643660000000  0.4819640000000  0.5717460000000 1.0
C      1  0.4768710000000  0.4586860000000  0.5762770000000 1.0
C      1  0.5081300000000  0.4855540000000  0.5456980000000 1.0
C      1  0.5179460000000  0.5374230000000  0.5922700000000 1.0
C      1  0.5251170000000  0.5067460000000  0.4596280000000 1.0
C      1  0.4582070000000  0.4924970000000  0.5126000000000 1.0
C      1  0.4820140000000  0.5105960000000  0.5134920000000 1.0
C      1  0.4101320000000  0.5534140000000  0.5087460000000 1.0
C      1  0.5766890000000  0.5177560000000  0.4268040000000 1.0
C      1  0.5305840000000  0.5943390000000  0.4696460000000 1.0
C      1  0.4496100000000  0.4203150000000  0.5129580000000 1.0
C      1  0.5885870000000  0.5316580000000  0.5010880000000 1.0
C      1  0.5709830000000  0.5339880000000  0.4502350000000 1.0
C      1  0.5833050000000  0.4760510000000  0.5001720000000 1.0
C      1  0.4905620000000  0.4768850000000  0.5948510000000 1.0
C      1  0.5492720000000  0.5533490000000  0.4493240000000 1.0
C      1  0.5014050000000  0.4148380000000  0.4402750000000 1.0
C      1  0.4343470000000  0.4770720000000  0.5807170000000 1.0
C      1  0.4195390000000  0.4731740000000  0.5566050000000 1.0
C      1  0.5873940000000  0.4725100000000  0.4497740000000 1.0
C      1  0.4704670000000  0.4076970000000  0.5302720000000 1.0
C      1  0.4819950000000  0.5009080000000  0.4094700000000 1.0
C      1  0.5221690000000  0.4276370000000  0.4236540000000 1.0
C      1  0.5699830000000  0.4453000000000  0.5449030000000 1.0
C      1  0.4348880000000  0.5520760000000  0.5604190000000 1.0
C      1  0.5403320000000  0.5214230000000  0.5824370000000 1.0
C      1  0.4290580000000  0.5062310000000  0.4598170000000 1.0
C      1  0.5535820000000  0.5048770000000  0.4134900000000 1.0
C      1  0.4196650000000  0.5600690000000  0.5353810000000 1.0
C      1  0.4495390000000  0.4092160000000  0.4843240000000 1.0
END
