TITL C-883736-9678-161 -24.1713827498339 125000 -6540.4371326114 0 0 45 (C1) n - 1
REM
REM in /home/nfs/bkarasulu/CARBON/AIRSS/Generating-Clusters/ReaxFF-fromJPCA2015/Units_Real/with-SteepDescent/Only-C1/SD-CG/Try1-3A/FIRE-CG
REM
REM
REM
REM
REM
REM ./C.cell (11c1c37f851c82e70ff6c80c92926a4b)
REM
REM compiler GCC version 9.2.1 20190827 (Red Hat 9.2.1-1)
REM options -cpp -mtune=generic -march=x86-64 -g -O0 -fpre-include=/usr/include/finclude/math-vector-fortran.h
REM seed 1082745345 -1731819335 -2035665582 -692214078 -901281791 -740986610 -1556257613 632902729 -210399355 -1114799347 1879379366 997110413 -1791923447 -198186954 -1898051703 32205846 96163931 -1278904945 1628385424 -999034849 1128304977 -2117180258 -741910649 1983025667 614718701 1382257029 -997141772 1162093636 -801979601 -1719920962 -1459938424 1017986693 -784895384
REM
CELL 1.54180   50.00000   50.00000   50.00000   90.00000   90.00000   90.00000
LATT -1
SFAC C  
C      1  0.4569190000000  0.4660370000000  0.4744720000000 1.0
C      1  0.5457570000000  0.4625640000000  0.5205730000000 1.0
C      1  0.5381440000000  0.5729450000000  0.4670500000000 1.0
C      1  0.4715920000000  0.5013330000000  0.5071480000000 1.0
C      1  0.5234440000000  0.4474190000000  0.5203820000000 1.0
C      1  0.4398350000000  0.4891660000000  0.4671270000000 1.0
C      1  0.5339190000000  0.4797930000000  0.4528040000000 1.0
C      1  0.4894710000000  0.4807500000000  0.5171150000000 1.0
C      1  0.5045270000000  0.4744310000000  0.4541530000000 1.0
C      1  0.5485810000000  0.5313880000000  0.5276600000000 1.0
C      1  0.5153580000000  0.5016150000000  0.4488680000000 1.0
C      1  0.4865890000000  0.4631940000000  0.4738370000000 1.0
C      1  0.5618350000000  0.4611200000000  0.4922540000000 1.0
C      1  0.5473690000000  0.5570480000000  0.4878570000000 1.0
C      1  0.4437580000000  0.4895470000000  0.5094610000000 1.0
C      1  0.4776770000000  0.4290920000000  0.5067750000000 1.0
C      1  0.5215270000000  0.5886850000000  0.4785990000000 1.0
C      1  0.4692800000000  0.4453400000000  0.5431970000000 1.0
C      1  0.5164350000000  0.4452690000000  0.5421750000000 1.0
C      1  0.4962930000000  0.4548300000000  0.5013130000000 1.0
C      1  0.5202520000000  0.5578570000000  0.5019030000000 1.0
C      1  0.4586200000000  0.5413750000000  0.5447840000000 1.0
C      1  0.4567830000000  0.5410430000000  0.4771560000000 1.0
C      1  0.4504880000000  0.5279560000000  0.4529990000000 1.0
C      1  0.5566070000000  0.4833560000000  0.4714510000000 1.0
C      1  0.4928150000000  0.4534510000000  0.5565960000000 1.0
C      1  0.5602430000000  0.5094230000000  0.5147020000000 1.0
C      1  0.4465450000000  0.5388410000000  0.5237210000000 1.0
C      1  0.4533680000000  0.4400400000000  0.5203360000000 1.0
C      1  0.4362640000000  0.5340940000000  0.4973550000000 1.0
C      1  0.4299350000000  0.5054520000000  0.4895790000000 1.0
C      1  0.5052610000000  0.5363030000000  0.4866920000000 1.0
C      1  0.5685670000000  0.4431720000000  0.4758470000000 1.0
C      1  0.4427630000000  0.5048630000000  0.4387290000000 1.0
C      1  0.5207530000000  0.5258080000000  0.4648140000000 1.0
C      1  0.5104760000000  0.5288260000000  0.5453170000000 1.0
C      1  0.5604190000000  0.5089180000000  0.4844060000000 1.0
C      1  0.4780490000000  0.5265650000000  0.4924190000000 1.0
C      1  0.5432810000000  0.4900390000000  0.5302620000000 1.0
C      1  0.4971960000000  0.4819740000000  0.5455340000000 1.0
C      1  0.4825000000000  0.5356480000000  0.5454980000000 1.0
C      1  0.5200720000000  0.5003850000000  0.5451410000000 1.0
C      1  0.5270970000000  0.5489100000000  0.5303330000000 1.0
C      1  0.4441900000000  0.4616010000000  0.5003860000000 1.0
C      1  0.5491440000000  0.5325360000000  0.4712210000000 1.0
END
