TITL C-883726-8501-27 0.00351528154802264 125000 -3605.66781019378 0 0 26 (C1) n - 1
REM
REM in /home/nfs/bkarasulu/CARBON/AIRSS/Generating-Clusters/ReaxFF-fromJPCA2015/Units_Real/with-SteepDescent/Only-C1/SD-CG/Try1-3A/FIRE-CG
REM
REM
REM
REM
REM
REM ./C.cell (11c1c37f851c82e70ff6c80c92926a4b)
REM
REM compiler GCC version 9.2.1 20190827 (Red Hat 9.2.1-1)
REM options -cpp -mtune=generic -march=x86-64 -g -O0 -fpre-include=/usr/include/finclude/math-vector-fortran.h
REM seed -144447251 -563190182 -1278322516 1527861553 246520512 156941128 -1299898713 -1329200364 -890302349 448796151 2118474322 1445319532 -1758309813 1407777668 1539005392 -1002695871 601971520 -774706905 -572435931 1056515446 820501543 -991406827 1056351053 -306464413 -1143838649 2054923681 82745933 -104287234 -1209187801 -1587031984 127325800 853597453 -1500495466
REM
CELL 1.54180   50.00000   50.00000   50.00000   90.00000   90.00000   90.00000
LATT -1
SFAC C  
C      1  0.4658640000000  0.4982570000000  0.4585620000000 1.0
C      1  0.5432870000000  0.5224580000000  0.5099460000000 1.0
C      1  0.4876870000000  0.4636640000000  0.5192230000000 1.0
C      1  0.5267510000000  0.5391780000000  0.4673680000000 1.0
C      1  0.4880160000000  0.5748390000000  0.5068230000000 1.0
C      1  0.5131110000000  0.4685000000000  0.5324620000000 1.0
C      1  0.5404830000000  0.5003290000000  0.4676450000000 1.0
C      1  0.4803520000000  0.5240460000000  0.4959350000000 1.0
C      1  0.4411780000000  0.4737020000000  0.5362620000000 1.0
C      1  0.5386290000000  0.5163890000000  0.5358630000000 1.0
C      1  0.4918690000000  0.5494740000000  0.5105430000000 1.0
C      1  0.4872300000000  0.5303180000000  0.5367240000000 1.0
C      1  0.5136510000000  0.4902120000000  0.4687830000000 1.0
C      1  0.5102800000000  0.5190120000000  0.5496400000000 1.0
C      1  0.5029840000000  0.5402200000000  0.4541330000000 1.0
C      1  0.4632140000000  0.4621100000000  0.4753380000000 1.0
C      1  0.4858970000000  0.4553050000000  0.4913070000000 1.0
C      1  0.5111520000000  0.4610130000000  0.4757660000000 1.0
C      1  0.5470640000000  0.5279330000000  0.4835830000000 1.0
C      1  0.4641290000000  0.4816120000000  0.5276920000000 1.0
C      1  0.4514250000000  0.4779030000000  0.4595730000000 1.0
C      1  0.4716000000000  0.5126840000000  0.5200240000000 1.0
C      1  0.4892240000000  0.5123580000000  0.4684640000000 1.0
C      1  0.5223690000000  0.4934200000000  0.5462800000000 1.0
C      1  0.5336270000000  0.4496340000000  0.4892220000000 1.0
C      1  0.5289260000000  0.4554330000000  0.5128370000000 1.0
END
