TITL C-883732-77-410 31.4406010735921 125000 -26195.2083840576 0 0 174 (C1) n - 1
REM
REM in /home/nfs/bkarasulu/CARBON/AIRSS/Generating-Clusters/ReaxFF-fromJPCA2015/Units_Real/with-SteepDescent/Only-C1/SD-CG/Try1-3A/FIRE-CG
REM
REM
REM
REM
REM
REM ./C.cell (11c1c37f851c82e70ff6c80c92926a4b)
REM
REM compiler GCC version 9.2.1 20190827 (Red Hat 9.2.1-1)
REM options -cpp -mtune=generic -march=x86-64 -g -O0 -fpre-include=/usr/include/finclude/math-vector-fortran.h
REM seed -1302424559 -715103750 -796517233 -378082143 -131316312 -361721628 244081527 1129660489 1841518165 -161582414 -1367314896 -31495287 -275043135 -1263903412 1815787617 -1915089551 1281132555 1258394814 505180679 -332371481 104295731 -840022195 -550982937 1416082357 367226143 -1279484202 1388681578 -1115063208 246701616 -1857105373 679135765 1948222483 -287373032
REM
CELL 1.54180   50.00000   50.00000   50.00000   90.00000   90.00000   90.00000
LATT -1
SFAC C  
C      1  0.4209640000000  0.5017730000000  0.5740820000000 1.0
C      1  0.5733870000000  0.5688880000000  0.5225730000000 1.0
C      1  0.4202950000000  0.4753230000000  0.5604310000000 1.0
C      1  0.4437980000000  0.4120330000000  0.4496800000000 1.0
C      1  0.4364030000000  0.4219310000000  0.5153490000000 1.0
C      1  0.5338200000000  0.3955480000000  0.5130060000000 1.0
C      1  0.5562820000000  0.4135400000000  0.5416490000000 1.0
C      1  0.5125940000000  0.4296800000000  0.5623760000000 1.0
C      1  0.5714650000000  0.4119670000000  0.4711540000000 1.0
C      1  0.4406710000000  0.4109050000000  0.5416450000000 1.0
C      1  0.5870410000000  0.5112610000000  0.4035420000000 1.0
C      1  0.5202530000000  0.4836490000000  0.3979150000000 1.0
C      1  0.5102980000000  0.5805460000000  0.4273370000000 1.0
C      1  0.4338610000000  0.5237860000000  0.4208570000000 1.0
C      1  0.4311270000000  0.4720800000000  0.5330140000000 1.0
C      1  0.4728410000000  0.5343310000000  0.5040700000000 1.0
C      1  0.5072870000000  0.4871470000000  0.4544420000000 1.0
C      1  0.4034260000000  0.6043770000000  0.4688470000000 1.0
C      1  0.5544720000000  0.5923520000000  0.5226810000000 1.0
C      1  0.5276010000000  0.5002030000000  0.5524830000000 1.0
C      1  0.6000250000000  0.5166310000000  0.4762720000000 1.0
C      1  0.4316270000000  0.5578400000000  0.5452860000000 1.0
C      1  0.4928340000000  0.4486810000000  0.5483030000000 1.0
C      1  0.4267430000000  0.4474990000000  0.4504810000000 1.0
C      1  0.4617790000000  0.5821100000000  0.4370860000000 1.0
C      1  0.5087480000000  0.4343790000000  0.5939320000000 1.0
C      1  0.4218760000000  0.4478840000000  0.5181550000000 1.0
C      1  0.5447980000000  0.5256100000000  0.4552890000000 1.0
C      1  0.4246330000000  0.4489420000000  0.5742790000000 1.0
C      1  0.3962060000000  0.5339750000000  0.4826420000000 1.0
C      1  0.3968340000000  0.5423980000000  0.5112800000000 1.0
C      1  0.4845070000000  0.6007130000000  0.5528990000000 1.0
C      1  0.4795070000000  0.3975460000000  0.5690860000000 1.0
C      1  0.3990870000000  0.4581930000000  0.4532990000000 1.0
C      1  0.5051740000000  0.5647610000000  0.4996240000000 1.0
C      1  0.4734060000000  0.6008160000000  0.4547070000000 1.0
C      1  0.4635500000000  0.5328930000000  0.5745490000000 1.0
C      1  0.4418560000000  0.4946790000000  0.5189660000000 1.0
C      1  0.5717460000000  0.4977500000000  0.5084050000000 1.0
C      1  0.4840730000000  0.5185610000000  0.5997860000000 1.0
C      1  0.5105020000000  0.6120690000000  0.5437590000000 1.0
C      1  0.5157070000000  0.4959320000000  0.4810680000000 1.0
C      1  0.5607410000000  0.4873580000000  0.4862560000000 1.0
C      1  0.4178040000000  0.5627140000000  0.5188220000000 1.0
C      1  0.4844190000000  0.4721120000000  0.5627070000000 1.0
C      1  0.4764390000000  0.5064900000000  0.4334290000000 1.0
C      1  0.5963630000000  0.5325370000000  0.5462370000000 1.0
C      1  0.4803210000000  0.4413140000000  0.5968500000000 1.0
C      1  0.4661870000000  0.4196170000000  0.5830270000000 1.0
C      1  0.4248210000000  0.4249270000000  0.4687380000000 1.0
C      1  0.5165690000000  0.5412380000000  0.5119100000000 1.0
C      1  0.5524910000000  0.5228720000000  0.4047050000000 1.0
C      1  0.5913850000000  0.5565400000000  0.5031230000000 1.0
C      1  0.5205140000000  0.4179110000000  0.4454980000000 1.0
C      1  0.4209250000000  0.5862410000000  0.4694840000000 1.0
C      1  0.4996250000000  0.6162870000000  0.4903950000000 1.0
C      1  0.5531150000000  0.4599650000000  0.4843420000000 1.0
C      1  0.5840910000000  0.4272890000000  0.4949090000000 1.0
C      1  0.5127200000000  0.4580630000000  0.4042870000000 1.0
C      1  0.5166670000000  0.5308240000000  0.4475720000000 1.0
C      1  0.5252620000000  0.4599160000000  0.5170360000000 1.0
C      1  0.5204250000000  0.5636680000000  0.5806700000000 1.0
C      1  0.4543820000000  0.5195750000000  0.5290350000000 1.0
C      1  0.4814460000000  0.4465900000000  0.5222850000000 1.0
C      1  0.5367950000000  0.5704920000000  0.4250260000000 1.0
C      1  0.5425230000000  0.4418160000000  0.5035960000000 1.0
C      1  0.4444550000000  0.5117700000000  0.5880030000000 1.0
C      1  0.4688470000000  0.5039180000000  0.4612080000000 1.0
C      1  0.5372820000000  0.5981770000000  0.5468270000000 1.0
C      1  0.5567430000000  0.5138530000000  0.4311690000000 1.0
C      1  0.5742170000000  0.5531550000000  0.5473420000000 1.0
C      1  0.4591350000000  0.5846830000000  0.4998670000000 1.0
C      1  0.3851880000000  0.5064560000000  0.4775230000000 1.0
C      1  0.4747410000000  0.4693990000000  0.5889200000000 1.0
C      1  0.5051220000000  0.5075460000000  0.4357710000000 1.0
C      1  0.4248280000000  0.5269600000000  0.4828740000000 1.0
C      1  0.5539930000000  0.5296880000000  0.5761620000000 1.0
C      1  0.4703490000000  0.5318180000000  0.4728260000000 1.0
C      1  0.5465730000000  0.4880450000000  0.5764890000000 1.0
C      1  0.5416770000000  0.5269060000000  0.5494580000000 1.0
C      1  0.4854120000000  0.5412860000000  0.4059430000000 1.0
C      1  0.5412800000000  0.5833600000000  0.5713970000000 1.0
C      1  0.4572960000000  0.4187210000000  0.4943870000000 1.0
C      1  0.3902520000000  0.5189420000000  0.5280120000000 1.0
C      1  0.5751250000000  0.4268980000000  0.4480060000000 1.0
C      1  0.4895270000000  0.4634810000000  0.4540560000000 1.0
C      1  0.5925840000000  0.4452520000000  0.5365190000000 1.0
C      1  0.5368540000000  0.4540000000000  0.4616620000000 1.0
C      1  0.5366110000000  0.5482860000000  0.4054420000000 1.0
C      1  0.5565910000000  0.4555030000000  0.5724550000000 1.0
C      1  0.4777620000000  0.5637440000000  0.5123350000000 1.0
C      1  0.4456430000000  0.4823250000000  0.4089210000000 1.0
C      1  0.4944830000000  0.4127440000000  0.4572350000000 1.0
C      1  0.5647550000000  0.4825470000000  0.5317730000000 1.0
C      1  0.4728600000000  0.5177890000000  0.5512820000000 1.0
C      1  0.6053180000000  0.5370700000000  0.5192850000000 1.0
C      1  0.5048570000000  0.6142430000000  0.5168610000000 1.0
C      1  0.5676880000000  0.5686650000000  0.5729570000000 1.0
C      1  0.5487840000000  0.5977810000000  0.4961060000000 1.0
C      1  0.5118810000000  0.5353400000000  0.3969960000000 1.0
C      1  0.4863410000000  0.3998840000000  0.5282510000000 1.0
C      1  0.4421670000000  0.5418520000000  0.4662260000000 1.0
C      1  0.5058460000000  0.5576520000000  0.5564580000000 1.0
C      1  0.5536000000000  0.5745960000000  0.4492420000000 1.0
C      1  0.4798670000000  0.4211610000000  0.5110950000000 1.0
C      1  0.4992840000000  0.5177770000000  0.5044030000000 1.0
C      1  0.4927810000000  0.4980690000000  0.5484170000000 1.0
C      1  0.4686350000000  0.4896360000000  0.3960250000000 1.0
C      1  0.6046480000000  0.4635270000000  0.5170330000000 1.0
C      1  0.4404840000000  0.4692510000000  0.4617610000000 1.0
C      1  0.5432940000000  0.5064180000000  0.4797200000000 1.0
C      1  0.4306960000000  0.5316170000000  0.5399130000000 1.0
C      1  0.4196290000000  0.4798450000000  0.4802950000000 1.0
C      1  0.4350820000000  0.4827060000000  0.4343610000000 1.0
C      1  0.5341610000000  0.3933060000000  0.5400790000000 1.0
C      1  0.4910250000000  0.4946190000000  0.5201750000000 1.0
C      1  0.4659340000000  0.4962790000000  0.6006610000000 1.0
C      1  0.5089390000000  0.4669230000000  0.4940520000000 1.0
C      1  0.5984760000000  0.4953050000000  0.4578980000000 1.0
C      1  0.5051910000000  0.5675950000000  0.4713200000000 1.0
C      1  0.5276480000000  0.4402450000000  0.4241840000000 1.0
C      1  0.5312570000000  0.5395990000000  0.5929030000000 1.0
C      1  0.5359920000000  0.4812110000000  0.5322230000000 1.0
C      1  0.5433350000000  0.4332420000000  0.5586300000000 1.0
C      1  0.4797280000000  0.5706960000000  0.5469920000000 1.0
C      1  0.3976630000000  0.4379440000000  0.4752420000000 1.0
C      1  0.5212610000000  0.4692870000000  0.6088410000000 1.0
C      1  0.5342140000000  0.4144670000000  0.4932270000000 1.0
C      1  0.4958790000000  0.5473920000000  0.4559150000000 1.0
C      1  0.5648040000000  0.5509610000000  0.4600750000000 1.0
C      1  0.5971300000000  0.4529660000000  0.4899780000000 1.0
C      1  0.6034460000000  0.5097460000000  0.5062490000000 1.0
C      1  0.5768700000000  0.4648980000000  0.5524180000000 1.0
C      1  0.4308300000000  0.5009490000000  0.4947300000000 1.0
C      1  0.4751690000000  0.4500400000000  0.4267790000000 1.0
C      1  0.5210480000000  0.6120740000000  0.4694930000000 1.0
C      1  0.4579800000000  0.4304280000000  0.4328970000000 1.0
C      1  0.4403020000000  0.4250300000000  0.5686230000000 1.0
C      1  0.5334890000000  0.4483980000000  0.5975600000000 1.0
C      1  0.4635160000000  0.3931650000000  0.5453030000000 1.0
C      1  0.5046820000000  0.5932510000000  0.4535980000000 1.0
C      1  0.4345900000000  0.5751590000000  0.4422160000000 1.0
C      1  0.4304680000000  0.5463300000000  0.4390100000000 1.0
C      1  0.4062620000000  0.4563740000000  0.4958360000000 1.0
C      1  0.5792010000000  0.4230680000000  0.5233000000000 1.0
C      1  0.5052630000000  0.4015140000000  0.5517330000000 1.0
C      1  0.5126340000000  0.5191930000000  0.6029620000000 1.0
C      1  0.5845630000000  0.5059330000000  0.4307610000000 1.0
C      1  0.5094470000000  0.4484690000000  0.4705330000000 1.0
C      1  0.4825410000000  0.4641660000000  0.4016730000000 1.0
C      1  0.5797330000000  0.4535460000000  0.4416320000000 1.0
C      1  0.4108740000000  0.5149390000000  0.5502160000000 1.0
C      1  0.4676710000000  0.4085820000000  0.4681790000000 1.0
C      1  0.3986050000000  0.4880640000000  0.4560170000000 1.0
C      1  0.5949130000000  0.4671620000000  0.4636220000000 1.0
C      1  0.5877190000000  0.5437390000000  0.4763310000000 1.0
C      1  0.5705650000000  0.5052490000000  0.5737960000000 1.0
C      1  0.5930850000000  0.5043090000000  0.5537140000000 1.0
C      1  0.5467710000000  0.5983270000000  0.4689680000000 1.0
C      1  0.4558040000000  0.5586720000000  0.5605040000000 1.0
C      1  0.5277680000000  0.5094520000000  0.3915390000000 1.0
C      1  0.4312680000000  0.5784790000000  0.4983870000000 1.0
C      1  0.5294740000000  0.4940660000000  0.6016960000000 1.0
C      1  0.4862210000000  0.5631760000000  0.4265860000000 1.0
C      1  0.5493360000000  0.4563070000000  0.4350240000000 1.0
C      1  0.4646150000000  0.5196090000000  0.4098420000000 1.0
C      1  0.3824860000000  0.5036360000000  0.5054540000000 1.0
C      1  0.6060850000000  0.4900510000000  0.5296950000000 1.0
C      1  0.5427030000000  0.4087590000000  0.4652850000000 1.0
C      1  0.4717970000000  0.6049970000000  0.4828590000000 1.0
C      1  0.5227030000000  0.5448970000000  0.5385500000000 1.0
C      1  0.4805630000000  0.4719420000000  0.5055050000000 1.0
C      1  0.4680080000000  0.4769040000000  0.4731150000000 1.0
C      1  0.4160950000000  0.5030340000000  0.4299310000000 1.0
END
