TITL C-884137-4758-194 -2.48680892546017 125000 -10480.9550814564 0 0 70 (C1) n - 1
REM
REM in /home/nfs/bkarasulu/CARBON/AIRSS/Generating-Clusters/ReaxFF-fromJPCA2015/Units_Real/with-SteepDescent/Only-C1/SD-CG/Try1-3A/FIRE-CG
REM
REM
REM
REM
REM
REM ./C.cell (11c1c37f851c82e70ff6c80c92926a4b)
REM
REM compiler GCC version 9.2.1 20190827 (Red Hat 9.2.1-1)
REM options -cpp -mtune=generic -march=x86-64 -g -O0 -fpre-include=/usr/include/finclude/math-vector-fortran.h
REM seed -965345002 730100244 -1907949678 -1310943679 838670431 -1005157423 -599512626 -1379761785 542914555 1837829056 -1961899818 694361019 -1660058405 -1756174513 75465387 1959565932 -72827848 -1350361800 -1138644972 1991415723 -246627978 1114017855 -656264758 -197157494 -1824445308 439394911 1067640446 1646025461 -615400113 -97336643 690518184 137702967 2124645901
REM
CELL 1.54180   50.00000   50.00000   50.00000   90.00000   90.00000   90.00000
LATT -1
SFAC C  
C      1  0.4224650000000  0.5048280000000  0.4767640000000 1.0
C      1  0.4437570000000  0.5065240000000  0.5389090000000 1.0
C      1  0.5216300000000  0.4792860000000  0.4739520000000 1.0
C      1  0.4282630000000  0.4648010000000  0.5106640000000 1.0
C      1  0.4658900000000  0.5417270000000  0.5547290000000 1.0
C      1  0.5268380000000  0.5260830000000  0.5725500000000 1.0
C      1  0.4697530000000  0.5742240000000  0.5292130000000 1.0
C      1  0.5323460000000  0.4506780000000  0.5260110000000 1.0
C      1  0.5106420000000  0.4485040000000  0.4720320000000 1.0
C      1  0.4770610000000  0.5376640000000  0.4702300000000 1.0
C      1  0.4651620000000  0.5125190000000  0.5582670000000 1.0
C      1  0.4710210000000  0.4780120000000  0.4376860000000 1.0
C      1  0.4821300000000  0.4632990000000  0.5468490000000 1.0
C      1  0.4558660000000  0.4567750000000  0.5414680000000 1.0
C      1  0.5171090000000  0.4383820000000  0.4457610000000 1.0
C      1  0.4609920000000  0.5052770000000  0.4384850000000 1.0
C      1  0.5540300000000  0.4628680000000  0.5107010000000 1.0
C      1  0.4371700000000  0.5299360000000  0.5221380000000 1.0
C      1  0.4298840000000  0.5285580000000  0.4933580000000 1.0
C      1  0.4737660000000  0.4942440000000  0.5015230000000 1.0
C      1  0.4371640000000  0.5162710000000  0.4536630000000 1.0
C      1  0.5416170000000  0.4463670000000  0.4366440000000 1.0
C      1  0.4995510000000  0.5326110000000  0.5169000000000 1.0
C      1  0.5183610000000  0.4940500000000  0.4288170000000 1.0
C      1  0.4969940000000  0.4756510000000  0.4239350000000 1.0
C      1  0.4856160000000  0.4160000000000  0.5090630000000 1.0
C      1  0.4464550000000  0.4430500000000  0.5166500000000 1.0
C      1  0.5366380000000  0.5643310000000  0.5440170000000 1.0
C      1  0.4803950000000  0.4430180000000  0.4756930000000 1.0
C      1  0.5141080000000  0.4859270000000  0.5572130000000 1.0
C      1  0.4832010000000  0.5200960000000  0.4964700000000 1.0
C      1  0.5769830000000  0.5121250000000  0.5045790000000 1.0
C      1  0.5338320000000  0.4323040000000  0.4878900000000 1.0
C      1  0.5558120000000  0.4504160000000  0.4834440000000 1.0
C      1  0.5702700000000  0.5288450000000  0.5285420000000 1.0
C      1  0.5066940000000  0.4020200000000  0.5214000000000 1.0
C      1  0.4824920000000  0.5237720000000  0.4434010000000 1.0
C      1  0.5403840000000  0.4888020000000  0.4527530000000 1.0
C      1  0.4825640000000  0.5821180000000  0.5069180000000 1.0
C      1  0.5677630000000  0.4877100000000  0.5193210000000 1.0
C      1  0.5128960000000  0.5491680000000  0.5633950000000 1.0
C      1  0.5556950000000  0.4619590000000  0.4565460000000 1.0
C      1  0.5184080000000  0.4966140000000  0.4958240000000 1.0
C      1  0.4979370000000  0.5603870000000  0.4685720000000 1.0
C      1  0.5430350000000  0.5456270000000  0.4933870000000 1.0
C      1  0.4579200000000  0.4807150000000  0.4825460000000 1.0
C      1  0.5246150000000  0.5238900000000  0.5060770000000 1.0
C      1  0.4656640000000  0.4300970000000  0.4971940000000 1.0
C      1  0.5610720000000  0.5040540000000  0.5426650000000 1.0
C      1  0.5063140000000  0.4687470000000  0.5363110000000 1.0
C      1  0.5292900000000  0.4245980000000  0.5153940000000 1.0
C      1  0.4357120000000  0.4787530000000  0.5354870000000 1.0
C      1  0.4911490000000  0.5510100000000  0.5409400000000 1.0
C      1  0.4456860000000  0.5384280000000  0.4704950000000 1.0
C      1  0.4313890000000  0.4773650000000  0.4837220000000 1.0
C      1  0.5646760000000  0.5260690000000  0.4820460000000 1.0
C      1  0.5313920000000  0.5359830000000  0.4504610000000 1.0
C      1  0.4636800000000  0.4631120000000  0.4623810000000 1.0
C      1  0.5523340000000  0.5177750000000  0.4581030000000 1.0
C      1  0.4981900000000  0.4858650000000  0.5140410000000 1.0
C      1  0.4968190000000  0.5797800000000  0.4863430000000 1.0
C      1  0.5101730000000  0.5208770000000  0.4352080000000 1.0
C      1  0.4488250000000  0.5537400000000  0.5343950000000 1.0
C      1  0.5160770000000  0.4530150000000  0.4222900000000 1.0
C      1  0.5334120000000  0.5895480000000  0.5414780000000 1.0
C      1  0.5527660000000  0.5512760000000  0.5223520000000 1.0
C      1  0.4897570000000  0.4984730000000  0.5675100000000 1.0
C      1  0.5003770000000  0.5232050000000  0.5778820000000 1.0
C      1  0.5251920000000  0.5567400000000  0.4691620000000 1.0
C      1  0.5368790000000  0.5034540000000  0.5591880000000 1.0
END
