TITL C-884141-4321-372 161.023153782228 125000 -25310.4470403341 0 0 171 (C1) n - 1
REM
REM in /home/nfs/bkarasulu/CARBON/AIRSS/Generating-Clusters/ReaxFF-fromJPCA2015/Units_Real/with-SteepDescent/Only-C1/SD-CG/Try1-3A/FIRE-CG
REM
REM
REM
REM
REM
REM ./C.cell (11c1c37f851c82e70ff6c80c92926a4b)
REM
REM compiler GCC version 9.2.1 20190827 (Red Hat 9.2.1-1)
REM options -cpp -mtune=generic -march=x86-64 -g -O0 -fpre-include=/usr/include/finclude/math-vector-fortran.h
REM seed 1837506531 -936492500 -2007466945 -187220577 -417097716 1936972161 2077827988 467802096 -1339075972 1424579684 -775075435 -1678362677 -1881217948 -1824210922 2078156499 1996493883 1389400110 1044011809 1532314021 -112476889 -631826897 -1267769425 -1178802042 1635553444 1285985154 -480143672 -1205163609 1739847390 -1441231634 2029521574 -1122739085 44496073 1435954943
REM
CELL 1.54180   50.00000   50.00000   50.00000   90.00000   90.00000   90.00000
LATT -1
SFAC C  
C      1  0.4335980000000  0.5035750000000  0.4095530000000 1.0
C      1  0.4902220000000  0.4770470000000  0.4127250000000 1.0
C      1  0.4688500000000  0.4658500000000  0.5250220000000 1.0
C      1  0.4127010000000  0.5464240000000  0.4359100000000 1.0
C      1  0.4531970000000  0.5448380000000  0.4553850000000 1.0
C      1  0.5489320000000  0.5100660000000  0.5249690000000 1.0
C      1  0.5541010000000  0.5908200000000  0.5467690000000 1.0
C      1  0.5839910000000  0.5652320000000  0.5188290000000 1.0
C      1  0.4639980000000  0.4130150000000  0.4519510000000 1.0
C      1  0.3900070000000  0.5147440000000  0.4833210000000 1.0
C      1  0.4380200000000  0.4604970000000  0.4431670000000 1.0
C      1  0.6015140000000  0.5049220000000  0.4811390000000 1.0
C      1  0.5734200000000  0.4324780000000  0.5345550000000 1.0
C      1  0.4469930000000  0.4890580000000  0.4963580000000 1.0
C      1  0.5425470000000  0.4460110000000  0.5003990000000 1.0
C      1  0.5860070000000  0.5279730000000  0.5533150000000 1.0
C      1  0.3932740000000  0.4724090000000  0.5059780000000 1.0
C      1  0.4910520000000  0.3831780000000  0.4943970000000 1.0
C      1  0.4619560000000  0.5073150000000  0.4170430000000 1.0
C      1  0.5004580000000  0.5427770000000  0.4210810000000 1.0
C      1  0.4684710000000  0.5174200000000  0.5638760000000 1.0
C      1  0.5315590000000  0.5696210000000  0.4172350000000 1.0
C      1  0.5690990000000  0.5042020000000  0.4725510000000 1.0
C      1  0.4959640000000  0.5082450000000  0.6039630000000 1.0
C      1  0.5241850000000  0.5488950000000  0.5883340000000 1.0
C      1  0.5685220000000  0.5335560000000  0.4168150000000 1.0
C      1  0.5694890000000  0.5178300000000  0.5753520000000 1.0
C      1  0.6015070000000  0.5199300000000  0.5073050000000 1.0
C      1  0.4244610000000  0.5017360000000  0.5484470000000 1.0
C      1  0.5535890000000  0.5286040000000  0.4762440000000 1.0
C      1  0.4079000000000  0.4668800000000  0.5293580000000 1.0
C      1  0.4718730000000  0.4866900000000  0.5983380000000 1.0
C      1  0.4797220000000  0.5830660000000  0.4337520000000 1.0
C      1  0.3919220000000  0.4938290000000  0.4613470000000 1.0
C      1  0.4443370000000  0.5904350000000  0.5570260000000 1.0
C      1  0.3981950000000  0.4688940000000  0.4764540000000 1.0
C      1  0.5109730000000  0.5622860000000  0.5424680000000 1.0
C      1  0.4658980000000  0.5332840000000  0.5887510000000 1.0
C      1  0.5990300000000  0.4616060000000  0.4608260000000 1.0
C      1  0.4621970000000  0.5344020000000  0.5001920000000 1.0
C      1  0.5718880000000  0.4302060000000  0.4603270000000 1.0
C      1  0.5939620000000  0.4553360000000  0.5014360000000 1.0
C      1  0.5295370000000  0.4849650000000  0.4994680000000 1.0
C      1  0.5456110000000  0.5906330000000  0.4970120000000 1.0
C      1  0.4200950000000  0.5308610000000  0.4102790000000 1.0
C      1  0.4893250000000  0.5753450000000  0.5842370000000 1.0
C      1  0.5163970000000  0.5901530000000  0.5078800000000 1.0
C      1  0.5452410000000  0.5273910000000  0.5900560000000 1.0
C      1  0.5618410000000  0.5066800000000  0.4257440000000 1.0
C      1  0.4520470000000  0.5888940000000  0.4779420000000 1.0
C      1  0.5839590000000  0.4291300000000  0.4871060000000 1.0
C      1  0.5441000000000  0.5793150000000  0.4708810000000 1.0
C      1  0.4938360000000  0.4621250000000  0.5087260000000 1.0
C      1  0.4580690000000  0.5504090000000  0.5227950000000 1.0
C      1  0.5423390000000  0.4613500000000  0.5518500000000 1.0
C      1  0.4847240000000  0.5022820000000  0.3991970000000 1.0
C      1  0.5064660000000  0.3908130000000  0.4700700000000 1.0
C      1  0.4165910000000  0.4504060000000  0.4638240000000 1.0
C      1  0.4767450000000  0.5387100000000  0.4743590000000 1.0
C      1  0.4576650000000  0.4750570000000  0.4799470000000 1.0
C      1  0.5162620000000  0.5765830000000  0.4609000000000 1.0
C      1  0.5030830000000  0.4136650000000  0.4246790000000 1.0
C      1  0.4732570000000  0.4146630000000  0.5639660000000 1.0
C      1  0.5890780000000  0.5178460000000  0.4310580000000 1.0
C      1  0.5129270000000  0.5102360000000  0.3994540000000 1.0
C      1  0.4972380000000  0.5125620000000  0.5149370000000 1.0
C      1  0.4528510000000  0.5983270000000  0.5276710000000 1.0
C      1  0.4701420000000  0.5139020000000  0.5162190000000 1.0
C      1  0.5011100000000  0.5571720000000  0.4755030000000 1.0
C      1  0.5593940000000  0.5645160000000  0.5560090000000 1.0
C      1  0.5641400000000  0.5866840000000  0.5185480000000 1.0
C      1  0.5635810000000  0.4642470000000  0.5013230000000 1.0
C      1  0.4885720000000  0.4514570000000  0.4577160000000 1.0
C      1  0.4295520000000  0.5146440000000  0.5780280000000 1.0
C      1  0.5284740000000  0.4841440000000  0.4690950000000 1.0
C      1  0.4327690000000  0.5638660000000  0.5580810000000 1.0
C      1  0.5432920000000  0.4857150000000  0.4166060000000 1.0
C      1  0.4641000000000  0.4027570000000  0.5381610000000 1.0
C      1  0.5150030000000  0.4619930000000  0.5622110000000 1.0
C      1  0.5181250000000  0.4124090000000  0.5205440000000 1.0
C      1  0.4307460000000  0.5620150000000  0.5260450000000 1.0
C      1  0.5911670000000  0.4821580000000  0.5451030000000 1.0
C      1  0.5003430000000  0.5700290000000  0.4163140000000 1.0
C      1  0.4431140000000  0.4972810000000  0.5966770000000 1.0
C      1  0.4539300000000  0.5736050000000  0.4474290000000 1.0
C      1  0.5575020000000  0.4702480000000  0.5793430000000 1.0
C      1  0.4624520000000  0.4381730000000  0.5800650000000 1.0
C      1  0.5121190000000  0.5082590000000  0.4548260000000 1.0
C      1  0.5946730000000  0.5469020000000  0.4987410000000 1.0
C      1  0.4062840000000  0.4933210000000  0.4375000000000 1.0
C      1  0.4062530000000  0.5162650000000  0.5292020000000 1.0
C      1  0.5475680000000  0.4156840000000  0.4525410000000 1.0
C      1  0.4331950000000  0.5546180000000  0.4016790000000 1.0
C      1  0.5206160000000  0.5038710000000  0.5657820000000 1.0
C      1  0.4130990000000  0.5404560000000  0.5147650000000 1.0
C      1  0.5344280000000  0.4016320000000  0.4739820000000 1.0
C      1  0.5820460000000  0.5542510000000  0.5448840000000 1.0
C      1  0.5317080000000  0.4394490000000  0.4068170000000 1.0
C      1  0.4546100000000  0.4098480000000  0.4792380000000 1.0
C      1  0.4667870000000  0.4403650000000  0.4392540000000 1.0
C      1  0.5123280000000  0.4643110000000  0.4526310000000 1.0
C      1  0.4481880000000  0.4843190000000  0.4567890000000 1.0
C      1  0.4897960000000  0.5565990000000  0.5593670000000 1.0
C      1  0.4796290000000  0.4536920000000  0.4838590000000 1.0
C      1  0.5903240000000  0.5494530000000  0.4695300000000 1.0
C      1  0.4237500000000  0.4787220000000  0.4225950000000 1.0
C      1  0.4660080000000  0.5871420000000  0.5739790000000 1.0
C      1  0.5429030000000  0.4050230000000  0.5017760000000 1.0
C      1  0.5055880000000  0.5618870000000  0.5024520000000 1.0
C      1  0.5608490000000  0.5558720000000  0.4608880000000 1.0
C      1  0.5220900000000  0.4584900000000  0.3888780000000 1.0
C      1  0.4508750000000  0.4940420000000  0.5234250000000 1.0
C      1  0.5906730000000  0.4557520000000  0.5323420000000 1.0
C      1  0.4919940000000  0.6084690000000  0.5005390000000 1.0
C      1  0.4385920000000  0.4001870000000  0.5246210000000 1.0
C      1  0.5088010000000  0.5913620000000  0.5373090000000 1.0
C      1  0.5261340000000  0.4135960000000  0.5495780000000 1.0
C      1  0.5699130000000  0.4156540000000  0.5087090000000 1.0
C      1  0.5003730000000  0.4856410000000  0.5558190000000 1.0
C      1  0.4250890000000  0.5398800000000  0.4614290000000 1.0
C      1  0.4948860000000  0.5962760000000  0.4537470000000 1.0
C      1  0.4168260000000  0.4271510000000  0.4816230000000 1.0
C      1  0.5026180000000  0.4060590000000  0.5666620000000 1.0
C      1  0.5545380000000  0.5565010000000  0.4288080000000 1.0
C      1  0.4220680000000  0.4721930000000  0.5521540000000 1.0
C      1  0.4391300000000  0.5432540000000  0.5777480000000 1.0
C      1  0.5425080000000  0.5287980000000  0.5032990000000 1.0
C      1  0.5490670000000  0.4321150000000  0.5508190000000 1.0
C      1  0.4413910000000  0.5865160000000  0.5041090000000 1.0
C      1  0.4514310000000  0.4430250000000  0.5159780000000 1.0
C      1  0.5344650000000  0.5488920000000  0.5547010000000 1.0
C      1  0.4765620000000  0.6037740000000  0.4761270000000 1.0
C      1  0.5369520000000  0.5195140000000  0.5484610000000 1.0
C      1  0.5734080000000  0.4585790000000  0.4496620000000 1.0
C      1  0.4802960000000  0.6054160000000  0.5255090000000 1.0
C      1  0.5170840000000  0.4405970000000  0.5088910000000 1.0
C      1  0.5967480000000  0.5090880000000  0.5338830000000 1.0
C      1  0.4498590000000  0.4608960000000  0.5630810000000 1.0
C      1  0.4678560000000  0.4281540000000  0.4968730000000 1.0
C      1  0.5327090000000  0.4198230000000  0.4266170000000 1.0
C      1  0.4855330000000  0.4045360000000  0.5146710000000 1.0
C      1  0.4306730000000  0.4046070000000  0.4955110000000 1.0
C      1  0.6093110000000  0.4757300000000  0.4821690000000 1.0
C      1  0.4788040000000  0.4554960000000  0.5967270000000 1.0
C      1  0.5305190000000  0.4879530000000  0.3907700000000 1.0
C      1  0.5580890000000  0.4810110000000  0.4611340000000 1.0
C      1  0.4932270000000  0.4529070000000  0.3956880000000 1.0
C      1  0.3897180000000  0.5019520000000  0.5094620000000 1.0
C      1  0.6012550000000  0.5260960000000  0.4563420000000 1.0
C      1  0.4602350000000  0.4472160000000  0.5417230000000 1.0
C      1  0.5168520000000  0.4754560000000  0.4273440000000 1.0
C      1  0.5072680000000  0.4524600000000  0.5903440000000 1.0
C      1  0.5284060000000  0.5946830000000  0.5603540000000 1.0
C      1  0.4948500000000  0.5348630000000  0.5975550000000 1.0
C      1  0.4082840000000  0.5368210000000  0.4859020000000 1.0
C      1  0.5772690000000  0.4899440000000  0.5700020000000 1.0
C      1  0.5161380000000  0.5200700000000  0.4285130000000 1.0
C      1  0.5054610000000  0.4872940000000  0.5099090000000 1.0
C      1  0.4298320000000  0.5685210000000  0.4260960000000 1.0
C      1  0.4719790000000  0.4881360000000  0.5657080000000 1.0
C      1  0.4839560000000  0.4332020000000  0.4148970000000 1.0
C      1  0.5193460000000  0.5784300000000  0.5827590000000 1.0
C      1  0.4718230000000  0.5392790000000  0.5462220000000 1.0
C      1  0.4624140000000  0.5065270000000  0.4459910000000 1.0
C      1  0.5070900000000  0.4247250000000  0.5864410000000 1.0
C      1  0.5486840000000  0.4808390000000  0.5213640000000 1.0
C      1  0.5431940000000  0.4764370000000  0.6029000000000 1.0
C      1  0.4851450000000  0.5126990000000  0.4614510000000 1.0
C      1  0.5264250000000  0.5039590000000  0.5959160000000 1.0
C      1  0.5143090000000  0.5349870000000  0.5087390000000 1.0
C      1  0.4898520000000  0.4009310000000  0.4475920000000 1.0
END
