TITL C-883735-9890-88 -9.08993582835519 125000 -17796.4052598908 0 0 119 (C1) n - 1
REM
REM in /home/nfs/bkarasulu/CARBON/AIRSS/Generating-Clusters/ReaxFF-fromJPCA2015/Units_Real/with-SteepDescent/Only-C1/SD-CG/Try1-3A/FIRE-CG
REM
REM
REM
REM
REM
REM ./C.cell (11c1c37f851c82e70ff6c80c92926a4b)
REM
REM compiler GCC version 9.2.1 20190827 (Red Hat 9.2.1-1)
REM options -cpp -mtune=generic -march=x86-64 -g -O0 -fpre-include=/usr/include/finclude/math-vector-fortran.h
REM seed 1139885537 1910795593 -1619313434 -958567676 -1444125757 1063570974 -1494843155 -1804848276 508998099 -651836291 1533607805 -688080463 6624700 -440967928 -1734255589 -890439087 593441159 -1274548046 -1052223196 1130324426 -969287004 -1257472488 -823795897 1630257022 1139721512 -1221569406 -357467862 -198028577 1170524601 50999227 -1957013872 1518502084 1669731667
REM
CELL 1.54180   50.00000   50.00000   50.00000   90.00000   90.00000   90.00000
LATT -1
SFAC C  
C      1  0.4804060000000  0.4992280000000  0.5067280000000 1.0
C      1  0.4635350000000  0.5212410000000  0.4487190000000 1.0
C      1  0.4491790000000  0.5312650000000  0.4201200000000 1.0
C      1  0.5585790000000  0.5422820000000  0.5648700000000 1.0
C      1  0.4524740000000  0.5623210000000  0.5653720000000 1.0
C      1  0.4245830000000  0.5804410000000  0.5041510000000 1.0
C      1  0.5655510000000  0.5292050000000  0.4383150000000 1.0
C      1  0.4945190000000  0.4452220000000  0.5321100000000 1.0
C      1  0.4739160000000  0.4229600000000  0.5273750000000 1.0
C      1  0.5504910000000  0.5545160000000  0.4341700000000 1.0
C      1  0.4533730000000  0.4978380000000  0.4969350000000 1.0
C      1  0.4642040000000  0.5544100000000  0.4947620000000 1.0
C      1  0.4575120000000  0.5086210000000  0.4074710000000 1.0
C      1  0.4783830000000  0.4603040000000  0.5689390000000 1.0
C      1  0.5416960000000  0.5095190000000  0.5291860000000 1.0
C      1  0.4920460000000  0.5526360000000  0.4797940000000 1.0
C      1  0.4526750000000  0.4643450000000  0.4248000000000 1.0
C      1  0.5092780000000  0.4331910000000  0.5583950000000 1.0
C      1  0.4824020000000  0.4231750000000  0.4422050000000 1.0
C      1  0.4407220000000  0.4735460000000  0.4514350000000 1.0
C      1  0.4192310000000  0.5308680000000  0.5015440000000 1.0
C      1  0.4588050000000  0.4549850000000  0.4695210000000 1.0
C      1  0.4827800000000  0.4996110000000  0.4411500000000 1.0
C      1  0.4515740000000  0.5592350000000  0.4231090000000 1.0
C      1  0.5177890000000  0.4715890000000  0.5910570000000 1.0
C      1  0.5255730000000  0.4097290000000  0.5179610000000 1.0
C      1  0.5515810000000  0.4993340000000  0.5792130000000 1.0
C      1  0.4791110000000  0.5540550000000  0.5730390000000 1.0
C      1  0.5045300000000  0.5092330000000  0.4258220000000 1.0
C      1  0.4469660000000  0.4517900000000  0.4960800000000 1.0
C      1  0.4346810000000  0.5549270000000  0.4934120000000 1.0
C      1  0.5114070000000  0.4488610000000  0.5071030000000 1.0
C      1  0.5378700000000  0.5614580000000  0.4608820000000 1.0
C      1  0.4250020000000  0.4752800000000  0.5346590000000 1.0
C      1  0.4851270000000  0.5269220000000  0.5596310000000 1.0
C      1  0.4127600000000  0.4666120000000  0.4607330000000 1.0
C      1  0.4569040000000  0.5801300000000  0.4372570000000 1.0
C      1  0.4640310000000  0.5934940000000  0.4584360000000 1.0
C      1  0.5489860000000  0.4227390000000  0.5013790000000 1.0
C      1  0.5563090000000  0.4298240000000  0.5508650000000 1.0
C      1  0.4843490000000  0.5418570000000  0.4530760000000 1.0
C      1  0.5049450000000  0.4406030000000  0.4803350000000 1.0
C      1  0.5900120000000  0.5019090000000  0.4673790000000 1.0
C      1  0.5302840000000  0.4175740000000  0.5479240000000 1.0
C      1  0.4586870000000  0.4267690000000  0.4584230000000 1.0
C      1  0.5003150000000  0.5398890000000  0.4285130000000 1.0
C      1  0.4804800000000  0.5064200000000  0.5803710000000 1.0
C      1  0.5250490000000  0.5337480000000  0.5229100000000 1.0
C      1  0.4951630000000  0.4934040000000  0.4837030000000 1.0
C      1  0.5245710000000  0.5529750000000  0.4241310000000 1.0
C      1  0.4531520000000  0.4950600000000  0.5796080000000 1.0
C      1  0.5301090000000  0.4551810000000  0.4385350000000 1.0
C      1  0.4372380000000  0.4553960000000  0.5510170000000 1.0
C      1  0.5321100000000  0.5453430000000  0.5715570000000 1.0
C      1  0.4663780000000  0.5322110000000  0.5378970000000 1.0
C      1  0.4647390000000  0.4815700000000  0.4041140000000 1.0
C      1  0.5858850000000  0.5606360000000  0.5106870000000 1.0
C      1  0.5902560000000  0.4954560000000  0.4952600000000 1.0
C      1  0.4846480000000  0.4702230000000  0.5426030000000 1.0
C      1  0.5319320000000  0.5339710000000  0.4763210000000 1.0
C      1  0.5523600000000  0.4348590000000  0.4750540000000 1.0
C      1  0.5130640000000  0.4640920000000  0.4624910000000 1.0
C      1  0.5852530000000  0.4671570000000  0.4963420000000 1.0
C      1  0.5322850000000  0.5793990000000  0.5019790000000 1.0
C      1  0.5699460000000  0.5137330000000  0.5096860000000 1.0
C      1  0.4699770000000  0.6008730000000  0.4828720000000 1.0
C      1  0.4328670000000  0.5111680000000  0.5662880000000 1.0
C      1  0.4850100000000  0.4780480000000  0.4612400000000 1.0
C      1  0.4093750000000  0.4827310000000  0.4843310000000 1.0
C      1  0.5217620000000  0.4900240000000  0.5287100000000 1.0
C      1  0.4423030000000  0.6029070000000  0.5139150000000 1.0
C      1  0.5249590000000  0.5546480000000  0.5427220000000 1.0
C      1  0.4944610000000  0.4957800000000  0.5339230000000 1.0
C      1  0.4749800000000  0.4448750000000  0.4227110000000 1.0
C      1  0.5187930000000  0.4674660000000  0.4143820000000 1.0
C      1  0.4746730000000  0.5543900000000  0.5211340000000 1.0
C      1  0.5706040000000  0.4585090000000  0.4720270000000 1.0
C      1  0.4304700000000  0.4183560000000  0.4534370000000 1.0
C      1  0.5178900000000  0.5786480000000  0.5273790000000 1.0
C      1  0.5021790000000  0.4482180000000  0.5818090000000 1.0
C      1  0.4505730000000  0.4664220000000  0.5749090000000 1.0
C      1  0.5072440000000  0.4990660000000  0.5896760000000 1.0
C      1  0.5065250000000  0.4208540000000  0.4588470000000 1.0
C      1  0.5660170000000  0.4315480000000  0.5232100000000 1.0
C      1  0.5287540000000  0.4938640000000  0.4214270000000 1.0
C      1  0.5583020000000  0.5230730000000  0.4837510000000 1.0
C      1  0.5816000000000  0.5317270000000  0.4624450000000 1.0
C      1  0.4873840000000  0.5828440000000  0.5296280000000 1.0
C      1  0.4381990000000  0.5364130000000  0.5510540000000 1.0
C      1  0.5296010000000  0.5178550000000  0.5838600000000 1.0
C      1  0.4189240000000  0.5256170000000  0.5298560000000 1.0
C      1  0.5852810000000  0.5350710000000  0.5244060000000 1.0
C      1  0.4167370000000  0.5103640000000  0.4802070000000 1.0
C      1  0.5177420000000  0.5735270000000  0.4774570000000 1.0
C      1  0.4903190000000  0.4632720000000  0.4067960000000 1.0
C      1  0.5127580000000  0.5366230000000  0.4967930000000 1.0
C      1  0.5801940000000  0.4573010000000  0.5233570000000 1.0
C      1  0.4190340000000  0.5008510000000  0.5440280000000 1.0
C      1  0.5264470000000  0.4724440000000  0.5084830000000 1.0
C      1  0.4723660000000  0.6025990000000  0.5102430000000 1.0
C      1  0.4747730000000  0.5790140000000  0.5583730000000 1.0
C      1  0.5617740000000  0.4550930000000  0.5651330000000 1.0
C      1  0.5231700000000  0.4852530000000  0.4820860000000 1.0
C      1  0.4077900000000  0.4372010000000  0.4581150000000 1.0
C      1  0.5402010000000  0.5059250000000  0.4690150000000 1.0
C      1  0.4315350000000  0.4746180000000  0.5056170000000 1.0
C      1  0.5757830000000  0.4727200000000  0.5476230000000 1.0
C      1  0.5659820000000  0.5014490000000  0.5529040000000 1.0
C      1  0.5538550000000  0.5013430000000  0.4397510000000 1.0
C      1  0.5631180000000  0.5754840000000  0.4975440000000 1.0
C      1  0.5461630000000  0.4714920000000  0.5846320000000 1.0
C      1  0.4475460000000  0.4309810000000  0.5385990000000 1.0
C      1  0.5341020000000  0.4294360000000  0.4518460000000 1.0
C      1  0.5739970000000  0.4817010000000  0.4545250000000 1.0
C      1  0.5802370000000  0.5294110000000  0.5522800000000 1.0
C      1  0.4512200000000  0.4295760000000  0.5115410000000 1.0
C      1  0.5809270000000  0.5591360000000  0.4823780000000 1.0
C      1  0.4989540000000  0.4027980000000  0.5125680000000 1.0
C      1  0.4448200000000  0.5030140000000  0.4695330000000 1.0
END
