TITL C-884127-5181-34 -1458370.95634997 125000 -9128.84694698804 0 0 62 (C1) n - 1
REM
REM in /home/nfs/bkarasulu/CARBON/AIRSS/Generating-Clusters/ReaxFF-fromJPCA2015/Units_Real/with-SteepDescent/Only-C1/SD-CG/Try1-3A/FIRE-CG
REM
REM
REM
REM
REM
REM ./C.cell (11c1c37f851c82e70ff6c80c92926a4b)
REM
REM compiler GCC version 9.2.1 20190827 (Red Hat 9.2.1-1)
REM options -cpp -mtune=generic -march=x86-64 -g -O0 -fpre-include=/usr/include/finclude/math-vector-fortran.h
REM seed -1860098633 -1083147859 486694405 337751704 1792230345 325295956 1874565045 1673671979 1984062522 1191663298 749852305 2001743306 944602894 -689707652 -1378347316 180047724 511906474 1897758295 -435782192 -1923802211 -564759933 1165715839 2034169407 319738279 335425551 -1470713342 -295046009 1167764808 -1360531274 -918059975 -1087388266 -67346029 1437962627
REM
CELL 1.54180   50.00000   50.00000   50.00000   90.00000   90.00000   90.00000
LATT -1
SFAC C  
C      1  0.5130710000000  0.4921120000000  0.5470880000000 1.0
C      1  0.5323590000000  0.4890570000000  0.4869750000000 1.0
C      1  0.4414490000000  0.4581160000000  0.5074510000000 1.0
C      1  0.5618490000000  0.5313510000000  0.4734790000000 1.0
C      1  0.4594330000000  0.5584090000000  0.5189940000000 1.0
C      1  0.5621210000000  0.5245310000000  0.5031000000000 1.0
C      1  0.5330890000000  0.5345230000000  0.5596480000000 1.0
C      1  0.4372020000000  0.4996900000000  0.5304830000000 1.0
C      1  0.4747730000000  0.4716660000000  0.4255090000000 1.0
C      1  0.5505800000000  0.5504330000000  0.5105240000000 1.0
C      1  0.4440570000000  0.5427050000000  0.4792550000000 1.0
C      1  0.4693460000000  0.4686880000000  0.4668410000000 1.0
C      1  0.5110690000000  0.5321240000000  0.4491120000000 1.0
C      1  0.4858370000000  0.4981870000000  0.5050260000000 1.0
C      1  0.4530420000000  0.4788480000000  0.4443370000000 1.0
C      1  0.5572690000000  0.4837060000000  0.5547820000000 1.0
C      1  0.4579100000000  0.5190950000000  0.5462650000000 1.0
C      1  0.4876170000000  0.4861000000000  0.5615580000000 1.0
C      1  0.4911890000000  0.4866840000000  0.4629120000000 1.0
C      1  0.5044990000000  0.4872640000000  0.4860520000000 1.0
C      1  0.5058180000000  0.5443020000000  0.5280590000000 1.0
C      1  0.5672920000000  0.4691480000000  0.5328630000000 1.0
C      1  0.4998490000000  0.4291550000000  0.4410120000000 1.0
C      1  0.4858170000000  0.5542390000000  0.5076230000000 1.0
C      1  0.5175740000000  0.5117560000000  0.5262800000000 1.0
C      1  0.4644590000000  0.4516350000000  0.4904560000000 1.0
C      1  0.5399950000000  0.5055480000000  0.5089660000000 1.0
C      1  0.4806260000000  0.5129780000000  0.5683000000000 1.0
C      1  0.4182210000000  0.4738270000000  0.4958980000000 1.0
C      1  0.5016130000000  0.4578260000000  0.4298550000000 1.0
C      1  0.4990990000000  0.5564440000000  0.4492670000000 1.0
C      1  0.5470990000000  0.4829570000000  0.4611550000000 1.0
C      1  0.4768810000000  0.5091540000000  0.5233890000000 1.0
C      1  0.5437350000000  0.5542960000000  0.4814890000000 1.0
C      1  0.5764130000000  0.4681320000000  0.4693860000000 1.0
C      1  0.5027430000000  0.5317430000000  0.5697720000000 1.0
C      1  0.4475320000000  0.4725690000000  0.5328760000000 1.0
C      1  0.5621800000000  0.4468820000000  0.5165010000000 1.0
C      1  0.5197260000000  0.4374340000000  0.4629070000000 1.0
C      1  0.4448840000000  0.5067280000000  0.4517870000000 1.0
C      1  0.4678600000000  0.5729470000000  0.4946000000000 1.0
C      1  0.5752540000000  0.4588850000000  0.4947480000000 1.0
C      1  0.4349980000000  0.5175710000000  0.4774840000000 1.0
C      1  0.5170570000000  0.5500880000000  0.4704810000000 1.0
C      1  0.5326600000000  0.4373960000000  0.5148560000000 1.0
C      1  0.5339400000000  0.5511620000000  0.5347010000000 1.0
C      1  0.4614310000000  0.5490380000000  0.5461760000000 1.0
C      1  0.4725270000000  0.4656330000000  0.5467990000000 1.0
C      1  0.5308280000000  0.4694800000000  0.5533530000000 1.0
C      1  0.4701900000000  0.5526580000000  0.4485290000000 1.0
C      1  0.5192470000000  0.4462230000000  0.5387900000000 1.0
C      1  0.4263320000000  0.5017220000000  0.5031270000000 1.0
C      1  0.5517900000000  0.5131700000000  0.5611110000000 1.0
C      1  0.5560710000000  0.5111480000000  0.4531620000000 1.0
C      1  0.4550480000000  0.5620120000000  0.4712090000000 1.0
C      1  0.4919080000000  0.5108000000000  0.4470920000000 1.0
C      1  0.4903950000000  0.4469410000000  0.5332690000000 1.0
C      1  0.4891320000000  0.5516390000000  0.5545820000000 1.0
C      1  0.5258670000000  0.4613530000000  0.4479090000000 1.0
C      1  0.4663880000000  0.5237350000000  0.4429840000000 1.0
C      1  0.5140850000000  0.4354710000000  0.4932230000000 1.0
C      1  0.4876760000000  0.4408870000000  0.5045820000000 1.0
END
