TITL C-883726-8501-295 26.3088978537377 125000 -19644.9164428603 0 0 132 (C1) n - 1
REM
REM in /home/nfs/bkarasulu/CARBON/AIRSS/Generating-Clusters/ReaxFF-fromJPCA2015/Units_Real/with-SteepDescent/Only-C1/SD-CG/Try1-3A/FIRE-CG
REM
REM
REM
REM
REM
REM ./C.cell (11c1c37f851c82e70ff6c80c92926a4b)
REM
REM compiler GCC version 9.2.1 20190827 (Red Hat 9.2.1-1)
REM options -cpp -mtune=generic -march=x86-64 -g -O0 -fpre-include=/usr/include/finclude/math-vector-fortran.h
REM seed 799430546 -1785248671 -1043950099 386063150 1080241096 -482797227 1731294910 82747638 470033353 1479692553 -2134136658 -34936201 -1442508176 1960021655 1280133807 731006707 -1119467024 434199658 567174421 -1159159674 133633332 600238635 1845408163 -1642656142 624971137 2094044764 1127363749 -675226784 423878259 1410210986 -1886291972 2110173432 -526670407
REM
CELL 1.54180   50.00000   50.00000   50.00000   90.00000   90.00000   90.00000
LATT -1
SFAC C  
C      1  0.4407710000000  0.5453840000000  0.4774000000000 1.0
C      1  0.5070870000000  0.4894490000000  0.4893790000000 1.0
C      1  0.4845220000000  0.5500500000000  0.4225500000000 1.0
C      1  0.4217110000000  0.4684290000000  0.4773990000000 1.0
C      1  0.4574550000000  0.5005470000000  0.4060620000000 1.0
C      1  0.4329570000000  0.4407820000000  0.4766030000000 1.0
C      1  0.4984090000000  0.5265940000000  0.4373030000000 1.0
C      1  0.4776770000000  0.4657540000000  0.4764260000000 1.0
C      1  0.5924680000000  0.5330690000000  0.4681300000000 1.0
C      1  0.5670710000000  0.4306660000000  0.4692240000000 1.0
C      1  0.4780210000000  0.5180590000000  0.6041170000000 1.0
C      1  0.5024110000000  0.5369020000000  0.5098120000000 1.0
C      1  0.4916120000000  0.5275160000000  0.5350230000000 1.0
C      1  0.5227840000000  0.4765910000000  0.5596030000000 1.0
C      1  0.4545560000000  0.4266320000000  0.4609190000000 1.0
C      1  0.5350690000000  0.5360100000000  0.4767170000000 1.0
C      1  0.4600130000000  0.4273350000000  0.4319420000000 1.0
C      1  0.5140750000000  0.4535400000000  0.6034920000000 1.0
C      1  0.5784280000000  0.5596570000000  0.5108760000000 1.0
C      1  0.4444160000000  0.5632620000000  0.4519280000000 1.0
C      1  0.4008380000000  0.5096180000000  0.4561270000000 1.0
C      1  0.4565660000000  0.5323720000000  0.5867450000000 1.0
C      1  0.5867910000000  0.5384910000000  0.5280180000000 1.0
C      1  0.5008060000000  0.5911280000000  0.4451620000000 1.0
C      1  0.4867360000000  0.4639100000000  0.6038880000000 1.0
C      1  0.4348370000000  0.4953410000000  0.5685480000000 1.0
C      1  0.5297460000000  0.5328720000000  0.5045850000000 1.0
C      1  0.4887670000000  0.5383070000000  0.4853220000000 1.0
C      1  0.5040470000000  0.5862970000000  0.5172090000000 1.0
C      1  0.5560800000000  0.5180070000000  0.4375610000000 1.0
C      1  0.5777380000000  0.4897770000000  0.5535010000000 1.0
C      1  0.5818580000000  0.4869300000000  0.4418990000000 1.0
C      1  0.5168960000000  0.4231250000000  0.5106210000000 1.0
C      1  0.4561540000000  0.5486810000000  0.4270110000000 1.0
C      1  0.4548350000000  0.4149310000000  0.5521990000000 1.0
C      1  0.5167520000000  0.5552120000000  0.5533360000000 1.0
C      1  0.4769950000000  0.4344130000000  0.4176580000000 1.0
C      1  0.4401430000000  0.4160060000000  0.5268490000000 1.0
C      1  0.5324300000000  0.5852390000000  0.5083140000000 1.0
C      1  0.4843500000000  0.4915290000000  0.6142700000000 1.0
C      1  0.4746920000000  0.4042600000000  0.4989080000000 1.0
C      1  0.5162760000000  0.5184960000000  0.4132530000000 1.0
C      1  0.5371250000000  0.5833020000000  0.4797820000000 1.0
C      1  0.5038440000000  0.5716790000000  0.4231650000000 1.0
C      1  0.4116290000000  0.5460910000000  0.4707920000000 1.0
C      1  0.5243550000000  0.4070110000000  0.4871180000000 1.0
C      1  0.4180880000000  0.5507710000000  0.4433260000000 1.0
C      1  0.4554600000000  0.5879640000000  0.4705120000000 1.0
C      1  0.4601430000000  0.3977550000000  0.4765420000000 1.0
C      1  0.5038300000000  0.4177250000000  0.5681980000000 1.0
C      1  0.5351650000000  0.4770590000000  0.4177650000000 1.0
C      1  0.4489600000000  0.4331880000000  0.5755060000000 1.0
C      1  0.5379300000000  0.4362330000000  0.4519200000000 1.0
C      1  0.5457620000000  0.4839880000000  0.4708120000000 1.0
C      1  0.4607980000000  0.4791620000000  0.5663770000000 1.0
C      1  0.4154480000000  0.4876640000000  0.4586770000000 1.0
C      1  0.4945700000000  0.5699890000000  0.5397150000000 1.0
C      1  0.4658130000000  0.5621870000000  0.5427480000000 1.0
C      1  0.4664860000000  0.4561320000000  0.5837390000000 1.0
C      1  0.5558100000000  0.5102690000000  0.5508040000000 1.0
C      1  0.5389230000000  0.4523200000000  0.5633670000000 1.0
C      1  0.3935590000000  0.5265870000000  0.4805160000000 1.0
C      1  0.5666000000000  0.5383750000000  0.5491060000000 1.0
C      1  0.4856660000000  0.4925270000000  0.4725120000000 1.0
C      1  0.5550980000000  0.5658380000000  0.4363330000000 1.0
C      1  0.4614830000000  0.5026900000000  0.5020090000000 1.0
C      1  0.6101440000000  0.4898390000000  0.4730220000000 1.0
C      1  0.4180510000000  0.5222330000000  0.4349070000000 1.0
C      1  0.6073490000000  0.4866030000000  0.5140700000000 1.0
C      1  0.5593330000000  0.4940200000000  0.4241250000000 1.0
C      1  0.5518350000000  0.4102650000000  0.4805820000000 1.0
C      1  0.5342630000000  0.4751100000000  0.6095040000000 1.0
C      1  0.4197850000000  0.4813230000000  0.5081020000000 1.0
C      1  0.4834070000000  0.4867620000000  0.4015620000000 1.0
C      1  0.5244820000000  0.4690590000000  0.4835980000000 1.0
C      1  0.5405750000000  0.5093260000000  0.5187190000000 1.0
C      1  0.5153830000000  0.5735920000000  0.4629250000000 1.0
C      1  0.4839550000000  0.4093100000000  0.5487150000000 1.0
C      1  0.4849180000000  0.5019680000000  0.4466250000000 1.0
C      1  0.4864090000000  0.4409020000000  0.4615060000000 1.0
C      1  0.5084150000000  0.5437150000000  0.4647790000000 1.0
C      1  0.6004750000000  0.5089660000000  0.4544680000000 1.0
C      1  0.4622690000000  0.4742350000000  0.4988200000000 1.0
C      1  0.5089400000000  0.5278250000000  0.5577030000000 1.0
C      1  0.5559810000000  0.5630810000000  0.4680730000000 1.0
C      1  0.5663220000000  0.5069830000000  0.4999360000000 1.0
C      1  0.4342860000000  0.5150700000000  0.5934580000000 1.0
C      1  0.5265810000000  0.4528410000000  0.4307990000000 1.0
C      1  0.4437060000000  0.5226790000000  0.4202110000000 1.0
C      1  0.5764630000000  0.4500350000000  0.5225360000000 1.0
C      1  0.5828320000000  0.5556800000000  0.4813060000000 1.0
C      1  0.5468300000000  0.5125940000000  0.4639730000000 1.0
C      1  0.4814200000000  0.5986660000000  0.4665720000000 1.0
C      1  0.4706840000000  0.4858070000000  0.4275920000000 1.0
C      1  0.4110760000000  0.4708030000000  0.5693820000000 1.0
C      1  0.5812590000000  0.4515790000000  0.4859110000000 1.0
C      1  0.4145410000000  0.5469400000000  0.5205350000000 1.0
C      1  0.4672150000000  0.5088650000000  0.5310840000000 1.0
C      1  0.5707960000000  0.4714930000000  0.4647530000000 1.0
C      1  0.5294100000000  0.5025520000000  0.5996260000000 1.0
C      1  0.5051190000000  0.5127020000000  0.6127970000000 1.0
C      1  0.5035720000000  0.4779450000000  0.5380900000000 1.0
C      1  0.5153710000000  0.4923130000000  0.5158750000000 1.0
C      1  0.4470940000000  0.5741930000000  0.5231000000000 1.0
C      1  0.5279360000000  0.4495970000000  0.5054730000000 1.0
C      1  0.4403140000000  0.4622690000000  0.5151790000000 1.0
C      1  0.5545400000000  0.5727430000000  0.5230100000000 1.0
C      1  0.4315750000000  0.5587060000000  0.5039860000000 1.0
C      1  0.4529870000000  0.5398500000000  0.5575880000000 1.0
C      1  0.5929220000000  0.4726740000000  0.5355450000000 1.0
C      1  0.4770420000000  0.4852080000000  0.5451110000000 1.0
C      1  0.3984630000000  0.5259530000000  0.5100690000000 1.0
C      1  0.5564210000000  0.4419200000000  0.5431660000000 1.0
C      1  0.4638710000000  0.5235330000000  0.4820700000000 1.0
C      1  0.4319240000000  0.4350190000000  0.5054240000000 1.0
C      1  0.5923420000000  0.5130920000000  0.5114600000000 1.0
C      1  0.4852780000000  0.5981140000000  0.4978260000000 1.0
C      1  0.4384190000000  0.5163610000000  0.5458280000000 1.0
C      1  0.4575710000000  0.5907590000000  0.5001840000000 1.0
C      1  0.5421690000000  0.5313600000000  0.4165360000000 1.0
C      1  0.6067900000000  0.4684280000000  0.4904920000000 1.0
C      1  0.4908390000000  0.4132200000000  0.5196810000000 1.0
C      1  0.4963810000000  0.4469610000000  0.4334720000000 1.0
C      1  0.5462980000000  0.5589800000000  0.5469780000000 1.0
C      1  0.5494550000000  0.4570330000000  0.5213550000000 1.0
C      1  0.5159560000000  0.4250640000000  0.4653440000000 1.0
C      1  0.4269810000000  0.4491520000000  0.5721970000000 1.0
C      1  0.4177450000000  0.5062930000000  0.5212770000000 1.0
C      1  0.5233080000000  0.4348430000000  0.5818090000000 1.0
C      1  0.5278450000000  0.5050790000000  0.5688650000000 1.0
C      1  0.5328370000000  0.5608110000000  0.4191870000000 1.0
C      1  0.5128520000000  0.4914340000000  0.4043160000000 1.0
END
