TITL C-884132-5695-42 4829243.69130679 125000 -27888.0582620181 0 0 188 (C1) n - 1
REM
REM in /home/nfs/bkarasulu/CARBON/AIRSS/Generating-Clusters/ReaxFF-fromJPCA2015/Units_Real/with-SteepDescent/Only-C1/SD-CG/Try1-3A/FIRE-CG
REM
REM
REM
REM
REM
REM ./C.cell (11c1c37f851c82e70ff6c80c92926a4b)
REM
REM compiler GCC version 9.2.1 20190827 (Red Hat 9.2.1-1)
REM options -cpp -mtune=generic -march=x86-64 -g -O0 -fpre-include=/usr/include/finclude/math-vector-fortran.h
REM seed -1755309633 1242710369 -999188782 1685220834 2046447845 -355227567 1403105884 405761211 -1280604631 1018818983 652877320 -1713042361 907455981 484238551 -475412760 -1841223849 1755250511 -1126815225 576620166 -805867420 -1102654839 -1115175155 1057327834 2010610352 -1813172600 -1886545952 -1805536193 -1193899433 -1502408734 1089277098 1204042278 -515897914 -1478539887
REM
CELL 1.54180   50.00000   50.00000   50.00000   90.00000   90.00000   90.00000
LATT -1
SFAC C  
C      1  0.4591740000000  0.6020760000000  0.4932900000000 1.0
C      1  0.4921830000000  0.5613550000000  0.6071370000000 1.0
C      1  0.4953050000000  0.5394110000000  0.4150560000000 1.0
C      1  0.5377270000000  0.5413010000000  0.4852870000000 1.0
C      1  0.4651280000000  0.4429480000000  0.5733480000000 1.0
C      1  0.4240280000000  0.5448510000000  0.5733620000000 1.0
C      1  0.4404310000000  0.4948490000000  0.5000340000000 1.0
C      1  0.5164810000000  0.5850730000000  0.4471950000000 1.0
C      1  0.4178320000000  0.5216580000000  0.4700480000000 1.0
C      1  0.4728320000000  0.4905800000000  0.4467810000000 1.0
C      1  0.5403660000000  0.5180050000000  0.4980180000000 1.0
C      1  0.5030130000000  0.4667420000000  0.4721620000000 1.0
C      1  0.4121930000000  0.4408330000000  0.4682640000000 1.0
C      1  0.5488660000000  0.4825030000000  0.4223260000000 1.0
C      1  0.4655290000000  0.4166320000000  0.5017940000000 1.0
C      1  0.4367570000000  0.4499360000000  0.5729630000000 1.0
C      1  0.5208890000000  0.6177410000000  0.4816080000000 1.0
C      1  0.5388930000000  0.5055540000000  0.5511660000000 1.0
C      1  0.3974910000000  0.5049520000000  0.5611780000000 1.0
C      1  0.4740130000000  0.5926150000000  0.4680590000000 1.0
C      1  0.5070530000000  0.4556270000000  0.5113480000000 1.0
C      1  0.5225050000000  0.5629820000000  0.5988280000000 1.0
C      1  0.5068500000000  0.4414080000000  0.5963130000000 1.0
C      1  0.4986370000000  0.5469560000000  0.5429010000000 1.0
C      1  0.4432350000000  0.4045770000000  0.4848100000000 1.0
C      1  0.5162280000000  0.4813460000000  0.5275390000000 1.0
C      1  0.5787040000000  0.5106630000000  0.5255490000000 1.0
C      1  0.5641850000000  0.5318880000000  0.5905380000000 1.0
C      1  0.5005990000000  0.5553260000000  0.4596160000000 1.0
C      1  0.4154190000000  0.5715960000000  0.4761060000000 1.0
C      1  0.5764470000000  0.4588890000000  0.4761690000000 1.0
C      1  0.4113360000000  0.5097100000000  0.4306220000000 1.0
C      1  0.5661010000000  0.5218240000000  0.4384400000000 1.0
C      1  0.5237180000000  0.5291600000000  0.4094210000000 1.0
C      1  0.4598140000000  0.4347240000000  0.4506720000000 1.0
C      1  0.4754900000000  0.3896410000000  0.5035790000000 1.0
C      1  0.5777730000000  0.4351590000000  0.4585300000000 1.0
C      1  0.5654730000000  0.4464390000000  0.4314640000000 1.0
C      1  0.3924500000000  0.5183130000000  0.5140960000000 1.0
C      1  0.4841940000000  0.5141240000000  0.5598370000000 1.0
C      1  0.5265460000000  0.5786330000000  0.5087880000000 1.0
C      1  0.4431060000000  0.5214850000000  0.4841220000000 1.0
C      1  0.5245860000000  0.4375680000000  0.4954160000000 1.0
C      1  0.5464710000000  0.5635420000000  0.4985380000000 1.0
C      1  0.4012370000000  0.4553090000000  0.5465330000000 1.0
C      1  0.5310060000000  0.4599060000000  0.5961110000000 1.0
C      1  0.5573280000000  0.4578280000000  0.5799270000000 1.0
C      1  0.4918400000000  0.4828530000000  0.4259190000000 1.0
C      1  0.5777050000000  0.5724740000000  0.4953650000000 1.0
C      1  0.5243030000000  0.4911240000000  0.4389410000000 1.0
C      1  0.5495270000000  0.4453860000000  0.5077150000000 1.0
C      1  0.4589960000000  0.4391480000000  0.5199910000000 1.0
C      1  0.5150760000000  0.4815350000000  0.6048330000000 1.0
C      1  0.5268550000000  0.4811710000000  0.4661980000000 1.0
C      1  0.4725840000000  0.4404060000000  0.4123830000000 1.0
C      1  0.5018350000000  0.3869230000000  0.5120990000000 1.0
C      1  0.4841520000000  0.3925500000000  0.4613270000000 1.0
C      1  0.5417470000000  0.5349520000000  0.5517140000000 1.0
C      1  0.4575740000000  0.5430030000000  0.4969120000000 1.0
C      1  0.6024730000000  0.4933920000000  0.5289390000000 1.0
C      1  0.5737160000000  0.4315650000000  0.5202360000000 1.0
C      1  0.5243670000000  0.5394240000000  0.4617540000000 1.0
C      1  0.4046640000000  0.4698730000000  0.4701910000000 1.0
C      1  0.4749720000000  0.4849140000000  0.5942290000000 1.0
C      1  0.4817670000000  0.5615010000000  0.4822020000000 1.0
C      1  0.4857010000000  0.4866130000000  0.5665320000000 1.0
C      1  0.5294450000000  0.6034210000000  0.5283210000000 1.0
C      1  0.5247480000000  0.4505730000000  0.3956390000000 1.0
C      1  0.4301780000000  0.4770540000000  0.5807110000000 1.0
C      1  0.5459810000000  0.5891880000000  0.4541890000000 1.0
C      1  0.4247710000000  0.4074610000000  0.5094520000000 1.0
C      1  0.5692410000000  0.5025620000000  0.5888460000000 1.0
C      1  0.4862890000000  0.5377390000000  0.4427140000000 1.0
C      1  0.4520490000000  0.5143950000000  0.4045470000000 1.0
C      1  0.5691360000000  0.4999030000000  0.4209630000000 1.0
C      1  0.3832830000000  0.5340760000000  0.5361790000000 1.0
C      1  0.3926250000000  0.4311400000000  0.5139150000000 1.0
C      1  0.5189760000000  0.5073670000000  0.5144290000000 1.0
C      1  0.4668700000000  0.5021900000000  0.5116140000000 1.0
C      1  0.4228480000000  0.4369790000000  0.5519960000000 1.0
C      1  0.5584150000000  0.4069370000000  0.5236500000000 1.0
C      1  0.5772210000000  0.4782980000000  0.5738700000000 1.0
C      1  0.5386870000000  0.5387260000000  0.6019680000000 1.0
C      1  0.5127770000000  0.3851840000000  0.4646810000000 1.0
C      1  0.4338010000000  0.4242000000000  0.4608250000000 1.0
C      1  0.4617690000000  0.5664130000000  0.4200960000000 1.0
C      1  0.4856850000000  0.4697750000000  0.4951870000000 1.0
C      1  0.4895900000000  0.5666820000000  0.4068120000000 1.0
C      1  0.4050760000000  0.4203700000000  0.4914200000000 1.0
C      1  0.6153640000000  0.5053230000000  0.5045870000000 1.0
C      1  0.4491010000000  0.5275250000000  0.5804700000000 1.0
C      1  0.4611890000000  0.5885880000000  0.5440090000000 1.0
C      1  0.5203760000000  0.4282090000000  0.4375960000000 1.0
C      1  0.5223380000000  0.5771910000000  0.5728460000000 1.0
C      1  0.6109980000000  0.5345500000000  0.4990950000000 1.0
C      1  0.5417790000000  0.4987640000000  0.5795530000000 1.0
C      1  0.5107440000000  0.5839860000000  0.4153170000000 1.0
C      1  0.5230870000000  0.3887870000000  0.4921490000000 1.0
C      1  0.5533580000000  0.4734310000000  0.5116690000000 1.0
C      1  0.4554460000000  0.5278540000000  0.5225430000000 1.0
C      1  0.5937860000000  0.5609100000000  0.5395150000000 1.0
C      1  0.5256930000000  0.5068460000000  0.3882190000000 1.0
C      1  0.5157660000000  0.4151050000000  0.5535150000000 1.0
C      1  0.5627360000000  0.4360610000000  0.5614050000000 1.0
C      1  0.4204620000000  0.5381820000000  0.4312100000000 1.0
C      1  0.5756260000000  0.4730900000000  0.4279380000000 1.0
C      1  0.5678830000000  0.5706870000000  0.4466050000000 1.0
C      1  0.4990170000000  0.5277130000000  0.5812610000000 1.0
C      1  0.4838250000000  0.4212320000000  0.4611810000000 1.0
C      1  0.5055200000000  0.4724000000000  0.5521520000000 1.0
C      1  0.4668630000000  0.4037920000000  0.5470690000000 1.0
C      1  0.4153260000000  0.5484880000000  0.4583190000000 1.0
C      1  0.5624530000000  0.6041750000000  0.5264970000000 1.0
C      1  0.4548220000000  0.4593550000000  0.4673080000000 1.0
C      1  0.4040500000000  0.4790560000000  0.5654680000000 1.0
C      1  0.5936140000000  0.4730760000000  0.5487930000000 1.0
C      1  0.4705460000000  0.4908790000000  0.4050990000000 1.0
C      1  0.5502620000000  0.3988160000000  0.4960360000000 1.0
C      1  0.5845480000000  0.5149090000000  0.4678090000000 1.0
C      1  0.6082730000000  0.4980720000000  0.4773160000000 1.0
C      1  0.4287400000000  0.4971000000000  0.4099510000000 1.0
C      1  0.4989530000000  0.5718880000000  0.5025650000000 1.0
C      1  0.5845180000000  0.4457570000000  0.5437990000000 1.0
C      1  0.5127320000000  0.5979060000000  0.5548680000000 1.0
C      1  0.5020760000000  0.6045740000000  0.4632180000000 1.0
C      1  0.5452710000000  0.5520810000000  0.4061960000000 1.0
C      1  0.4311970000000  0.5875800000000  0.5415230000000 1.0
C      1  0.5673420000000  0.4076560000000  0.4729000000000 1.0
C      1  0.4452930000000  0.5403490000000  0.4167250000000 1.0
C      1  0.5546550000000  0.4804130000000  0.4830990000000 1.0
C      1  0.5396690000000  0.4405800000000  0.4193620000000 1.0
C      1  0.5000140000000  0.5265440000000  0.5245520000000 1.0
C      1  0.5293900000000  0.5746440000000  0.4056350000000 1.0
C      1  0.4574160000000  0.4645310000000  0.4036770000000 1.0
C      1  0.4115960000000  0.4970650000000  0.5095270000000 1.0
C      1  0.4093770000000  0.4965810000000  0.4567140000000 1.0
C      1  0.4766220000000  0.5406340000000  0.5952470000000 1.0
C      1  0.3980900000000  0.5315210000000  0.5620880000000 1.0
C      1  0.6040480000000  0.4675530000000  0.4735690000000 1.0
C      1  0.4736010000000  0.4462970000000  0.5443840000000 1.0
C      1  0.5777010000000  0.5872570000000  0.5431810000000 1.0
C      1  0.4767520000000  0.5165340000000  0.4589570000000 1.0
C      1  0.4025080000000  0.5672010000000  0.5016430000000 1.0
C      1  0.5686020000000  0.6015230000000  0.4978270000000 1.0
C      1  0.4939680000000  0.3974880000000  0.5380980000000 1.0
C      1  0.3879190000000  0.5456850000000  0.5111950000000 1.0
C      1  0.6101470000000  0.4439420000000  0.4572810000000 1.0
C      1  0.5509010000000  0.3968800000000  0.4539760000000 1.0
C      1  0.4484830000000  0.4974110000000  0.5889530000000 1.0
C      1  0.6011240000000  0.5396020000000  0.4715840000000 1.0
C      1  0.5868180000000  0.5645630000000  0.4675290000000 1.0
C      1  0.5988950000000  0.5568870000000  0.5130810000000 1.0
C      1  0.3965880000000  0.4754760000000  0.4976730000000 1.0
C      1  0.5495490000000  0.6065530000000  0.4766030000000 1.0
C      1  0.5182420000000  0.5490940000000  0.5613150000000 1.0
C      1  0.4280570000000  0.5661060000000  0.5580120000000 1.0
C      1  0.4602410000000  0.5284360000000  0.5518130000000 1.0
C      1  0.4721190000000  0.5994100000000  0.5193040000000 1.0
C      1  0.5258060000000  0.3989100000000  0.4416690000000 1.0
C      1  0.4883460000000  0.5527430000000  0.5200180000000 1.0
C      1  0.5100220000000  0.4367810000000  0.4684160000000 1.0
C      1  0.4179350000000  0.5873150000000  0.5146690000000 1.0
C      1  0.4466630000000  0.4778400000000  0.4475510000000 1.0
C      1  0.4320600000000  0.5931340000000  0.4901730000000 1.0
C      1  0.4750310000000  0.4120820000000  0.5730150000000 1.0
C      1  0.5336110000000  0.5213480000000  0.4403950000000 1.0
C      1  0.5653830000000  0.5494480000000  0.4265030000000 1.0
C      1  0.4824050000000  0.4567500000000  0.5961390000000 1.0
C      1  0.5573950000000  0.4919260000000  0.5332510000000 1.0
C      1  0.5865360000000  0.5354240000000  0.5461210000000 1.0
C      1  0.5019790000000  0.4451390000000  0.5411920000000 1.0
C      1  0.5028760000000  0.4168860000000  0.5802010000000 1.0
C      1  0.4384020000000  0.4174920000000  0.5342610000000 1.0
C      1  0.4828860000000  0.5107950000000  0.4876440000000 1.0
C      1  0.5212870000000  0.5106410000000  0.5990640000000 1.0
C      1  0.5168890000000  0.6248400000000  0.5096330000000 1.0
C      1  0.4354110000000  0.4707080000000  0.4213600000000 1.0
C      1  0.4634600000000  0.3822900000000  0.4794260000000 1.0
C      1  0.4977600000000  0.4406010000000  0.3974420000000 1.0
C      1  0.5457790000000  0.4154090000000  0.5484180000000 1.0
C      1  0.4953550000000  0.4498510000000  0.4239900000000 1.0
C      1  0.5262530000000  0.4788210000000  0.3844090000000 1.0
C      1  0.5663570000000  0.5429000000000  0.5634890000000 1.0
C      1  0.4592240000000  0.5835370000000  0.4424550000000 1.0
C      1  0.3869390000000  0.4574700000000  0.5205000000000 1.0
C      1  0.4570540000000  0.4646410000000  0.4957800000000 1.0
C      1  0.5661650000000  0.5073930000000  0.4921710000000 1.0
C      1  0.4857240000000  0.6048570000000  0.5460770000000 1.0
END
