TITL C-884137-4758-184 1.46351528816882 125000 -9322.9159902734 0 0 63 (C1) n - 1
REM
REM in /home/nfs/bkarasulu/CARBON/AIRSS/Generating-Clusters/ReaxFF-fromJPCA2015/Units_Real/with-SteepDescent/Only-C1/SD-CG/Try1-3A/FIRE-CG
REM
REM
REM
REM
REM
REM ./C.cell (11c1c37f851c82e70ff6c80c92926a4b)
REM
REM compiler GCC version 9.2.1 20190827 (Red Hat 9.2.1-1)
REM options -cpp -mtune=generic -march=x86-64 -g -O0 -fpre-include=/usr/include/finclude/math-vector-fortran.h
REM seed 596350842 -2073672388 -577537430 -1335743567 556146055 268770311 -223332598 -878487489 396541318 1966610603 4548265 69294627 -2056078639 1902917215 -1853910191 180363119 1412451151 -1819987195 -664593320 1893512435 -450600364 194129916 1849364901 756875542 1858664156 1831884938 1243316378 210847346 639968909 -25629705 -134596813 -1548315093 -1332921060
REM
CELL 1.54180   50.00000   50.00000   50.00000   90.00000   90.00000   90.00000
LATT -1
SFAC C  
C      1  0.4588960000000  0.4393860000000  0.5042590000000 1.0
C      1  0.5501300000000  0.4579320000000  0.5426070000000 1.0
C      1  0.4771960000000  0.4745180000000  0.5626820000000 1.0
C      1  0.5394840000000  0.5537610000000  0.4644410000000 1.0
C      1  0.5145510000000  0.5103960000000  0.5145680000000 1.0
C      1  0.5305280000000  0.4881310000000  0.5056460000000 1.0
C      1  0.4882950000000  0.4181470000000  0.4844610000000 1.0
C      1  0.5253670000000  0.4566740000000  0.5542310000000 1.0
C      1  0.4742890000000  0.5003560000000  0.5490650000000 1.0
C      1  0.4512050000000  0.5343680000000  0.5061380000000 1.0
C      1  0.4763640000000  0.4997140000000  0.4767320000000 1.0
C      1  0.5418990000000  0.5064900000000  0.5481250000000 1.0
C      1  0.4851990000000  0.4914900000000  0.4239730000000 1.0
C      1  0.5490050000000  0.4527370000000  0.4528750000000 1.0
C      1  0.4667130000000  0.5277040000000  0.5560950000000 1.0
C      1  0.4986370000000  0.5602880000000  0.5542030000000 1.0
C      1  0.5371100000000  0.5686530000000  0.4902210000000 1.0
C      1  0.4513050000000  0.4913060000000  0.4602190000000 1.0
C      1  0.5090730000000  0.5193460000000  0.5824440000000 1.0
C      1  0.4773400000000  0.5669520000000  0.5352240000000 1.0
C      1  0.5804220000000  0.4906980000000  0.5122390000000 1.0
C      1  0.4990150000000  0.4776120000000  0.4705080000000 1.0
C      1  0.5831270000000  0.4790120000000  0.4863270000000 1.0
C      1  0.4864160000000  0.4593550000000  0.4516860000000 1.0
C      1  0.5368030000000  0.5823610000000  0.4648970000000 1.0
C      1  0.4373050000000  0.4714310000000  0.5333050000000 1.0
C      1  0.5310470000000  0.5121810000000  0.4330460000000 1.0
C      1  0.5460060000000  0.4360060000000  0.5265020000000 1.0
C      1  0.5238070000000  0.4971010000000  0.5699160000000 1.0
C      1  0.5331590000000  0.4696750000000  0.4377010000000 1.0
C      1  0.5169980000000  0.4873680000000  0.4240770000000 1.0
C      1  0.5745750000000  0.4644180000000  0.4616380000000 1.0
C      1  0.4808770000000  0.5207070000000  0.4257110000000 1.0
C      1  0.5218090000000  0.5358710000000  0.4487890000000 1.0
C      1  0.5177130000000  0.5704130000000  0.5122730000000 1.0
C      1  0.4330980000000  0.5107010000000  0.5036060000000 1.0
C      1  0.4710320000000  0.4891320000000  0.5026430000000 1.0
C      1  0.4577390000000  0.4574160000000  0.5495690000000 1.0
C      1  0.5220220000000  0.5558530000000  0.5371380000000 1.0
C      1  0.4650380000000  0.4762580000000  0.4395600000000 1.0
C      1  0.4918530000000  0.5363680000000  0.4489400000000 1.0
C      1  0.4595750000000  0.5439740000000  0.5329630000000 1.0
C      1  0.4717580000000  0.5763040000000  0.4874370000000 1.0
C      1  0.5202450000000  0.4695190000000  0.4866500000000 1.0
C      1  0.5116830000000  0.5984600000000  0.4548650000000 1.0
C      1  0.4874150000000  0.5000670000000  0.5224220000000 1.0
C      1  0.4877990000000  0.4307580000000  0.4579350000000 1.0
C      1  0.4853720000000  0.4308510000000  0.5109050000000 1.0
C      1  0.4610970000000  0.5492230000000  0.4845640000000 1.0
C      1  0.5326450000000  0.4410330000000  0.4767810000000 1.0
C      1  0.5066050000000  0.4709260000000  0.5679140000000 1.0
C      1  0.4777640000000  0.5307710000000  0.4740270000000 1.0
C      1  0.4891520000000  0.5389760000000  0.5721220000000 1.0
C      1  0.4486790000000  0.4696660000000  0.5044820000000 1.0
C      1  0.4256170000000  0.4983680000000  0.5303820000000 1.0
C      1  0.5531340000000  0.4865480000000  0.5277370000000 1.0
C      1  0.5115040000000  0.4230700000000  0.4693730000000 1.0
C      1  0.5308850000000  0.5280190000000  0.5322160000000 1.0
C      1  0.4894140000000  0.5788390000000  0.5112700000000 1.0
C      1  0.4650530000000  0.4345030000000  0.5321040000000 1.0
C      1  0.4348910000000  0.4888000000000  0.4835780000000 1.0
C      1  0.5473560000000  0.4250040000000  0.5016040000000 1.0
C      1  0.4899150000000  0.5880360000000  0.4703900000000 1.0
END
