TITL C-884131-4643-225 -10.5209369682529 125000 -19697.258005666 0 0 131 (C1) n - 1
REM
REM in /home/nfs/bkarasulu/CARBON/AIRSS/Generating-Clusters/ReaxFF-fromJPCA2015/Units_Real/with-SteepDescent/Only-C1/SD-CG/Try1-3A/FIRE-CG
REM
REM
REM
REM
REM
REM ./C.cell (11c1c37f851c82e70ff6c80c92926a4b)
REM
REM compiler GCC version 9.2.1 20190827 (Red Hat 9.2.1-1)
REM options -cpp -mtune=generic -march=x86-64 -g -O0 -fpre-include=/usr/include/finclude/math-vector-fortran.h
REM seed -964700199 1967791282 -106248236 -793607483 -2015767384 -2059273585 -697158350 867651464 1365422054 1212784986 -370555730 2047023699 601000785 -2133242131 -722138932 -169884815 -1372384603 -461800217 -321781974 1559723553 620204685 -1051155728 -426952189 -100692514 -1304870222 1749273753 -804572512 -1052252414 1533792372 1164064498 1952763337 1607294924 812564775
REM
CELL 1.54180   50.00000   50.00000   50.00000   90.00000   90.00000   90.00000
LATT -1
SFAC C  
C      1  0.4284250000000  0.5550840000000  0.5099710000000 1.0
C      1  0.5100750000000  0.5671610000000  0.4469140000000 1.0
C      1  0.4460220000000  0.5732120000000  0.5174770000000 1.0
C      1  0.4056780000000  0.5251740000000  0.4738140000000 1.0
C      1  0.5345050000000  0.4251780000000  0.5503010000000 1.0
C      1  0.4812690000000  0.4072860000000  0.5368310000000 1.0
C      1  0.4771700000000  0.4846880000000  0.4684490000000 1.0
C      1  0.5125830000000  0.4435540000000  0.5105850000000 1.0
C      1  0.4827940000000  0.4149900000000  0.5640340000000 1.0
C      1  0.4745210000000  0.4984390000000  0.5317710000000 1.0
C      1  0.5272330000000  0.5987570000000  0.5082280000000 1.0
C      1  0.4945400000000  0.5481330000000  0.5251810000000 1.0
C      1  0.4983240000000  0.4360500000000  0.4377780000000 1.0
C      1  0.5620830000000  0.5252200000000  0.4400110000000 1.0
C      1  0.4844990000000  0.5223030000000  0.5151460000000 1.0
C      1  0.5132770000000  0.4210650000000  0.5684080000000 1.0
C      1  0.4381400000000  0.4493640000000  0.5613820000000 1.0
C      1  0.4615960000000  0.5746290000000  0.4726710000000 1.0
C      1  0.5927330000000  0.4836020000000  0.5360000000000 1.0
C      1  0.4812630000000  0.5589060000000  0.5853210000000 1.0
C      1  0.5146280000000  0.5396610000000  0.4094290000000 1.0
C      1  0.5984590000000  0.5048390000000  0.4843530000000 1.0
C      1  0.5058750000000  0.4940430000000  0.3961030000000 1.0
C      1  0.4610810000000  0.4135630000000  0.4756510000000 1.0
C      1  0.4611960000000  0.4520850000000  0.5063100000000 1.0
C      1  0.4155990000000  0.4912000000000  0.5519820000000 1.0
C      1  0.4205790000000  0.4392830000000  0.4868340000000 1.0
C      1  0.4727520000000  0.4409030000000  0.4815070000000 1.0
C      1  0.4073380000000  0.5134130000000  0.5001460000000 1.0
C      1  0.4603660000000  0.4323920000000  0.5629300000000 1.0
C      1  0.5881710000000  0.4836480000000  0.4670180000000 1.0
C      1  0.5420630000000  0.5805400000000  0.5467070000000 1.0
C      1  0.4171950000000  0.5302400000000  0.5215000000000 1.0
C      1  0.5363190000000  0.5281670000000  0.5386580000000 1.0
C      1  0.5545160000000  0.4204920000000  0.5046610000000 1.0
C      1  0.4800290000000  0.5880720000000  0.4901290000000 1.0
C      1  0.5098620000000  0.5576000000000  0.5828680000000 1.0
C      1  0.5590570000000  0.5445890000000  0.5517480000000 1.0
C      1  0.4568320000000  0.5476020000000  0.5757650000000 1.0
C      1  0.5739690000000  0.4418640000000  0.5044310000000 1.0
C      1  0.5631630000000  0.5649630000000  0.5000980000000 1.0
C      1  0.4838670000000  0.4850600000000  0.4161040000000 1.0
C      1  0.4359860000000  0.4387710000000  0.5123250000000 1.0
C      1  0.5038270000000  0.5943570000000  0.5524240000000 1.0
C      1  0.5724570000000  0.5080820000000  0.5769550000000 1.0
C      1  0.5113800000000  0.5107430000000  0.4976940000000 1.0
C      1  0.5495990000000  0.4574360000000  0.5807830000000 1.0
C      1  0.4759960000000  0.4020330000000  0.4971120000000 1.0
C      1  0.5256890000000  0.4207990000000  0.5192650000000 1.0
C      1  0.4827740000000  0.5405220000000  0.4096040000000 1.0
C      1  0.5486140000000  0.4907190000000  0.4613290000000 1.0
C      1  0.4088070000000  0.4738200000000  0.5294510000000 1.0
C      1  0.4332740000000  0.4780660000000  0.5709650000000 1.0
C      1  0.4940520000000  0.4735440000000  0.5748860000000 1.0
C      1  0.4226810000000  0.5190790000000  0.5477220000000 1.0
C      1  0.4223540000000  0.4489950000000  0.5358210000000 1.0
C      1  0.5281940000000  0.4909550000000  0.5614820000000 1.0
C      1  0.5757450000000  0.4589400000000  0.4807810000000 1.0
C      1  0.5727200000000  0.4981040000000  0.4465900000000 1.0
C      1  0.5546610000000  0.5310070000000  0.5772090000000 1.0
C      1  0.5276090000000  0.5794020000000  0.4667800000000 1.0
C      1  0.4617140000000  0.5228480000000  0.4093170000000 1.0
C      1  0.4589930000000  0.4971940000000  0.4876820000000 1.0
C      1  0.5819960000000  0.5446910000000  0.5085040000000 1.0
C      1  0.4442880000000  0.5520930000000  0.4818550000000 1.0
C      1  0.4976260000000  0.4436940000000  0.4671680000000 1.0
C      1  0.5158590000000  0.5532150000000  0.5083760000000 1.0
C      1  0.5627280000000  0.4821750000000  0.5824250000000 1.0
C      1  0.4342450000000  0.4464890000000  0.4450750000000 1.0
C      1  0.4524640000000  0.4474790000000  0.4209120000000 1.0
C      1  0.5076740000000  0.4663920000000  0.5250640000000 1.0
C      1  0.5458220000000  0.4121980000000  0.4539710000000 1.0
C      1  0.5491460000000  0.4710180000000  0.4829950000000 1.0
C      1  0.5067900000000  0.4864860000000  0.4741990000000 1.0
C      1  0.5565300000000  0.4906540000000  0.5070950000000 1.0
C      1  0.4714970000000  0.4260940000000  0.4247770000000 1.0
C      1  0.4978170000000  0.4024380000000  0.5154590000000 1.0
C      1  0.5178960000000  0.5365370000000  0.4839600000000 1.0
C      1  0.5406430000000  0.5714420000000  0.5172230000000 1.0
C      1  0.4434830000000  0.5230920000000  0.5680810000000 1.0
C      1  0.5572370000000  0.4424630000000  0.5567180000000 1.0
C      1  0.5535310000000  0.5657350000000  0.4733060000000 1.0
C      1  0.5870070000000  0.5320480000000  0.4828450000000 1.0
C      1  0.5822630000000  0.5341960000000  0.5362370000000 1.0
C      1  0.5261580000000  0.6044760000000  0.5365100000000 1.0
C      1  0.4655360000000  0.5259680000000  0.4865990000000 1.0
C      1  0.5096160000000  0.5933910000000  0.4861850000000 1.0
C      1  0.4068570000000  0.4846760000000  0.5022920000000 1.0
C      1  0.4451720000000  0.4998350000000  0.4114360000000 1.0
C      1  0.5356010000000  0.4714520000000  0.4276230000000 1.0
C      1  0.4876070000000  0.5793330000000  0.4327540000000 1.0
C      1  0.5228320000000  0.4886360000000  0.4493640000000 1.0
C      1  0.5170100000000  0.4562790000000  0.4862320000000 1.0
C      1  0.5279640000000  0.4212240000000  0.4342230000000 1.0
C      1  0.5685690000000  0.5427680000000  0.4623560000000 1.0
C      1  0.4962560000000  0.4593010000000  0.4155410000000 1.0
C      1  0.5890170000000  0.4945830000000  0.5100780000000 1.0
C      1  0.4352220000000  0.4257410000000  0.4661580000000 1.0
C      1  0.4873530000000  0.4764820000000  0.5457390000000 1.0
C      1  0.4675550000000  0.5697450000000  0.5640620000000 1.0
C      1  0.4591450000000  0.4743790000000  0.4077070000000 1.0
C      1  0.5194880000000  0.4696770000000  0.4028070000000 1.0
C      1  0.5192210000000  0.5177420000000  0.5595820000000 1.0
C      1  0.4244250000000  0.4720000000000  0.4533880000000 1.0
C      1  0.4129730000000  0.4670210000000  0.4795780000000 1.0
C      1  0.4607560000000  0.4814410000000  0.5124300000000 1.0
C      1  0.5213510000000  0.5774400000000  0.5667820000000 1.0
C      1  0.4234320000000  0.5438860000000  0.4644150000000 1.0
C      1  0.5397920000000  0.5295880000000  0.4204620000000 1.0
C      1  0.4189040000000  0.5204460000000  0.4493660000000 1.0
C      1  0.5741340000000  0.4561930000000  0.5343480000000 1.0
C      1  0.4708870000000  0.5010490000000  0.4451330000000 1.0
C      1  0.5887180000000  0.5087900000000  0.5496810000000 1.0
C      1  0.4833750000000  0.5752620000000  0.5408300000000 1.0
C      1  0.5230300000000  0.5312910000000  0.5861260000000 1.0
C      1  0.4785210000000  0.4930480000000  0.5923010000000 1.0
C      1  0.5005700000000  0.5102580000000  0.5954250000000 1.0
C      1  0.4500800000000  0.4984660000000  0.5815560000000 1.0
C      1  0.5225580000000  0.4722180000000  0.5832800000000 1.0
C      1  0.4670020000000  0.5621900000000  0.4209790000000 1.0
C      1  0.4360880000000  0.4977340000000  0.4410700000000 1.0
C      1  0.5539520000000  0.4735140000000  0.5277070000000 1.0
C      1  0.5249940000000  0.5160900000000  0.3976540000000 1.0
C      1  0.5534180000000  0.4156280000000  0.4786000000000 1.0
C      1  0.5035620000000  0.5410410000000  0.4585980000000 1.0
C      1  0.5414120000000  0.4444840000000  0.4323620000000 1.0
C      1  0.5362680000000  0.5130790000000  0.5135640000000 1.0
C      1  0.4780200000000  0.5263860000000  0.4591080000000 1.0
C      1  0.5307000000000  0.4752260000000  0.5384970000000 1.0
C      1  0.4679150000000  0.5891050000000  0.5169060000000 1.0
C      1  0.4636700000000  0.5783850000000  0.4449800000000 1.0
END
