TITL C-884130-5973-181 114.712133695603 125000 -20716.1453656182 0 0 142 (C1) n - 1
REM
REM in /home/nfs/bkarasulu/CARBON/AIRSS/Generating-Clusters/ReaxFF-fromJPCA2015/Units_Real/with-SteepDescent/Only-C1/SD-CG/Try1-3A/FIRE-CG
REM
REM
REM
REM
REM
REM ./C.cell (11c1c37f851c82e70ff6c80c92926a4b)
REM
REM compiler GCC version 9.2.1 20190827 (Red Hat 9.2.1-1)
REM options -cpp -mtune=generic -march=x86-64 -g -O0 -fpre-include=/usr/include/finclude/math-vector-fortran.h
REM seed -1659711352 1253750809 -1302140001 -36905565 -644113158 -1380860676 1876445442 1810247840 -1681267704 1934917745 659120448 -1405130448 -104489304 428888268 1532734346 609701464 1841655510 -841820984 1036387351 -713072181 -33592170 -1651192216 -1659904905 237444346 1812905547 1637859799 195415037 865011263 -1683055677 -2045820094 1736762624 -1357901572 -1988880403
REM
CELL 1.54180   50.00000   50.00000   50.00000   90.00000   90.00000   90.00000
LATT -1
SFAC C  
C      1  0.5338460000000  0.5115830000000  0.5306330000000 1.0
C      1  0.5386370000000  0.4323850000000  0.4987120000000 1.0
C      1  0.5595530000000  0.5037110000000  0.5755020000000 1.0
C      1  0.5716030000000  0.4645220000000  0.5648050000000 1.0
C      1  0.4986610000000  0.4748960000000  0.4266830000000 1.0
C      1  0.4867300000000  0.5325600000000  0.5478680000000 1.0
C      1  0.5265470000000  0.4866290000000  0.5408640000000 1.0
C      1  0.4439980000000  0.4251740000000  0.5330740000000 1.0
C      1  0.5789750000000  0.4931250000000  0.5596870000000 1.0
C      1  0.4856760000000  0.5050580000000  0.4909440000000 1.0
C      1  0.5475200000000  0.4838050000000  0.4954670000000 1.0
C      1  0.4865560000000  0.4320690000000  0.4523820000000 1.0
C      1  0.5787150000000  0.5363680000000  0.5340410000000 1.0
C      1  0.5471230000000  0.4576160000000  0.5105350000000 1.0
C      1  0.4403810000000  0.4906550000000  0.5759490000000 1.0
C      1  0.5679860000000  0.4204810000000  0.4616180000000 1.0
C      1  0.4692680000000  0.5373620000000  0.5243930000000 1.0
C      1  0.5246030000000  0.4710310000000  0.5934370000000 1.0
C      1  0.4828080000000  0.5324530000000  0.4991640000000 1.0
C      1  0.4963790000000  0.5337200000000  0.3996440000000 1.0
C      1  0.5085520000000  0.4620560000000  0.4869030000000 1.0
C      1  0.5450260000000  0.5093970000000  0.5050030000000 1.0
C      1  0.5746960000000  0.4434890000000  0.5438370000000 1.0
C      1  0.4815510000000  0.4818880000000  0.5559710000000 1.0
C      1  0.4663630000000  0.4460590000000  0.4094420000000 1.0
C      1  0.4579430000000  0.5363710000000  0.4543160000000 1.0
C      1  0.4136040000000  0.5215500000000  0.4579350000000 1.0
C      1  0.4473300000000  0.5768720000000  0.5388050000000 1.0
C      1  0.4362490000000  0.5523140000000  0.4434110000000 1.0
C      1  0.5381250000000  0.5159930000000  0.5882050000000 1.0
C      1  0.4093750000000  0.4954630000000  0.5328660000000 1.0
C      1  0.5441550000000  0.5289080000000  0.4834470000000 1.0
C      1  0.4901140000000  0.5551050000000  0.4157020000000 1.0
C      1  0.5403480000000  0.5831120000000  0.4792290000000 1.0
C      1  0.4987310000000  0.3994950000000  0.4891370000000 1.0
C      1  0.4698060000000  0.4062370000000  0.4863720000000 1.0
C      1  0.5389060000000  0.5409720000000  0.5721900000000 1.0
C      1  0.4618530000000  0.4202610000000  0.4615030000000 1.0
C      1  0.5003530000000  0.5890090000000  0.5326310000000 1.0
C      1  0.5533190000000  0.4234470000000  0.5445900000000 1.0
C      1  0.4877730000000  0.5961550000000  0.5105880000000 1.0
C      1  0.4395420000000  0.5359650000000  0.5287600000000 1.0
C      1  0.4295250000000  0.5765180000000  0.4348200000000 1.0
C      1  0.5238170000000  0.5379630000000  0.5314120000000 1.0
C      1  0.5331970000000  0.4963780000000  0.4312260000000 1.0
C      1  0.4307650000000  0.5753310000000  0.4868220000000 1.0
C      1  0.5402200000000  0.4453890000000  0.4374700000000 1.0
C      1  0.5132290000000  0.5477710000000  0.5562070000000 1.0
C      1  0.4206970000000  0.5193570000000  0.5450760000000 1.0
C      1  0.4745950000000  0.4574640000000  0.5965480000000 1.0
C      1  0.4091660000000  0.5272870000000  0.4859650000000 1.0
C      1  0.4841030000000  0.5069550000000  0.5519050000000 1.0
C      1  0.4505600000000  0.4710880000000  0.4114740000000 1.0
C      1  0.5861420000000  0.5419430000000  0.5055800000000 1.0
C      1  0.4905100000000  0.4346350000000  0.4229290000000 1.0
C      1  0.5694720000000  0.4609410000000  0.4315600000000 1.0
C      1  0.5253630000000  0.5521970000000  0.4846320000000 1.0
C      1  0.4297880000000  0.4763660000000  0.5479390000000 1.0
C      1  0.4656450000000  0.4305100000000  0.5521700000000 1.0
C      1  0.5181330000000  0.4087240000000  0.4682170000000 1.0
C      1  0.5946730000000  0.5204590000000  0.4865180000000 1.0
C      1  0.4255650000000  0.5614040000000  0.5254660000000 1.0
C      1  0.4183040000000  0.4806930000000  0.4526810000000 1.0
C      1  0.4946540000000  0.4052330000000  0.5365420000000 1.0
C      1  0.4514500000000  0.5160280000000  0.4708820000000 1.0
C      1  0.5145120000000  0.4981400000000  0.5954190000000 1.0
C      1  0.4849270000000  0.5452020000000  0.4548490000000 1.0
C      1  0.4255720000000  0.5026660000000  0.4390010000000 1.0
C      1  0.5092860000000  0.4367210000000  0.4720420000000 1.0
C      1  0.5490300000000  0.5797440000000  0.5207590000000 1.0
C      1  0.4416300000000  0.4975220000000  0.5055920000000 1.0
C      1  0.4647230000000  0.5916150000000  0.4690620000000 1.0
C      1  0.5143980000000  0.4508200000000  0.4218080000000 1.0
C      1  0.5416300000000  0.4156760000000  0.4510560000000 1.0
C      1  0.5197970000000  0.4609950000000  0.5361480000000 1.0
C      1  0.4149520000000  0.5557630000000  0.4973400000000 1.0
C      1  0.5028300000000  0.4517650000000  0.5898790000000 1.0
C      1  0.4586490000000  0.4479830000000  0.4955260000000 1.0
C      1  0.5956130000000  0.5001110000000  0.5071570000000 1.0
C      1  0.4598590000000  0.5954190000000  0.5197540000000 1.0
C      1  0.4379060000000  0.4344220000000  0.4505780000000 1.0
C      1  0.5461260000000  0.5758500000000  0.5498560000000 1.0
C      1  0.5476380000000  0.5375490000000  0.4249640000000 1.0
C      1  0.5869540000000  0.5096350000000  0.5341410000000 1.0
C      1  0.4107100000000  0.4579430000000  0.5161680000000 1.0
C      1  0.4900740000000  0.5842170000000  0.4800790000000 1.0
C      1  0.5693080000000  0.5172850000000  0.4356170000000 1.0
C      1  0.4956700000000  0.4916250000000  0.4017410000000 1.0
C      1  0.5039500000000  0.5892050000000  0.4551170000000 1.0
C      1  0.5602200000000  0.5515360000000  0.5546630000000 1.0
C      1  0.5399950000000  0.4320960000000  0.5688860000000 1.0
C      1  0.4889380000000  0.5691430000000  0.4388970000000 1.0
C      1  0.4120560000000  0.4565730000000  0.4899650000000 1.0
C      1  0.4165330000000  0.4544630000000  0.4624360000000 1.0
C      1  0.5099020000000  0.4915120000000  0.4477620000000 1.0
C      1  0.4350300000000  0.5180300000000  0.5714350000000 1.0
C      1  0.5910230000000  0.4593600000000  0.4767480000000 1.0
C      1  0.4864480000000  0.5741370000000  0.5736440000000 1.0
C      1  0.4864280000000  0.5053280000000  0.5980390000000 1.0
C      1  0.4501190000000  0.5799380000000  0.4438920000000 1.0
C      1  0.5324400000000  0.5835030000000  0.4511700000000 1.0
C      1  0.5381860000000  0.4147490000000  0.5203730000000 1.0
C      1  0.5483670000000  0.4573890000000  0.5811310000000 1.0
C      1  0.5499000000000  0.5616900000000  0.4402670000000 1.0
C      1  0.4513610000000  0.4853890000000  0.5285670000000 1.0
C      1  0.4539020000000  0.5404520000000  0.5779550000000 1.0
C      1  0.4760460000000  0.5322580000000  0.5948750000000 1.0
C      1  0.4512070000000  0.4989830000000  0.4182300000000 1.0
C      1  0.4132590000000  0.5043560000000  0.5050600000000 1.0
C      1  0.4924030000000  0.5585000000000  0.5975030000000 1.0
C      1  0.4245680000000  0.4466670000000  0.5375100000000 1.0
C      1  0.5234900000000  0.5020820000000  0.4038060000000 1.0
C      1  0.5005930000000  0.4695190000000  0.5127520000000 1.0
C      1  0.4601940000000  0.5656230000000  0.5635750000000 1.0
C      1  0.5763280000000  0.4538670000000  0.5167720000000 1.0
C      1  0.5857260000000  0.5265970000000  0.4576540000000 1.0
C      1  0.5111150000000  0.3989410000000  0.5158920000000 1.0
C      1  0.5457400000000  0.4906210000000  0.4692550000000 1.0
C      1  0.5837700000000  0.4468730000000  0.4529700000000 1.0
C      1  0.5583690000000  0.4200020000000  0.4868460000000 1.0
C      1  0.5658560000000  0.5487840000000  0.4853970000000 1.0
C      1  0.4413200000000  0.4442990000000  0.4234440000000 1.0
C      1  0.4586380000000  0.4624380000000  0.4714370000000 1.0
C      1  0.4522850000000  0.4205360000000  0.5050960000000 1.0
C      1  0.5135110000000  0.5815150000000  0.5556820000000 1.0
C      1  0.4790100000000  0.4562900000000  0.5439230000000 1.0
C      1  0.4632480000000  0.4852280000000  0.5936660000000 1.0
C      1  0.5501660000000  0.5983300000000  0.4990510000000 1.0
C      1  0.4720990000000  0.4669230000000  0.5191550000000 1.0
C      1  0.4743230000000  0.5103350000000  0.4057460000000 1.0
C      1  0.4943870000000  0.5513840000000  0.4811830000000 1.0
C      1  0.5407430000000  0.4652590000000  0.4600380000000 1.0
C      1  0.5116240000000  0.4389620000000  0.5635540000000 1.0
C      1  0.4900360000000  0.4163390000000  0.5603940000000 1.0
C      1  0.5050720000000  0.4882330000000  0.4767930000000 1.0
C      1  0.5327560000000  0.5558430000000  0.5120820000000 1.0
C      1  0.5963620000000  0.4702260000000  0.5016340000000 1.0
C      1  0.4600050000000  0.4953560000000  0.4835800000000 1.0
C      1  0.5736350000000  0.5535670000000  0.4572530000000 1.0
C      1  0.5624380000000  0.4890360000000  0.4307640000000 1.0
C      1  0.4474390000000  0.5968450000000  0.4922220000000 1.0
C      1  0.5267970000000  0.5302620000000  0.4054390000000 1.0
END
