TITL C-884130-5973-377 23.1736792753842 125000 -25437.1249548622 0 0 169 (C1) n - 1
REM
REM in /home/nfs/bkarasulu/CARBON/AIRSS/Generating-Clusters/ReaxFF-fromJPCA2015/Units_Real/with-SteepDescent/Only-C1/SD-CG/Try1-3A/FIRE-CG
REM
REM
REM
REM
REM
REM ./C.cell (11c1c37f851c82e70ff6c80c92926a4b)
REM
REM compiler GCC version 9.2.1 20190827 (Red Hat 9.2.1-1)
REM options -cpp -mtune=generic -march=x86-64 -g -O0 -fpre-include=/usr/include/finclude/math-vector-fortran.h
REM seed -950558484 62744118 -1160105875 -734706177 726636573 -1095572701 1739652445 -1642248037 645092191 -1649158803 956539816 -453043949 -1222689279 1384800960 -1838374232 -1763126097 -2000184852 -2142371943 -1611081941 -394445975 -114290198 1750644938 1280079155 1307293245 1968149356 -1680300508 -1540352725 1576796974 1503499284 328923482 318378051 -830975602 2023420392
REM
CELL 1.54180   50.00000   50.00000   50.00000   90.00000   90.00000   90.00000
LATT -1
SFAC C  
C      1  0.5332500000000  0.5120930000000  0.5182910000000 1.0
C      1  0.5946180000000  0.5437520000000  0.5138700000000 1.0
C      1  0.4048810000000  0.5242990000000  0.5506690000000 1.0
C      1  0.5673310000000  0.4226430000000  0.5165460000000 1.0
C      1  0.6143260000000  0.5235770000000  0.4722660000000 1.0
C      1  0.4742650000000  0.4125500000000  0.5291760000000 1.0
C      1  0.4783360000000  0.5385340000000  0.5340770000000 1.0
C      1  0.5091980000000  0.5516060000000  0.4533740000000 1.0
C      1  0.4124790000000  0.5212220000000  0.4762850000000 1.0
C      1  0.5847450000000  0.4714370000000  0.5756890000000 1.0
C      1  0.5854430000000  0.4585700000000  0.4848830000000 1.0
C      1  0.5543680000000  0.5531450000000  0.4769820000000 1.0
C      1  0.5840680000000  0.5366910000000  0.5356780000000 1.0
C      1  0.5922930000000  0.4642860000000  0.5478530000000 1.0
C      1  0.5097900000000  0.4453860000000  0.5202770000000 1.0
C      1  0.5438880000000  0.4158850000000  0.4397910000000 1.0
C      1  0.4233040000000  0.4888280000000  0.5140970000000 1.0
C      1  0.5477450000000  0.4779800000000  0.5401300000000 1.0
C      1  0.5507210000000  0.5771520000000  0.5422920000000 1.0
C      1  0.4692940000000  0.4759560000000  0.4558330000000 1.0
C      1  0.4334450000000  0.5631690000000  0.5378690000000 1.0
C      1  0.4973180000000  0.4959320000000  0.5788650000000 1.0
C      1  0.5490420000000  0.4309080000000  0.5825210000000 1.0
C      1  0.4489370000000  0.4929030000000  0.4933380000000 1.0
C      1  0.4821410000000  0.6105290000000  0.5309810000000 1.0
C      1  0.4064580000000  0.5135030000000  0.5019970000000 1.0
C      1  0.5650320000000  0.5521010000000  0.5519920000000 1.0
C      1  0.5812970000000  0.4376880000000  0.5410240000000 1.0
C      1  0.5446940000000  0.4088080000000  0.5266940000000 1.0
C      1  0.5022790000000  0.5055630000000  0.4449830000000 1.0
C      1  0.5802250000000  0.5386080000000  0.4287270000000 1.0
C      1  0.4157740000000  0.4566750000000  0.4386430000000 1.0
C      1  0.4286250000000  0.4597770000000  0.5592350000000 1.0
C      1  0.5334910000000  0.4789850000000  0.4786420000000 1.0
C      1  0.5065780000000  0.5878820000000  0.5727960000000 1.0
C      1  0.5074630000000  0.5967910000000  0.4263260000000 1.0
C      1  0.5192380000000  0.4890350000000  0.5079450000000 1.0
C      1  0.4082830000000  0.4203220000000  0.4915740000000 1.0
C      1  0.4299800000000  0.4339640000000  0.5422150000000 1.0
C      1  0.5183220000000  0.4277010000000  0.5828750000000 1.0
C      1  0.4839790000000  0.5182350000000  0.5219080000000 1.0
C      1  0.4647840000000  0.5622830000000  0.5813050000000 1.0
C      1  0.3946300000000  0.4748850000000  0.5412000000000 1.0
C      1  0.5284970000000  0.5825650000000  0.5577360000000 1.0
C      1  0.5290980000000  0.5191630000000  0.4032360000000 1.0
C      1  0.4920870000000  0.4844360000000  0.5023100000000 1.0
C      1  0.4599210000000  0.5876350000000  0.5677090000000 1.0
C      1  0.5396240000000  0.4737990000000  0.4160880000000 1.0
C      1  0.4170820000000  0.5022510000000  0.5843330000000 1.0
C      1  0.4669510000000  0.5318900000000  0.3953610000000 1.0
C      1  0.5454230000000  0.5834300000000  0.5134130000000 1.0
C      1  0.5502940000000  0.5707410000000  0.4555050000000 1.0
C      1  0.4774460000000  0.5045480000000  0.3987940000000 1.0
C      1  0.5082520000000  0.4734530000000  0.5982400000000 1.0
C      1  0.4458750000000  0.3981330000000  0.4837880000000 1.0
C      1  0.4307840000000  0.4766170000000  0.4249070000000 1.0
C      1  0.4485700000000  0.4556990000000  0.4140200000000 1.0
C      1  0.5032100000000  0.5529520000000  0.5309800000000 1.0
C      1  0.5099870000000  0.5244140000000  0.4619630000000 1.0
C      1  0.5083070000000  0.5604180000000  0.4801300000000 1.0
C      1  0.4982330000000  0.6013290000000  0.5067690000000 1.0
C      1  0.5731730000000  0.5326770000000  0.4816300000000 1.0
C      1  0.5140350000000  0.6087420000000  0.4521090000000 1.0
C      1  0.4721300000000  0.4959590000000  0.5163930000000 1.0
C      1  0.4504610000000  0.5928210000000  0.4948920000000 1.0
C      1  0.5978570000000  0.5400100000000  0.4897770000000 1.0
C      1  0.5282010000000  0.5339710000000  0.5841540000000 1.0
C      1  0.5672340000000  0.5108120000000  0.5769340000000 1.0
C      1  0.4539110000000  0.5143790000000  0.4124410000000 1.0
C      1  0.5702750000000  0.5048360000000  0.4704870000000 1.0
C      1  0.4604580000000  0.5037360000000  0.4511330000000 1.0
C      1  0.4301370000000  0.4054110000000  0.5059440000000 1.0
C      1  0.4959570000000  0.3981050000000  0.5178600000000 1.0
C      1  0.4355670000000  0.4815520000000  0.5416000000000 1.0
C      1  0.4746720000000  0.6040480000000  0.4844330000000 1.0
C      1  0.5207160000000  0.4295950000000  0.4980770000000 1.0
C      1  0.5683580000000  0.4267640000000  0.4319000000000 1.0
C      1  0.4368990000000  0.5061690000000  0.4334690000000 1.0
C      1  0.5560710000000  0.5564000000000  0.4302270000000 1.0
C      1  0.5827720000000  0.5091170000000  0.5309880000000 1.0
C      1  0.4272850000000  0.5558840000000  0.4566910000000 1.0
C      1  0.5456560000000  0.4943530000000  0.5634910000000 1.0
C      1  0.5294310000000  0.5988500000000  0.4960660000000 1.0
C      1  0.5086130000000  0.4141580000000  0.5601820000000 1.0
C      1  0.4999710000000  0.4311850000000  0.4081410000000 1.0
C      1  0.6024480000000  0.5328320000000  0.4474910000000 1.0
C      1  0.5095990000000  0.5570540000000  0.4032740000000 1.0
C      1  0.5091890000000  0.5681010000000  0.4304170000000 1.0
C      1  0.5031780000000  0.4074000000000  0.4911460000000 1.0
C      1  0.5998760000000  0.4846620000000  0.5281540000000 1.0
C      1  0.5342130000000  0.5941640000000  0.4674380000000 1.0
C      1  0.4874430000000  0.4152840000000  0.4675150000000 1.0
C      1  0.5247430000000  0.4684000000000  0.5274190000000 1.0
C      1  0.4542820000000  0.6033410000000  0.5221020000000 1.0
C      1  0.5731980000000  0.5111740000000  0.4196290000000 1.0
C      1  0.4536820000000  0.5343930000000  0.5712150000000 1.0
C      1  0.4531550000000  0.5429950000000  0.5451040000000 1.0
C      1  0.4787940000000  0.5997390000000  0.4309470000000 1.0
C      1  0.6005320000000  0.4562170000000  0.4582270000000 1.0
C      1  0.4438280000000  0.4621020000000  0.5851660000000 1.0
C      1  0.4010860000000  0.4492310000000  0.4627250000000 1.0
C      1  0.4352880000000  0.4158640000000  0.4484190000000 1.0
C      1  0.4746950000000  0.4553810000000  0.5573790000000 1.0
C      1  0.5346970000000  0.5577050000000  0.4970710000000 1.0
C      1  0.4735710000000  0.4744340000000  0.3859400000000 1.0
C      1  0.5036170000000  0.5412200000000  0.5997130000000 1.0
C      1  0.5852250000000  0.4490890000000  0.4333670000000 1.0
C      1  0.4193800000000  0.5278890000000  0.4516790000000 1.0
C      1  0.5356240000000  0.4679460000000  0.5976910000000 1.0
C      1  0.5367460000000  0.5462130000000  0.4094080000000 1.0
C      1  0.6052500000000  0.4772350000000  0.5005590000000 1.0
C      1  0.5617160000000  0.4834160000000  0.4882690000000 1.0
C      1  0.4843630000000  0.6016850000000  0.5586630000000 1.0
C      1  0.4584480000000  0.5436050000000  0.4852930000000 1.0
C      1  0.4514760000000  0.4257820000000  0.5180920000000 1.0
C      1  0.4194320000000  0.5578610000000  0.5129080000000 1.0
C      1  0.4917610000000  0.5653080000000  0.5890540000000 1.0
C      1  0.5206810000000  0.4226810000000  0.4222850000000 1.0
C      1  0.3978870000000  0.4968660000000  0.5600310000000 1.0
C      1  0.5721720000000  0.4947150000000  0.4435390000000 1.0
C      1  0.5002090000000  0.4390410000000  0.4578890000000 1.0
C      1  0.4366020000000  0.5646610000000  0.4884260000000 1.0
C      1  0.5109270000000  0.4740940000000  0.4220630000000 1.0
C      1  0.4235510000000  0.5277450000000  0.5730610000000 1.0
C      1  0.4645480000000  0.5748260000000  0.4217440000000 1.0
C      1  0.4058030000000  0.5342020000000  0.5221290000000 1.0
C      1  0.4147560000000  0.4132080000000  0.5421920000000 1.0
C      1  0.4008410000000  0.4679320000000  0.5140180000000 1.0
C      1  0.4608970000000  0.5052920000000  0.6080630000000 1.0
C      1  0.6183540000000  0.4944100000000  0.4807520000000 1.0
C      1  0.4987890000000  0.4462890000000  0.5953730000000 1.0
C      1  0.5247730000000  0.4999350000000  0.4601500000000 1.0
C      1  0.5262010000000  0.5394060000000  0.5192360000000 1.0
C      1  0.5630470000000  0.4274150000000  0.5582310000000 1.0
C      1  0.5042600000000  0.5035160000000  0.4161750000000 1.0
C      1  0.4599350000000  0.4036280000000  0.4606720000000 1.0
C      1  0.4715250000000  0.5054190000000  0.5693230000000 1.0
C      1  0.5620450000000  0.4679460000000  0.4344630000000 1.0
C      1  0.4125710000000  0.4231020000000  0.4637800000000 1.0
C      1  0.3983950000000  0.4477190000000  0.4923200000000 1.0
C      1  0.5580830000000  0.4977360000000  0.5194120000000 1.0
C      1  0.4415090000000  0.5902360000000  0.5451390000000 1.0
C      1  0.4819010000000  0.5226900000000  0.6072390000000 1.0
C      1  0.4628910000000  0.4464860000000  0.4980830000000 1.0
C      1  0.4901470000000  0.5735130000000  0.5156050000000 1.0
C      1  0.5699150000000  0.4323970000000  0.4885780000000 1.0
C      1  0.4325110000000  0.4357260000000  0.4280910000000 1.0
C      1  0.4549510000000  0.5161980000000  0.4762650000000 1.0
C      1  0.4800060000000  0.5556630000000  0.4040380000000 1.0
C      1  0.5601350000000  0.4572520000000  0.5907530000000 1.0
C      1  0.4455460000000  0.5651600000000  0.4395250000000 1.0
C      1  0.5258700000000  0.4462160000000  0.4740250000000 1.0
C      1  0.4894160000000  0.4320490000000  0.5443340000000 1.0
C      1  0.4391770000000  0.4883020000000  0.5980860000000 1.0
C      1  0.4922580000000  0.4624070000000  0.4423780000000 1.0
C      1  0.5196200000000  0.3994990000000  0.5367660000000 1.0
C      1  0.4751820000000  0.4501640000000  0.3997630000000 1.0
C      1  0.4840670000000  0.6107570000000  0.4578970000000 1.0
C      1  0.4545960000000  0.4669150000000  0.4791490000000 1.0
C      1  0.6231380000000  0.4754570000000  0.4575030000000 1.0
C      1  0.5905210000000  0.4979120000000  0.5836300000000 1.0
C      1  0.4840050000000  0.5556030000000  0.4934700000000 1.0
C      1  0.5559190000000  0.5396850000000  0.5758260000000 1.0
C      1  0.5498360000000  0.4997210000000  0.4053080000000 1.0
C      1  0.5218760000000  0.5098980000000  0.5696470000000 1.0
C      1  0.4703810000000  0.4485490000000  0.5845380000000 1.0
C      1  0.4878720000000  0.4568680000000  0.5051200000000 1.0
C      1  0.4644650000000  0.4838810000000  0.5478800000000 1.0
C      1  0.5490570000000  0.4264510000000  0.4685410000000 1.0
END
