TITL C-883741-3679-100 6.28586672558313 125000 -7731.59950964204 0 0 53 (C1) n - 1
REM
REM in /home/nfs/bkarasulu/CARBON/AIRSS/Generating-Clusters/ReaxFF-fromJPCA2015/Units_Real/with-SteepDescent/Only-C1/SD-CG/Try1-3A/FIRE-CG
REM
REM
REM
REM
REM
REM ./C.cell (11c1c37f851c82e70ff6c80c92926a4b)
REM
REM compiler GCC version 9.2.1 20190827 (Red Hat 9.2.1-1)
REM options -cpp -mtune=generic -march=x86-64 -g -O0 -fpre-include=/usr/include/finclude/math-vector-fortran.h
REM seed -337787528 -85364717 1173924988 -1686407797 384742225 -66070265 -1942665693 -1408786151 838191665 1320467358 2119407369 422990872 -2033020753 -870716554 228573270 1761182110 -2030398535 689503035 1795386225 -1235269753 -775961008 -231189676 -1129267982 -2045227085 -2063903537 -1159384653 -1949983612 -1687431543 -179872956 8571385 -2066368959 -1086310637 1894073622
REM
CELL 1.54180   50.00000   50.00000   50.00000   90.00000   90.00000   90.00000
LATT -1
SFAC C  
C      1  0.5005670000000  0.5318670000000  0.5360550000000 1.0
C      1  0.5378770000000  0.4778440000000  0.5581780000000 1.0
C      1  0.5417400000000  0.4757910000000  0.4468510000000 1.0
C      1  0.5234820000000  0.4347670000000  0.4690640000000 1.0
C      1  0.5395080000000  0.5576580000000  0.4726120000000 1.0
C      1  0.4860480000000  0.4854040000000  0.4593190000000 1.0
C      1  0.5440330000000  0.4559880000000  0.4688810000000 1.0
C      1  0.5653370000000  0.4951990000000  0.4487480000000 1.0
C      1  0.5399350000000  0.4469630000000  0.5146960000000 1.0
C      1  0.5142140000000  0.4808280000000  0.4394510000000 1.0
C      1  0.5064560000000  0.5233340000000  0.5637080000000 1.0
C      1  0.5676430000000  0.5086190000000  0.4750670000000 1.0
C      1  0.4436880000000  0.4693410000000  0.5213290000000 1.0
C      1  0.4777200000000  0.5292060000000  0.4512120000000 1.0
C      1  0.4833800000000  0.4417950000000  0.5409720000000 1.0
C      1  0.4929350000000  0.4977940000000  0.5692810000000 1.0
C      1  0.4390490000000  0.4908360000000  0.5016330000000 1.0
C      1  0.4638440000000  0.5009090000000  0.4513830000000 1.0
C      1  0.4640800000000  0.4956000000000  0.5646630000000 1.0
C      1  0.5036760000000  0.5339560000000  0.4661270000000 1.0
C      1  0.4760380000000  0.5735160000000  0.4995800000000 1.0
C      1  0.5525080000000  0.4654060000000  0.4950550000000 1.0
C      1  0.4738180000000  0.4774740000000  0.4347950000000 1.0
C      1  0.5068730000000  0.4483120000000  0.5555970000000 1.0
C      1  0.4969180000000  0.4592180000000  0.4305530000000 1.0
C      1  0.5590610000000  0.4933920000000  0.4992000000000 1.0
C      1  0.4583900000000  0.5459020000000  0.4601750000000 1.0
C      1  0.5027610000000  0.5728990000000  0.5061810000000 1.0
C      1  0.5362070000000  0.5278400000000  0.5630340000000 1.0
C      1  0.4712840000000  0.4503490000000  0.4951560000000 1.0
C      1  0.4347710000000  0.5530860000000  0.4709200000000 1.0
C      1  0.4448310000000  0.4809830000000  0.5481960000000 1.0
C      1  0.4988700000000  0.4404260000000  0.4535170000000 1.0
C      1  0.5247260000000  0.4271270000000  0.4980170000000 1.0
C      1  0.5344270000000  0.4529090000000  0.5430170000000 1.0
C      1  0.4239250000000  0.5243560000000  0.4730020000000 1.0
C      1  0.5108800000000  0.5596560000000  0.5333460000000 1.0
C      1  0.5166840000000  0.5157360000000  0.5162140000000 1.0
C      1  0.5312760000000  0.5369850000000  0.4532750000000 1.0
C      1  0.4616200000000  0.4449760000000  0.5203550000000 1.0
C      1  0.5321440000000  0.5529700000000  0.5499140000000 1.0
C      1  0.4511530000000  0.5134250000000  0.5174490000000 1.0
C      1  0.5478330000000  0.5041910000000  0.5492980000000 1.0
C      1  0.4391260000000  0.4992950000000  0.4734070000000 1.0
C      1  0.5109560000000  0.4750720000000  0.5699510000000 1.0
C      1  0.5447280000000  0.5078890000000  0.5204900000000 1.0
C      1  0.4483830000000  0.5726900000000  0.4912080000000 1.0
C      1  0.4806120000000  0.4555350000000  0.4708330000000 1.0
C      1  0.4480040000000  0.5082740000000  0.5461880000000 1.0
C      1  0.5124590000000  0.5621070000000  0.4810370000000 1.0
C      1  0.4757180000000  0.5142210000000  0.5045220000000 1.0
C      1  0.5577060000000  0.5352050000000  0.4652060000000 1.0
C      1  0.5000960000000  0.5148800000000  0.4920820000000 1.0
END
