TITL C-883735-9890-360 -10.0205740251821 125000 -20449.7916685983 0 0 136 (C1) n - 1
REM
REM in /home/nfs/bkarasulu/CARBON/AIRSS/Generating-Clusters/ReaxFF-fromJPCA2015/Units_Real/with-SteepDescent/Only-C1/SD-CG/Try1-3A/FIRE-CG
REM
REM
REM
REM
REM
REM ./C.cell (11c1c37f851c82e70ff6c80c92926a4b)
REM
REM compiler GCC version 9.2.1 20190827 (Red Hat 9.2.1-1)
REM options -cpp -mtune=generic -march=x86-64 -g -O0 -fpre-include=/usr/include/finclude/math-vector-fortran.h
REM seed -1819126176 717472101 -1167697761 -1582877081 911575759 -633557147 471819662 413029886 1199877669 -1864567017 -1281674913 413214325 1082393064 -445811433 -1893172383 -1795663577 76114887 -886949275 -442286586 100616972 1620576371 434569647 147737265 -39623258 -275900235 1079673044 -730189950 -2092404534 1244455520 -490901873 -1048727502 1383166283 1699787630
REM
CELL 1.54180   50.00000   50.00000   50.00000   90.00000   90.00000   90.00000
LATT -1
SFAC C  
C      1  0.4090720000000  0.4866150000000  0.4646360000000 1.0
C      1  0.5877230000000  0.5405630000000  0.4606360000000 1.0
C      1  0.5163080000000  0.4652150000000  0.4082330000000 1.0
C      1  0.5835710000000  0.4981420000000  0.5077490000000 1.0
C      1  0.5520950000000  0.4775460000000  0.4697690000000 1.0
C      1  0.5298260000000  0.4190330000000  0.5382160000000 1.0
C      1  0.4811750000000  0.5197970000000  0.4508560000000 1.0
C      1  0.5266930000000  0.5439410000000  0.5698760000000 1.0
C      1  0.5907690000000  0.4864840000000  0.4551470000000 1.0
C      1  0.5561160000000  0.5110440000000  0.4250420000000 1.0
C      1  0.4893500000000  0.4653890000000  0.5245480000000 1.0
C      1  0.5249560000000  0.5087970000000  0.4574950000000 1.0
C      1  0.5694220000000  0.4479860000000  0.5144290000000 1.0
C      1  0.4471210000000  0.4996660000000  0.5763510000000 1.0
C      1  0.5285690000000  0.4703710000000  0.4872780000000 1.0
C      1  0.4658400000000  0.5377380000000  0.4308950000000 1.0
C      1  0.6005300000000  0.5177280000000  0.4937890000000 1.0
C      1  0.4751840000000  0.5895860000000  0.4511590000000 1.0
C      1  0.4707880000000  0.4818550000000  0.5770410000000 1.0
C      1  0.4335170000000  0.4935870000000  0.4810870000000 1.0
C      1  0.5644220000000  0.4238180000000  0.4984000000000 1.0
C      1  0.4028100000000  0.4829170000000  0.5281240000000 1.0
C      1  0.5182350000000  0.4118110000000  0.4900430000000 1.0
C      1  0.4051080000000  0.5118140000000  0.5231680000000 1.0
C      1  0.5045920000000  0.4928710000000  0.4076990000000 1.0
C      1  0.4880990000000  0.3932460000000  0.5121670000000 1.0
C      1  0.4423300000000  0.4920930000000  0.4341170000000 1.0
C      1  0.5490690000000  0.4211830000000  0.4483870000000 1.0
C      1  0.5190540000000  0.4703320000000  0.5144520000000 1.0
C      1  0.4810840000000  0.4436560000000  0.4687980000000 1.0
C      1  0.5412410000000  0.5291070000000  0.4714230000000 1.0
C      1  0.4114100000000  0.4655650000000  0.5065020000000 1.0
C      1  0.4636930000000  0.4258160000000  0.4533400000000 1.0
C      1  0.5796640000000  0.4809920000000  0.5481990000000 1.0
C      1  0.5592860000000  0.4864350000000  0.4084520000000 1.0
C      1  0.5445700000000  0.4173680000000  0.4775660000000 1.0
C      1  0.4495050000000  0.4390750000000  0.5653090000000 1.0
C      1  0.4611700000000  0.4010800000000  0.5085530000000 1.0
C      1  0.4406280000000  0.5707330000000  0.5524000000000 1.0
C      1  0.5241440000000  0.4348020000000  0.5622530000000 1.0
C      1  0.5640970000000  0.5203710000000  0.5731490000000 1.0
C      1  0.5429270000000  0.5382190000000  0.4194240000000 1.0
C      1  0.5813770000000  0.5807300000000  0.4952780000000 1.0
C      1  0.4236500000000  0.4380050000000  0.4756810000000 1.0
C      1  0.5103780000000  0.5879110000000  0.5424790000000 1.0
C      1  0.4442650000000  0.4603940000000  0.4296530000000 1.0
C      1  0.4503080000000  0.5767220000000  0.4594530000000 1.0
C      1  0.4805820000000  0.5555290000000  0.5086110000000 1.0
C      1  0.5016560000000  0.4125730000000  0.4330820000000 1.0
C      1  0.4817930000000  0.5924870000000  0.5386100000000 1.0
C      1  0.4742770000000  0.4383750000000  0.5742390000000 1.0
C      1  0.4328840000000  0.4275810000000  0.5271510000000 1.0
C      1  0.4736010000000  0.5370720000000  0.5897700000000 1.0
C      1  0.4948120000000  0.5369270000000  0.4705000000000 1.0
C      1  0.4568030000000  0.5132960000000  0.4153660000000 1.0
C      1  0.4844700000000  0.4370580000000  0.5178820000000 1.0
C      1  0.5287380000000  0.4925750000000  0.5311700000000 1.0
C      1  0.5425970000000  0.4559870000000  0.5704340000000 1.0
C      1  0.5740610000000  0.4624020000000  0.4567940000000 1.0
C      1  0.4471420000000  0.5285240000000  0.5789400000000 1.0
C      1  0.4831690000000  0.5203910000000  0.5425120000000 1.0
C      1  0.5360000000000  0.4727400000000  0.5935390000000 1.0
C      1  0.4138770000000  0.5153750000000  0.4961510000000 1.0
C      1  0.4379920000000  0.4400160000000  0.4489600000000 1.0
C      1  0.4986270000000  0.5774840000000  0.4364600000000 1.0
C      1  0.4351160000000  0.4244330000000  0.4985410000000 1.0
C      1  0.4888090000000  0.4880520000000  0.5996100000000 1.0
C      1  0.4157360000000  0.5367530000000  0.5353440000000 1.0
C      1  0.4497170000000  0.5458930000000  0.4613320000000 1.0
C      1  0.4275910000000  0.4471080000000  0.5497020000000 1.0
C      1  0.5465440000000  0.4597990000000  0.4144250000000 1.0
C      1  0.4818370000000  0.5616850000000  0.5770700000000 1.0
C      1  0.5535330000000  0.5456520000000  0.5640360000000 1.0
C      1  0.4218990000000  0.5334380000000  0.4591730000000 1.0
C      1  0.5277830000000  0.5808050000000  0.4445680000000 1.0
C      1  0.5597910000000  0.4457660000000  0.4361160000000 1.0
C      1  0.5990740000000  0.5135560000000  0.4645220000000 1.0
C      1  0.5594670000000  0.5438950000000  0.4561300000000 1.0
C      1  0.4590300000000  0.5087440000000  0.5319810000000 1.0
C      1  0.5137090000000  0.5369590000000  0.4169590000000 1.0
C      1  0.5816980000000  0.5097460000000  0.5528080000000 1.0
C      1  0.4597380000000  0.4947160000000  0.4592930000000 1.0
C      1  0.4623100000000  0.4200770000000  0.5304060000000 1.0
C      1  0.5369790000000  0.5858550000000  0.5329710000000 1.0
C      1  0.4174140000000  0.5071290000000  0.4462940000000 1.0
C      1  0.4043630000000  0.4607300000000  0.4785110000000 1.0
C      1  0.5195350000000  0.5157610000000  0.5146500000000 1.0
C      1  0.4680580000000  0.5070980000000  0.5044800000000 1.0
C      1  0.4388610000000  0.5751930000000  0.5231610000000 1.0
C      1  0.5353430000000  0.5918740000000  0.4689820000000 1.0
C      1  0.4205660000000  0.5543730000000  0.5128520000000 1.0
C      1  0.5152330000000  0.4019740000000  0.5177420000000 1.0
C      1  0.4127970000000  0.5417710000000  0.4864120000000 1.0
C      1  0.4975320000000  0.5062320000000  0.4995550000000 1.0
C      1  0.4662980000000  0.4778100000000  0.5017640000000 1.0
C      1  0.5563310000000  0.4243690000000  0.5268470000000 1.0
C      1  0.5068600000000  0.4889140000000  0.4777630000000 1.0
C      1  0.4664630000000  0.5817230000000  0.5167090000000 1.0
C      1  0.4213980000000  0.4743980000000  0.5463970000000 1.0
C      1  0.4747870000000  0.4181040000000  0.4270660000000 1.0
C      1  0.4410270000000  0.4941810000000  0.5483520000000 1.0
C      1  0.5482880000000  0.5605240000000  0.4366490000000 1.0
C      1  0.4928760000000  0.4524170000000  0.4115960000000 1.0
C      1  0.5237650000000  0.4132100000000  0.4404450000000 1.0
C      1  0.4386790000000  0.4710750000000  0.4985100000000 1.0
C      1  0.5594120000000  0.5617670000000  0.5379370000000 1.0
C      1  0.5080580000000  0.4657920000000  0.5972130000000 1.0
C      1  0.5332290000000  0.5372310000000  0.4985430000000 1.0
C      1  0.5723090000000  0.5177810000000  0.5261240000000 1.0
C      1  0.5053820000000  0.5589320000000  0.5557520000000 1.0
C      1  0.5072380000000  0.5125420000000  0.4327320000000 1.0
C      1  0.4587360000000  0.5374430000000  0.4903290000000 1.0
C      1  0.6027340000000  0.5459970000000  0.5038810000000 1.0
C      1  0.4909720000000  0.5538450000000  0.4226730000000 1.0
C      1  0.5015310000000  0.4414370000000  0.5810440000000 1.0
C      1  0.5534570000000  0.5964210000000  0.4892590000000 1.0
C      1  0.4311510000000  0.5442510000000  0.5596710000000 1.0
C      1  0.5439840000000  0.5005050000000  0.5831310000000 1.0
C      1  0.4655040000000  0.4457370000000  0.4152980000000 1.0
C      1  0.4665860000000  0.5804750000000  0.5620960000000 1.0
C      1  0.5047140000000  0.5013200000000  0.5528590000000 1.0
C      1  0.4936690000000  0.5166240000000  0.5970120000000 1.0
C      1  0.4783010000000  0.5000100000000  0.4058430000000 1.0
C      1  0.5533360000000  0.5387670000000  0.5206070000000 1.0
C      1  0.5507750000000  0.4802930000000  0.5551520000000 1.0
C      1  0.4918570000000  0.5449410000000  0.5335890000000 1.0
C      1  0.4878230000000  0.4778180000000  0.5535480000000 1.0
C      1  0.4775030000000  0.4737180000000  0.4717350000000 1.0
C      1  0.5974610000000  0.5614830000000  0.4792220000000 1.0
C      1  0.5329870000000  0.5958090000000  0.5084250000000 1.0
C      1  0.5048180000000  0.5517500000000  0.4902320000000 1.0
C      1  0.5854940000000  0.4717860000000  0.5212090000000 1.0
C      1  0.5455420000000  0.4938130000000  0.4462340000000 1.0
C      1  0.4955480000000  0.4315640000000  0.4909090000000 1.0
C      1  0.5183980000000  0.5182410000000  0.5801680000000 1.0
C      1  0.5858420000000  0.5655780000000  0.5189800000000 1.0
END
