TITL C-884139-6216-412 154.25650753452 125000 -28029.548528916 0 0 189 (C1) n - 1
REM
REM in /home/nfs/bkarasulu/CARBON/AIRSS/Generating-Clusters/ReaxFF-fromJPCA2015/Units_Real/with-SteepDescent/Only-C1/SD-CG/Try1-3A/FIRE-CG
REM
REM
REM
REM
REM
REM ./C.cell (11c1c37f851c82e70ff6c80c92926a4b)
REM
REM compiler GCC version 9.2.1 20190827 (Red Hat 9.2.1-1)
REM options -cpp -mtune=generic -march=x86-64 -g -O0 -fpre-include=/usr/include/finclude/math-vector-fortran.h
REM seed 1478199376 -2073187301 482859512 -2076250190 1163799126 -1549287131 1943708286 1654133352 -953920808 -114162901 956066330 -566263826 -937247334 -1454286831 1785552444 -1810742116 -2020340437 -39923832 -2109151283 87517451 2065411878 249467819 -1359900339 209509965 -616562423 1976432219 -2038959419 -2024040926 350836162 -363329558 -1239209185 -178958729 406927011
REM
CELL 1.54180   50.00000   50.00000   50.00000   90.00000   90.00000   90.00000
LATT -1
SFAC C  
C      1  0.5503820000000  0.4176170000000  0.4439880000000 1.0
C      1  0.4356720000000  0.5116680000000  0.5329380000000 1.0
C      1  0.4625970000000  0.4656370000000  0.5309880000000 1.0
C      1  0.5652110000000  0.4716720000000  0.5268120000000 1.0
C      1  0.5240340000000  0.4825400000000  0.5028960000000 1.0
C      1  0.5397130000000  0.5265370000000  0.3938300000000 1.0
C      1  0.5540460000000  0.4143950000000  0.4852740000000 1.0
C      1  0.4521580000000  0.3986710000000  0.5608270000000 1.0
C      1  0.4703860000000  0.5385340000000  0.5981320000000 1.0
C      1  0.5553660000000  0.4595440000000  0.3957490000000 1.0
C      1  0.4571970000000  0.5295460000000  0.5333490000000 1.0
C      1  0.4911770000000  0.5561640000000  0.5933180000000 1.0
C      1  0.4653990000000  0.4931870000000  0.5705590000000 1.0
C      1  0.4867180000000  0.5362940000000  0.4500240000000 1.0
C      1  0.4971620000000  0.5537750000000  0.5307800000000 1.0
C      1  0.5972770000000  0.5387070000000  0.5380760000000 1.0
C      1  0.4836560000000  0.4695220000000  0.3916440000000 1.0
C      1  0.4968130000000  0.3993490000000  0.5679510000000 1.0
C      1  0.6004730000000  0.5116580000000  0.5494650000000 1.0
C      1  0.4269800000000  0.5590360000000  0.4586470000000 1.0
C      1  0.5206560000000  0.5381710000000  0.5463050000000 1.0
C      1  0.5759800000000  0.4025710000000  0.5485150000000 1.0
C      1  0.4883900000000  0.4600990000000  0.6041390000000 1.0
C      1  0.4729710000000  0.5620770000000  0.4478050000000 1.0
C      1  0.5072970000000  0.5780840000000  0.5146470000000 1.0
C      1  0.5191800000000  0.4603710000000  0.5451620000000 1.0
C      1  0.5101070000000  0.4200530000000  0.4975440000000 1.0
C      1  0.5111210000000  0.5037770000000  0.6044510000000 1.0
C      1  0.4203000000000  0.4985730000000  0.5899490000000 1.0
C      1  0.5090740000000  0.5786410000000  0.4449060000000 1.0
C      1  0.4737190000000  0.3924450000000  0.4908640000000 1.0
C      1  0.5670130000000  0.4987540000000  0.5158240000000 1.0
C      1  0.5258060000000  0.4040470000000  0.4799150000000 1.0
C      1  0.4700310000000  0.4405600000000  0.5395760000000 1.0
C      1  0.5448350000000  0.5874580000000  0.5399170000000 1.0
C      1  0.5371280000000  0.5311740000000  0.5240910000000 1.0
C      1  0.3965730000000  0.5480300000000  0.5039390000000 1.0
C      1  0.5443040000000  0.4570410000000  0.4698060000000 1.0
C      1  0.4845650000000  0.6090310000000  0.4826320000000 1.0
C      1  0.5163520000000  0.4173890000000  0.5294130000000 1.0
C      1  0.4669230000000  0.4829290000000  0.5493220000000 1.0
C      1  0.4287230000000  0.4646910000000  0.4430190000000 1.0
C      1  0.4888610000000  0.4423010000000  0.4015740000000 1.0
C      1  0.5362010000000  0.4939440000000  0.4484380000000 1.0
C      1  0.5103970000000  0.4029580000000  0.4548040000000 1.0
C      1  0.4459530000000  0.4822130000000  0.5948600000000 1.0
C      1  0.5582980000000  0.5238830000000  0.5810190000000 1.0
C      1  0.4036500000000  0.5501360000000  0.5360390000000 1.0
C      1  0.4518140000000  0.4258700000000  0.4327080000000 1.0
C      1  0.5102850000000  0.4222160000000  0.5807120000000 1.0
C      1  0.5385290000000  0.4724780000000  0.4300560000000 1.0
C      1  0.4462600000000  0.4728000000000  0.4905960000000 1.0
C      1  0.5136550000000  0.4741060000000  0.6036360000000 1.0
C      1  0.4440840000000  0.6118440000000  0.4718270000000 1.0
C      1  0.4980320000000  0.6038020000000  0.5256870000000 1.0
C      1  0.4666470000000  0.5398540000000  0.5590270000000 1.0
C      1  0.4934930000000  0.4394050000000  0.4825030000000 1.0
C      1  0.5374410000000  0.4594510000000  0.5926380000000 1.0
C      1  0.4947330000000  0.4884020000000  0.4692890000000 1.0
C      1  0.4467720000000  0.4586190000000  0.4665520000000 1.0
C      1  0.3807350000000  0.5027380000000  0.4871870000000 1.0
C      1  0.6103220000000  0.4933720000000  0.5265520000000 1.0
C      1  0.4188620000000  0.5833610000000  0.5048900000000 1.0
C      1  0.4660380000000  0.5988390000000  0.4601860000000 1.0
C      1  0.4737940000000  0.6105730000000  0.5106370000000 1.0
C      1  0.4220890000000  0.5250740000000  0.5768070000000 1.0
C      1  0.5770500000000  0.5789580000000  0.5065340000000 1.0
C      1  0.4812080000000  0.6011820000000  0.5506070000000 1.0
C      1  0.4173030000000  0.4755280000000  0.5010530000000 1.0
C      1  0.5324720000000  0.5225370000000  0.5961290000000 1.0
C      1  0.5695150000000  0.4271440000000  0.5449570000000 1.0
C      1  0.4722600000000  0.4462600000000  0.4256790000000 1.0
C      1  0.5681060000000  0.4933230000000  0.4884110000000 1.0
C      1  0.5799370000000  0.5056580000000  0.5705350000000 1.0
C      1  0.4287370000000  0.6034180000000  0.4888450000000 1.0
C      1  0.5412660000000  0.4218220000000  0.5498830000000 1.0
C      1  0.5380250000000  0.5025740000000  0.5244520000000 1.0
C      1  0.5404220000000  0.6032870000000  0.4849870000000 1.0
C      1  0.5822110000000  0.5085280000000  0.4211400000000 1.0
C      1  0.5896150000000  0.4812500000000  0.4300530000000 1.0
C      1  0.4728150000000  0.4845630000000  0.6106630000000 1.0
C      1  0.4550690000000  0.4147510000000  0.4953450000000 1.0
C      1  0.5397650000000  0.4593730000000  0.5174440000000 1.0
C      1  0.5292770000000  0.5757200000000  0.4094630000000 1.0
C      1  0.4081970000000  0.4749980000000  0.5764220000000 1.0
C      1  0.4284370000000  0.4030840000000  0.4646730000000 1.0
C      1  0.4523790000000  0.5265570000000  0.4781960000000 1.0
C      1  0.4640290000000  0.4376850000000  0.4789010000000 1.0
C      1  0.4705690000000  0.4748160000000  0.5058820000000 1.0
C      1  0.4987780000000  0.4404940000000  0.5384670000000 1.0
C      1  0.4622700000000  0.3849630000000  0.5382330000000 1.0
C      1  0.5315860000000  0.5929450000000  0.4335790000000 1.0
C      1  0.4267760000000  0.5590490000000  0.5511550000000 1.0
C      1  0.4245860000000  0.4373110000000  0.4333600000000 1.0
C      1  0.6055490000000  0.4643030000000  0.5221810000000 1.0
C      1  0.5041220000000  0.5323530000000  0.4263860000000 1.0
C      1  0.4437300000000  0.5447550000000  0.5783750000000 1.0
C      1  0.5943100000000  0.4968820000000  0.4762360000000 1.0
C      1  0.6149590000000  0.5031080000000  0.4996020000000 1.0
C      1  0.4097140000000  0.4571040000000  0.5520170000000 1.0
C      1  0.4637570000000  0.5178400000000  0.4033190000000 1.0
C      1  0.5846480000000  0.4579430000000  0.5437830000000 1.0
C      1  0.5327950000000  0.5197130000000  0.4369330000000 1.0
C      1  0.4923930000000  0.5205300000000  0.4010960000000 1.0
C      1  0.5436940000000  0.4856750000000  0.4756820000000 1.0
C      1  0.5094710000000  0.4802200000000  0.3859600000000 1.0
C      1  0.5865970000000  0.5660560000000  0.5322870000000 1.0
C      1  0.5229430000000  0.4894700000000  0.5469870000000 1.0
C      1  0.5549040000000  0.5341320000000  0.4773380000000 1.0
C      1  0.5967290000000  0.4727660000000  0.4567500000000 1.0
C      1  0.5852760000000  0.5719230000000  0.4786270000000 1.0
C      1  0.4718940000000  0.4075210000000  0.5817870000000 1.0
C      1  0.4145900000000  0.4313010000000  0.5091680000000 1.0
C      1  0.4862280000000  0.4323950000000  0.5922280000000 1.0
C      1  0.4713780000000  0.5641260000000  0.4197490000000 1.0
C      1  0.5251610000000  0.4143530000000  0.4313890000000 1.0
C      1  0.4714710000000  0.4752960000000  0.4302970000000 1.0
C      1  0.5487970000000  0.4417880000000  0.4938150000000 1.0
C      1  0.5279750000000  0.4549490000000  0.3911440000000 1.0
C      1  0.5262820000000  0.4520900000000  0.4472340000000 1.0
C      1  0.5244650000000  0.5837270000000  0.5599260000000 1.0
C      1  0.5655180000000  0.5701360000000  0.5512780000000 1.0
C      1  0.5183830000000  0.5481410000000  0.5961340000000 1.0
C      1  0.4577610000000  0.4883980000000  0.4071180000000 1.0
C      1  0.4129260000000  0.5618450000000  0.4846120000000 1.0
C      1  0.5669200000000  0.4651960000000  0.4193880000000 1.0
C      1  0.5528150000000  0.5931500000000  0.5114250000000 1.0
C      1  0.5162700000000  0.4361650000000  0.4115640000000 1.0
C      1  0.5919540000000  0.4468840000000  0.4697960000000 1.0
C      1  0.5989790000000  0.4546860000000  0.4952920000000 1.0
C      1  0.5017240000000  0.3926610000000  0.5393760000000 1.0
C      1  0.5039650000000  0.4595650000000  0.4642040000000 1.0
C      1  0.5700920000000  0.5758150000000  0.4534700000000 1.0
C      1  0.3901160000000  0.5242510000000  0.5381610000000 1.0
C      1  0.5315260000000  0.5357360000000  0.4620910000000 1.0
C      1  0.5196280000000  0.5624170000000  0.4661300000000 1.0
C      1  0.5305860000000  0.4386490000000  0.5700010000000 1.0
C      1  0.4778380000000  0.5315290000000  0.4898540000000 1.0
C      1  0.5154580000000  0.5093680000000  0.3876280000000 1.0
C      1  0.4343710000000  0.5795860000000  0.5325060000000 1.0
C      1  0.4518500000000  0.5081920000000  0.4570860000000 1.0
C      1  0.5594830000000  0.4715470000000  0.5842010000000 1.0
C      1  0.4280200000000  0.4410570000000  0.5662400000000 1.0
C      1  0.4997370000000  0.5225910000000  0.4719650000000 1.0
C      1  0.4302320000000  0.5415860000000  0.4349720000000 1.0
C      1  0.5842490000000  0.5274930000000  0.5148190000000 1.0
C      1  0.5431680000000  0.5458660000000  0.5007020000000 1.0
C      1  0.3984420000000  0.4821730000000  0.4782290000000 1.0
C      1  0.5708140000000  0.4225820000000  0.4627540000000 1.0
C      1  0.4256060000000  0.4105820000000  0.4946670000000 1.0
C      1  0.4490440000000  0.4272640000000  0.5538270000000 1.0
C      1  0.5811920000000  0.4764290000000  0.5705900000000 1.0
C      1  0.5339490000000  0.5618550000000  0.5751550000000 1.0
C      1  0.4261930000000  0.5204730000000  0.4867410000000 1.0
C      1  0.4531070000000  0.5728130000000  0.4631380000000 1.0
C      1  0.5598540000000  0.5513200000000  0.5728310000000 1.0
C      1  0.5840180000000  0.5333510000000  0.4360590000000 1.0
C      1  0.4819680000000  0.3822470000000  0.5189520000000 1.0
C      1  0.4826620000000  0.5616840000000  0.5524510000000 1.0
C      1  0.5499670000000  0.5956240000000  0.4566060000000 1.0
C      1  0.5011380000000  0.5647480000000  0.4187410000000 1.0
C      1  0.4133720000000  0.5121810000000  0.5514850000000 1.0
C      1  0.4953800000000  0.4835780000000  0.4971420000000 1.0
C      1  0.4286320000000  0.4583060000000  0.5885200000000 1.0
C      1  0.4249200000000  0.5031970000000  0.5085530000000 1.0
C      1  0.4526430000000  0.5424020000000  0.4153460000000 1.0
C      1  0.3828490000000  0.5230030000000  0.5087650000000 1.0
C      1  0.5238270000000  0.5663560000000  0.4939160000000 1.0
C      1  0.6004320000000  0.5477370000000  0.4765600000000 1.0
C      1  0.4290120000000  0.5117020000000  0.4378850000000 1.0
C      1  0.5130610000000  0.6067540000000  0.4831580000000 1.0
C      1  0.4776090000000  0.5359100000000  0.5170710000000 1.0
C      1  0.4321310000000  0.4862820000000  0.4236310000000 1.0
C      1  0.4560450000000  0.4038970000000  0.4512690000000 1.0
C      1  0.4956630000000  0.5805420000000  0.5679950000000 1.0
C      1  0.4828510000000  0.5124740000000  0.6079840000000 1.0
C      1  0.5683150000000  0.5562350000000  0.4299280000000 1.0
C      1  0.5094720000000  0.5126040000000  0.5560020000000 1.0
C      1  0.4573330000000  0.5983930000000  0.5329930000000 1.0
C      1  0.4042010000000  0.5094800000000  0.4696720000000 1.0
C      1  0.5540840000000  0.5118430000000  0.4132980000000 1.0
C      1  0.6086430000000  0.5314340000000  0.4986270000000 1.0
C      1  0.4821210000000  0.3961520000000  0.4630810000000 1.0
C      1  0.4070340000000  0.4534810000000  0.5230810000000 1.0
C      1  0.4831460000000  0.5152010000000  0.5669490000000 1.0
C      1  0.5820860000000  0.5284350000000  0.4658830000000 1.0
C      1  0.5477870000000  0.5533270000000  0.4080530000000 1.0
C      1  0.4709930000000  0.4889960000000  0.4544600000000 1.0
C      1  0.4079310000000  0.4160900000000  0.4473880000000 1.0
END
