TITL C-884134-5972-354 6.36190611535109 125000 -17585.8045951068 0 0 119 (C1) n - 1
REM
REM in /home/nfs/bkarasulu/CARBON/AIRSS/Generating-Clusters/ReaxFF-fromJPCA2015/Units_Real/with-SteepDescent/Only-C1/SD-CG/Try1-3A/FIRE-CG
REM
REM
REM
REM
REM
REM ./C.cell (11c1c37f851c82e70ff6c80c92926a4b)
REM
REM compiler GCC version 9.2.1 20190827 (Red Hat 9.2.1-1)
REM options -cpp -mtune=generic -march=x86-64 -g -O0 -fpre-include=/usr/include/finclude/math-vector-fortran.h
REM seed 1732570277 -2096584391 -745359973 -653842262 1038424545 1459013373 -544060123 -1436771752 -544303991 159184083 1708386100 1013188150 -183659943 -1703803529 -882106045 -427695631 -1221602963 -2058427020 428838186 -1216581008 -156344354 1576998029 -15033671 -1869472947 1525426378 1166673577 1497476842 1694574528 1163287574 -514934888 1219843683 -1874501130 1631987051
REM
CELL 1.54180   50.00000   50.00000   50.00000   90.00000   90.00000   90.00000
LATT -1
SFAC C  
C      1  0.4999550000000  0.5961320000000  0.4874450000000 1.0
C      1  0.4466180000000  0.5791910000000  0.5310920000000 1.0
C      1  0.4980040000000  0.4606430000000  0.5843830000000 1.0
C      1  0.5162450000000  0.5716520000000  0.4480520000000 1.0
C      1  0.5390280000000  0.5729610000000  0.5369240000000 1.0
C      1  0.4651010000000  0.4182070000000  0.4849520000000 1.0
C      1  0.5075610000000  0.4279080000000  0.5515070000000 1.0
C      1  0.4910570000000  0.4389540000000  0.4329520000000 1.0
C      1  0.4301280000000  0.4789700000000  0.5409410000000 1.0
C      1  0.5195080000000  0.5220550000000  0.5023990000000 1.0
C      1  0.4164480000000  0.5354280000000  0.4781990000000 1.0
C      1  0.5494820000000  0.5550800000000  0.4740250000000 1.0
C      1  0.5373370000000  0.4969210000000  0.4347960000000 1.0
C      1  0.5375440000000  0.4265510000000  0.4554390000000 1.0
C      1  0.5969180000000  0.4711510000000  0.5092740000000 1.0
C      1  0.4216150000000  0.5481130000000  0.5035770000000 1.0
C      1  0.5269780000000  0.5391330000000  0.4812660000000 1.0
C      1  0.4520130000000  0.5511380000000  0.4431960000000 1.0
C      1  0.5399500000000  0.4653580000000  0.5177510000000 1.0
C      1  0.5146890000000  0.5122450000000  0.4243430000000 1.0
C      1  0.4927600000000  0.4818480000000  0.4501910000000 1.0
C      1  0.5616070000000  0.5472190000000  0.4289220000000 1.0
C      1  0.4733610000000  0.5510080000000  0.5552650000000 1.0
C      1  0.4482010000000  0.4498960000000  0.4499190000000 1.0
C      1  0.5831520000000  0.5166780000000  0.4658000000000 1.0
C      1  0.4302520000000  0.5316280000000  0.5516400000000 1.0
C      1  0.4737350000000  0.5290020000000  0.5059190000000 1.0
C      1  0.5762240000000  0.4884740000000  0.4714900000000 1.0
C      1  0.4288540000000  0.5528240000000  0.5300020000000 1.0
C      1  0.4392770000000  0.4501810000000  0.5394250000000 1.0
C      1  0.4260680000000  0.5030950000000  0.5570840000000 1.0
C      1  0.4748460000000  0.4510910000000  0.4097310000000 1.0
C      1  0.4440610000000  0.4885150000000  0.5176290000000 1.0
C      1  0.4882530000000  0.5141330000000  0.5842740000000 1.0
C      1  0.5137410000000  0.4086190000000  0.4613290000000 1.0
C      1  0.5045920000000  0.4764670000000  0.5387360000000 1.0
C      1  0.4908110000000  0.5050040000000  0.4672120000000 1.0
C      1  0.4533850000000  0.4783230000000  0.5861620000000 1.0
C      1  0.4890690000000  0.5128160000000  0.5528880000000 1.0
C      1  0.4838860000000  0.4585330000000  0.4965900000000 1.0
C      1  0.4964140000000  0.5274170000000  0.4433940000000 1.0
C      1  0.5109480000000  0.5759230000000  0.5477680000000 1.0
C      1  0.5552080000000  0.4351050000000  0.4761810000000 1.0
C      1  0.5151830000000  0.4550400000000  0.5587630000000 1.0
C      1  0.5537160000000  0.4719100000000  0.4348590000000 1.0
C      1  0.4813350000000  0.4106130000000  0.5253520000000 1.0
C      1  0.4676480000000  0.4906590000000  0.4614590000000 1.0
C      1  0.5040270000000  0.5487460000000  0.4665480000000 1.0
C      1  0.4684040000000  0.4556280000000  0.5826870000000 1.0
C      1  0.4339380000000  0.5040690000000  0.4442040000000 1.0
C      1  0.4506810000000  0.5400850000000  0.5708350000000 1.0
C      1  0.5579190000000  0.5529090000000  0.5466250000000 1.0
C      1  0.5739770000000  0.5225320000000  0.4383560000000 1.0
C      1  0.5122270000000  0.4546680000000  0.4827590000000 1.0
C      1  0.4401410000000  0.4350170000000  0.5130110000000 1.0
C      1  0.5645210000000  0.4980300000000  0.4250150000000 1.0
C      1  0.5871210000000  0.4627010000000  0.4838520000000 1.0
C      1  0.5804260000000  0.5343180000000  0.4905780000000 1.0
C      1  0.4917380000000  0.4801030000000  0.5146640000000 1.0
C      1  0.5463260000000  0.5480210000000  0.5705730000000 1.0
C      1  0.4235390000000  0.4484550000000  0.4925090000000 1.0
C      1  0.4789220000000  0.5315570000000  0.5348780000000 1.0
C      1  0.5598860000000  0.4844580000000  0.5656900000000 1.0
C      1  0.5681750000000  0.5143260000000  0.5075440000000 1.0
C      1  0.4692190000000  0.5861670000000  0.5137440000000 1.0
C      1  0.4489100000000  0.4938730000000  0.4204310000000 1.0
C      1  0.5499340000000  0.5010430000000  0.5884380000000 1.0
C      1  0.5099050000000  0.4154670000000  0.5255750000000 1.0
C      1  0.4676780000000  0.4288810000000  0.5072660000000 1.0
C      1  0.5230810000000  0.4549350000000  0.4114920000000 1.0
C      1  0.5184210000000  0.5947100000000  0.4654050000000 1.0
C      1  0.5319270000000  0.4766900000000  0.4933350000000 1.0
C      1  0.5578660000000  0.5236000000000  0.5328650000000 1.0
C      1  0.5041060000000  0.4564130000000  0.4534580000000 1.0
C      1  0.4942250000000  0.5070960000000  0.4986580000000 1.0
C      1  0.4315300000000  0.5324280000000  0.4526560000000 1.0
C      1  0.4995970000000  0.5580500000000  0.5678740000000 1.0
C      1  0.4870660000000  0.5904040000000  0.5373130000000 1.0
C      1  0.5367240000000  0.5632090000000  0.4294150000000 1.0
C      1  0.5093390000000  0.5372330000000  0.5858870000000 1.0
C      1  0.5280620000000  0.5945920000000  0.4942410000000 1.0
C      1  0.4418880000000  0.4706280000000  0.4953220000000 1.0
C      1  0.5537120000000  0.4957330000000  0.4882150000000 1.0
C      1  0.5682730000000  0.5612970000000  0.4950670000000 1.0
C      1  0.4791530000000  0.4209490000000  0.5521830000000 1.0
C      1  0.4749590000000  0.5762810000000  0.4869360000000 1.0
C      1  0.4576730000000  0.4399290000000  0.5586790000000 1.0
C      1  0.5145370000000  0.5024830000000  0.5453530000000 1.0
C      1  0.4223310000000  0.4564630000000  0.4640930000000 1.0
C      1  0.4587410000000  0.5197880000000  0.5897880000000 1.0
C      1  0.4620200000000  0.4678730000000  0.4763460000000 1.0
C      1  0.4976610000000  0.5016000000000  0.4044790000000 1.0
C      1  0.5896150000000  0.4842620000000  0.5271890000000 1.0
C      1  0.5007750000000  0.4866220000000  0.5962790000000 1.0
C      1  0.5093820000000  0.4747100000000  0.3952460000000 1.0
C      1  0.4611530000000  0.5914680000000  0.5543940000000 1.0
C      1  0.4219900000000  0.5066760000000  0.4846680000000 1.0
C      1  0.5302670000000  0.5178390000000  0.5271910000000 1.0
C      1  0.5555650000000  0.4501260000000  0.5301420000000 1.0
C      1  0.5701000000000  0.4428750000000  0.4978760000000 1.0
C      1  0.5375800000000  0.5300640000000  0.5894270000000 1.0
C      1  0.4673800000000  0.4258000000000  0.4456570000000 1.0
C      1  0.4828660000000  0.5498000000000  0.4873870000000 1.0
C      1  0.5408440000000  0.4460280000000  0.4310360000000 1.0
C      1  0.5280940000000  0.4862110000000  0.5943780000000 1.0
C      1  0.5482220000000  0.4588440000000  0.5568040000000 1.0
C      1  0.5190490000000  0.4284180000000  0.5008970000000 1.0
C      1  0.4701660000000  0.5116220000000  0.4109400000000 1.0
C      1  0.4369160000000  0.5000840000000  0.5854210000000 1.0
C      1  0.5469460000000  0.5771000000000  0.5089530000000 1.0
C      1  0.5752960000000  0.4996810000000  0.5450860000000 1.0
C      1  0.4431990000000  0.5137510000000  0.5032920000000 1.0
C      1  0.5564070000000  0.5665180000000  0.4481530000000 1.0
C      1  0.4520680000000  0.4649280000000  0.4226730000000 1.0
C      1  0.5214610000000  0.4057080000000  0.4878920000000 1.0
C      1  0.4200660000000  0.4859660000000  0.4634750000000 1.0
C      1  0.4727510000000  0.5350490000000  0.4276250000000 1.0
C      1  0.4561280000000  0.5760780000000  0.4577350000000 1.0
C      1  0.4824360000000  0.4105200000000  0.4648400000000 1.0
END
