TITL C-883739-1268-26 2977470.63614318 125000 -20871.9112317062 0 0 139 (C1) n - 1
REM
REM in /home/nfs/bkarasulu/CARBON/AIRSS/Generating-Clusters/ReaxFF-fromJPCA2015/Units_Real/with-SteepDescent/Only-C1/SD-CG/Try1-3A/FIRE-CG
REM
REM
REM
REM
REM
REM ./C.cell (11c1c37f851c82e70ff6c80c92926a4b)
REM
REM compiler GCC version 9.2.1 20190827 (Red Hat 9.2.1-1)
REM options -cpp -mtune=generic -march=x86-64 -g -O0 -fpre-include=/usr/include/finclude/math-vector-fortran.h
REM seed -1908469056 1763918913 70804758 1832655524 1699789634 1604293612 542535442 1183449319 493082424 1690158572 -1018410038 -312352428 791522777 -529621157 1744720909 726303757 -1648595509 -1275752760 -187808686 1397877456 -1187120212 -945977008 -830953091 894573848 -1425589736 1218407328 1464636193 1467493261 -1953079842 -526191759 704183126 1294399625 1793371240
REM
CELL 1.54180   50.00000   50.00000   50.00000   90.00000   90.00000   90.00000
LATT -1
SFAC C  
C      1  0.4149830000000  0.5253290000000  0.4705090000000 1.0
C      1  0.5296670000000  0.5086610000000  0.5772370000000 1.0
C      1  0.5274280000000  0.5789260000000  0.5538550000000 1.0
C      1  0.5213590000000  0.5897350000000  0.5270840000000 1.0
C      1  0.4899440000000  0.4149880000000  0.5416050000000 1.0
C      1  0.5187570000000  0.4071110000000  0.4864700000000 1.0
C      1  0.5412560000000  0.4563920000000  0.4223250000000 1.0
C      1  0.4565140000000  0.4306320000000  0.5646770000000 1.0
C      1  0.5273550000000  0.4637070000000  0.4472710000000 1.0
C      1  0.5681380000000  0.4681240000000  0.5711490000000 1.0
C      1  0.5683740000000  0.4907260000000  0.4391820000000 1.0
C      1  0.4263700000000  0.4474320000000  0.4921050000000 1.0
C      1  0.4437310000000  0.5315590000000  0.5143220000000 1.0
C      1  0.5081760000000  0.4364920000000  0.5795850000000 1.0
C      1  0.5772080000000  0.5173780000000  0.5607680000000 1.0
C      1  0.6008890000000  0.4941470000000  0.4786970000000 1.0
C      1  0.4332780000000  0.5702730000000  0.4722370000000 1.0
C      1  0.4939090000000  0.5856990000000  0.5161010000000 1.0
C      1  0.4475370000000  0.5575960000000  0.4498780000000 1.0
C      1  0.4713410000000  0.4693510000000  0.5873000000000 1.0
C      1  0.4906980000000  0.5198580000000  0.5048740000000 1.0
C      1  0.5659120000000  0.4657210000000  0.4841920000000 1.0
C      1  0.5574630000000  0.5604570000000  0.4261960000000 1.0
C      1  0.4577960000000  0.4922040000000  0.4498590000000 1.0
C      1  0.5171120000000  0.4601470000000  0.5949510000000 1.0
C      1  0.4509450000000  0.5391260000000  0.5449230000000 1.0
C      1  0.4837770000000  0.5410060000000  0.5452760000000 1.0
C      1  0.5677860000000  0.4605690000000  0.4334670000000 1.0
C      1  0.4965190000000  0.4809130000000  0.5969640000000 1.0
C      1  0.4685700000000  0.5439020000000  0.4660890000000 1.0
C      1  0.4796030000000  0.5891510000000  0.5630020000000 1.0
C      1  0.4332710000000  0.5765570000000  0.5196120000000 1.0
C      1  0.5390250000000  0.4918930000000  0.4975960000000 1.0
C      1  0.4441340000000  0.4766920000000  0.4140440000000 1.0
C      1  0.5144110000000  0.5362900000000  0.4650650000000 1.0
C      1  0.5153150000000  0.4408760000000  0.4149440000000 1.0
C      1  0.5805980000000  0.4820020000000  0.5252740000000 1.0
C      1  0.4042030000000  0.4780940000000  0.5308970000000 1.0
C      1  0.5560500000000  0.4989340000000  0.5184840000000 1.0
C      1  0.4472470000000  0.4650990000000  0.5021800000000 1.0
C      1  0.4555490000000  0.4642290000000  0.5291490000000 1.0
C      1  0.4055210000000  0.5284220000000  0.5330800000000 1.0
C      1  0.5428800000000  0.5887760000000  0.5073660000000 1.0
C      1  0.5194930000000  0.5327910000000  0.4927590000000 1.0
C      1  0.4767520000000  0.5029820000000  0.4874440000000 1.0
C      1  0.4613690000000  0.5244690000000  0.4114210000000 1.0
C      1  0.4764070000000  0.5901060000000  0.4917660000000 1.0
C      1  0.5180430000000  0.5038690000000  0.5391170000000 1.0
C      1  0.5705160000000  0.4284230000000  0.5042660000000 1.0
C      1  0.4100210000000  0.4938290000000  0.5087530000000 1.0
C      1  0.5177710000000  0.5110320000000  0.4486120000000 1.0
C      1  0.4153820000000  0.4516550000000  0.5367200000000 1.0
C      1  0.4452420000000  0.4771650000000  0.5761610000000 1.0
C      1  0.4942520000000  0.5515250000000  0.5727800000000 1.0
C      1  0.4083420000000  0.5047540000000  0.5484090000000 1.0
C      1  0.5406800000000  0.5197070000000  0.5326300000000 1.0
C      1  0.5245530000000  0.4861460000000  0.5593680000000 1.0
C      1  0.4475460000000  0.5828020000000  0.4949520000000 1.0
C      1  0.4329600000000  0.4400350000000  0.4418130000000 1.0
C      1  0.4744750000000  0.4388160000000  0.4451020000000 1.0
C      1  0.5014450000000  0.4401020000000  0.5296040000000 1.0
C      1  0.4782700000000  0.4418440000000  0.5793950000000 1.0
C      1  0.5842770000000  0.4449830000000  0.4526820000000 1.0
C      1  0.5796500000000  0.4503010000000  0.5197130000000 1.0
C      1  0.4686010000000  0.5432740000000  0.5011750000000 1.0
C      1  0.5488230000000  0.5597420000000  0.5598910000000 1.0
C      1  0.4411880000000  0.5675660000000  0.5441070000000 1.0
C      1  0.4233260000000  0.4317650000000  0.5164460000000 1.0
C      1  0.5024100000000  0.5570070000000  0.4224560000000 1.0
C      1  0.5198810000000  0.4728280000000  0.4942890000000 1.0
C      1  0.4872580000000  0.5356800000000  0.4057780000000 1.0
C      1  0.4572020000000  0.5880700000000  0.5504640000000 1.0
C      1  0.4894650000000  0.5325100000000  0.5938260000000 1.0
C      1  0.5278610000000  0.4287210000000  0.5597160000000 1.0
C      1  0.5792660000000  0.5439290000000  0.4957370000000 1.0
C      1  0.5000660000000  0.4268510000000  0.4365740000000 1.0
C      1  0.5538130000000  0.5839910000000  0.4437520000000 1.0
C      1  0.5491440000000  0.5288870000000  0.5655170000000 1.0
C      1  0.4512920000000  0.4495360000000  0.4243750000000 1.0
C      1  0.5454310000000  0.4662780000000  0.5895820000000 1.0
C      1  0.5987780000000  0.5006280000000  0.5066230000000 1.0
C      1  0.4174190000000  0.5501900000000  0.5137790000000 1.0
C      1  0.4661010000000  0.5143340000000  0.4660930000000 1.0
C      1  0.4953500000000  0.3998660000000  0.5004610000000 1.0
C      1  0.5060590000000  0.3952570000000  0.5280790000000 1.0
C      1  0.4635560000000  0.4959530000000  0.4037320000000 1.0
C      1  0.5062790000000  0.5087530000000  0.5954240000000 1.0
C      1  0.4411080000000  0.5372760000000  0.4298980000000 1.0
C      1  0.5292360000000  0.5254250000000  0.4012150000000 1.0
C      1  0.5423860000000  0.5156160000000  0.4847660000000 1.0
C      1  0.5349030000000  0.5422990000000  0.5155110000000 1.0
C      1  0.4592750000000  0.4218120000000  0.4685430000000 1.0
C      1  0.4732390000000  0.4757040000000  0.4868430000000 1.0
C      1  0.5042220000000  0.5794090000000  0.5723530000000 1.0
C      1  0.4604720000000  0.4121040000000  0.5429810000000 1.0
C      1  0.5957680000000  0.5284780000000  0.5138010000000 1.0
C      1  0.5308740000000  0.4075150000000  0.5394090000000 1.0
C      1  0.4225950000000  0.5187080000000  0.4424750000000 1.0
C      1  0.4843750000000  0.4634500000000  0.5293700000000 1.0
C      1  0.5263580000000  0.4398530000000  0.5154000000000 1.0
C      1  0.4939310000000  0.5155370000000  0.5335760000000 1.0
C      1  0.5811320000000  0.4891030000000  0.5560870000000 1.0
C      1  0.5437670000000  0.5022520000000  0.4436680000000 1.0
C      1  0.4390890000000  0.4544790000000  0.5559940000000 1.0
C      1  0.4467680000000  0.5248580000000  0.5719470000000 1.0
C      1  0.5585520000000  0.5601290000000  0.5126270000000 1.0
C      1  0.4320550000000  0.4914600000000  0.4367350000000 1.0
C      1  0.5833330000000  0.5076100000000  0.4593120000000 1.0
C      1  0.4481920000000  0.4148340000000  0.5165990000000 1.0
C      1  0.5931000000000  0.4650580000000  0.4756950000000 1.0
C      1  0.5384960000000  0.5955490000000  0.4821150000000 1.0
C      1  0.4942660000000  0.4692330000000  0.5033890000000 1.0
C      1  0.4134430000000  0.5513380000000  0.4826100000000 1.0
C      1  0.4826360000000  0.5603370000000  0.5212650000000 1.0
C      1  0.5707230000000  0.5594260000000  0.5416370000000 1.0
C      1  0.5682430000000  0.5275920000000  0.4748430000000 1.0
C      1  0.4907850000000  0.4871540000000  0.3954990000000 1.0
C      1  0.4671150000000  0.4112650000000  0.4941700000000 1.0
C      1  0.5043460000000  0.5995390000000  0.4470520000000 1.0
C      1  0.5171150000000  0.4156320000000  0.4583120000000 1.0
C      1  0.4258170000000  0.5129960000000  0.4956770000000 1.0
C      1  0.5885050000000  0.5366860000000  0.5421540000000 1.0
C      1  0.4312060000000  0.4298650000000  0.4680070000000 1.0
C      1  0.4682200000000  0.5237720000000  0.5889970000000 1.0
C      1  0.4995450000000  0.5874890000000  0.4205610000000 1.0
C      1  0.5771850000000  0.4257780000000  0.4742320000000 1.0
C      1  0.4900810000000  0.5832160000000  0.4665930000000 1.0
C      1  0.5031660000000  0.4639860000000  0.4047920000000 1.0
C      1  0.5409750000000  0.4596130000000  0.5597990000000 1.0
C      1  0.5339430000000  0.6020680000000  0.4566120000000 1.0
C      1  0.4790100000000  0.4712880000000  0.4543610000000 1.0
C      1  0.5325730000000  0.5473980000000  0.4149360000000 1.0
C      1  0.4309800000000  0.5008510000000  0.5698190000000 1.0
C      1  0.4950040000000  0.5547900000000  0.4560800000000 1.0
C      1  0.5046030000000  0.5149190000000  0.3943520000000 1.0
C      1  0.5057240000000  0.4834660000000  0.4487430000000 1.0
C      1  0.5361520000000  0.4516960000000  0.4912100000000 1.0
C      1  0.5404710000000  0.4152420000000  0.5110480000000 1.0
C      1  0.5283310000000  0.4407260000000  0.4651460000000 1.0
END
