TITL C-883728-9229-213 95.8757885091797 125000 -28357.8372167161 0 0 191 (C1) n - 1
REM
REM in /home/nfs/bkarasulu/CARBON/AIRSS/Generating-Clusters/ReaxFF-fromJPCA2015/Units_Real/with-SteepDescent/Only-C1/SD-CG/Try1-3A/FIRE-CG
REM
REM
REM
REM
REM
REM ./C.cell (11c1c37f851c82e70ff6c80c92926a4b)
REM
REM compiler GCC version 9.2.1 20190827 (Red Hat 9.2.1-1)
REM options -cpp -mtune=generic -march=x86-64 -g -O0 -fpre-include=/usr/include/finclude/math-vector-fortran.h
REM seed -1495773774 233041007 1189393246 -1257477119 1057152518 -338913932 -30058359 182895158 -1005311357 -1604292686 -1524197940 476889775 -1067844161 -330808240 493221339 1106915985 -1972937442 -1180949988 1030720591 1564106518 -1664631664 804931857 -1145954974 1882374407 -815057531 935612578 468167095 155227910 865697206 -988769826 886380758 -1127535047 -239596742
REM
CELL 1.54180   50.00000   50.00000   50.00000   90.00000   90.00000   90.00000
LATT -1
SFAC C  
C      1  0.4227640000000  0.5508560000000  0.5449890000000 1.0
C      1  0.4510870000000  0.5693660000000  0.4349440000000 1.0
C      1  0.5774140000000  0.5470280000000  0.4423600000000 1.0
C      1  0.4789680000000  0.3806140000000  0.5408290000000 1.0
C      1  0.4910260000000  0.4130790000000  0.5842200000000 1.0
C      1  0.5376220000000  0.4100480000000  0.4491550000000 1.0
C      1  0.4706090000000  0.4297290000000  0.5954900000000 1.0
C      1  0.5826340000000  0.4805830000000  0.5482850000000 1.0
C      1  0.4495980000000  0.4496140000000  0.5855860000000 1.0
C      1  0.4995410000000  0.5803330000000  0.5772330000000 1.0
C      1  0.5253980000000  0.5066600000000  0.4974530000000 1.0
C      1  0.4301260000000  0.5234490000000  0.5462570000000 1.0
C      1  0.4526090000000  0.5200680000000  0.4124280000000 1.0
C      1  0.6087570000000  0.4714020000000  0.4709190000000 1.0
C      1  0.4961680000000  0.5707450000000  0.4297360000000 1.0
C      1  0.5262160000000  0.4545210000000  0.4503990000000 1.0
C      1  0.5543450000000  0.4252750000000  0.4965630000000 1.0
C      1  0.4306740000000  0.4984220000000  0.4138210000000 1.0
C      1  0.5154970000000  0.3895840000000  0.5074160000000 1.0
C      1  0.4544560000000  0.3927350000000  0.5475780000000 1.0
C      1  0.4561710000000  0.5516370000000  0.4130160000000 1.0
C      1  0.5723060000000  0.5765950000000  0.5571040000000 1.0
C      1  0.4656870000000  0.4620490000000  0.4063060000000 1.0
C      1  0.5066860000000  0.5811320000000  0.5278790000000 1.0
C      1  0.4035390000000  0.4398450000000  0.5123890000000 1.0
C      1  0.5152890000000  0.6020390000000  0.4636290000000 1.0
C      1  0.5263440000000  0.4780810000000  0.4878540000000 1.0
C      1  0.4767860000000  0.4733670000000  0.4527210000000 1.0
C      1  0.4772740000000  0.3944310000000  0.5649840000000 1.0
C      1  0.5128380000000  0.4676940000000  0.4008300000000 1.0
C      1  0.6036380000000  0.5152020000000  0.5362140000000 1.0
C      1  0.5705240000000  0.5188720000000  0.4404190000000 1.0
C      1  0.4362070000000  0.5575230000000  0.5910350000000 1.0
C      1  0.3981810000000  0.5520720000000  0.4997240000000 1.0
C      1  0.4496360000000  0.5443310000000  0.4854820000000 1.0
C      1  0.5504760000000  0.5165730000000  0.5275980000000 1.0
C      1  0.6033350000000  0.5366050000000  0.4881260000000 1.0
C      1  0.5441950000000  0.5942110000000  0.4627280000000 1.0
C      1  0.4111300000000  0.4673050000000  0.5674990000000 1.0
C      1  0.5755480000000  0.4553160000000  0.5597980000000 1.0
C      1  0.5326960000000  0.5377730000000  0.5222230000000 1.0
C      1  0.4834670000000  0.5575860000000  0.4067290000000 1.0
C      1  0.5987490000000  0.4288600000000  0.4863030000000 1.0
C      1  0.5949990000000  0.4466030000000  0.5096010000000 1.0
C      1  0.4040280000000  0.5070040000000  0.5133230000000 1.0
C      1  0.5233550000000  0.5301960000000  0.3957620000000 1.0
C      1  0.4057660000000  0.4600920000000  0.4619550000000 1.0
C      1  0.5623420000000  0.5346740000000  0.5904990000000 1.0
C      1  0.4901590000000  0.5090340000000  0.5517620000000 1.0
C      1  0.4981990000000  0.4717060000000  0.4943890000000 1.0
C      1  0.4934980000000  0.5066180000000  0.5242490000000 1.0
C      1  0.5037840000000  0.4871010000000  0.5989900000000 1.0
C      1  0.5717370000000  0.4403770000000  0.5337150000000 1.0
C      1  0.6035130000000  0.5625140000000  0.5329200000000 1.0
C      1  0.5201220000000  0.4517670000000  0.5313190000000 1.0
C      1  0.4696260000000  0.6157070000000  0.4892110000000 1.0
C      1  0.3876140000000  0.4845560000000  0.4669610000000 1.0
C      1  0.6030880000000  0.4439020000000  0.4611880000000 1.0
C      1  0.4825370000000  0.5234450000000  0.4512150000000 1.0
C      1  0.5336910000000  0.5341440000000  0.4695070000000 1.0
C      1  0.5415910000000  0.5646060000000  0.5140940000000 1.0
C      1  0.5412860000000  0.5122680000000  0.4437320000000 1.0
C      1  0.4808970000000  0.5438670000000  0.5264590000000 1.0
C      1  0.4785320000000  0.4895450000000  0.5065130000000 1.0
C      1  0.5273540000000  0.5045940000000  0.5978570000000 1.0
C      1  0.4329540000000  0.5706240000000  0.5664300000000 1.0
C      1  0.4862990000000  0.4328830000000  0.4739140000000 1.0
C      1  0.4269460000000  0.5892940000000  0.4845460000000 1.0
C      1  0.4740930000000  0.4952420000000  0.5707310000000 1.0
C      1  0.5627220000000  0.4585620000000  0.4014700000000 1.0
C      1  0.3894910000000  0.4594880000000  0.5258060000000 1.0
C      1  0.5925000000000  0.5544560000000  0.5592740000000 1.0
C      1  0.4526430000000  0.4824420000000  0.5158420000000 1.0
C      1  0.5113760000000  0.5292680000000  0.4894280000000 1.0
C      1  0.5473070000000  0.5428450000000  0.4047140000000 1.0
C      1  0.4767380000000  0.4556290000000  0.5455520000000 1.0
C      1  0.5334670000000  0.4325830000000  0.4300700000000 1.0
C      1  0.5792120000000  0.4977180000000  0.4939300000000 1.0
C      1  0.3843460000000  0.5124930000000  0.4719760000000 1.0
C      1  0.4389900000000  0.4694980000000  0.4172820000000 1.0
C      1  0.4809610000000  0.5516390000000  0.5541660000000 1.0
C      1  0.3887110000000  0.5246950000000  0.4992680000000 1.0
C      1  0.5888860000000  0.4818830000000  0.4506940000000 1.0
C      1  0.5539270000000  0.4920990000000  0.5898620000000 1.0
C      1  0.5828120000000  0.4324970000000  0.4412540000000 1.0
C      1  0.5235550000000  0.4047650000000  0.5565290000000 1.0
C      1  0.6079650000000  0.5382200000000  0.5164140000000 1.0
C      1  0.5762280000000  0.5114940000000  0.5843500000000 1.0
C      1  0.4314260000000  0.5347350000000  0.5879250000000 1.0
C      1  0.4743890000000  0.4925730000000  0.5994320000000 1.0
C      1  0.5146020000000  0.4708450000000  0.5765280000000 1.0
C      1  0.5219450000000  0.4194210000000  0.5829800000000 1.0
C      1  0.5077200000000  0.4415950000000  0.4106870000000 1.0
C      1  0.4673000000000  0.6178130000000  0.5175480000000 1.0
C      1  0.4885850000000  0.3846290000000  0.5140660000000 1.0
C      1  0.4702760000000  0.3924240000000  0.4920810000000 1.0
C      1  0.4989730000000  0.6126310000000  0.4914340000000 1.0
C      1  0.5020950000000  0.5503160000000  0.5753900000000 1.0
C      1  0.4271550000000  0.4453870000000  0.5618480000000 1.0
C      1  0.4085000000000  0.4381060000000  0.4841850000000 1.0
C      1  0.4952150000000  0.5323710000000  0.3968940000000 1.0
C      1  0.5127580000000  0.3950790000000  0.4783060000000 1.0
C      1  0.3846050000000  0.4982040000000  0.5300390000000 1.0
C      1  0.6041000000000  0.5083610000000  0.4866410000000 1.0
C      1  0.5268600000000  0.4914140000000  0.5579910000000 1.0
C      1  0.3955580000000  0.5274870000000  0.4474940000000 1.0
C      1  0.5274300000000  0.5631480000000  0.5387390000000 1.0
C      1  0.5564530000000  0.4631910000000  0.5816330000000 1.0
C      1  0.5626700000000  0.5829540000000  0.5076660000000 1.0
C      1  0.5483920000000  0.4596870000000  0.4999940000000 1.0
C      1  0.4858380000000  0.4817090000000  0.3993630000000 1.0
C      1  0.4941440000000  0.5959040000000  0.4438810000000 1.0
C      1  0.4398540000000  0.4075680000000  0.5266960000000 1.0
C      1  0.5670410000000  0.4856300000000  0.4045120000000 1.0
C      1  0.5295900000000  0.4170520000000  0.4749790000000 1.0
C      1  0.4327810000000  0.4231310000000  0.4768000000000 1.0
C      1  0.5624580000000  0.4392950000000  0.4222180000000 1.0
C      1  0.5390130000000  0.5758300000000  0.4401660000000 1.0
C      1  0.4374230000000  0.5067750000000  0.4671410000000 1.0
C      1  0.6091370000000  0.4708580000000  0.5025940000000 1.0
C      1  0.5631980000000  0.5191470000000  0.5041430000000 1.0
C      1  0.5912700000000  0.5249760000000  0.5610430000000 1.0
C      1  0.4988980000000  0.4517820000000  0.5131910000000 1.0
C      1  0.4265240000000  0.5891310000000  0.5133050000000 1.0
C      1  0.4073430000000  0.5100980000000  0.4263380000000 1.0
C      1  0.4285430000000  0.4797330000000  0.4680060000000 1.0
C      1  0.4709630000000  0.4667800000000  0.5668840000000 1.0
C      1  0.4759030000000  0.4419990000000  0.5234470000000 1.0
C      1  0.5131970000000  0.6068690000000  0.5400520000000 1.0
C      1  0.4122960000000  0.5646170000000  0.5214130000000 1.0
C      1  0.5825600000000  0.5834020000000  0.5306510000000 1.0
C      1  0.4525280000000  0.5221800000000  0.4464860000000 1.0
C      1  0.4411890000000  0.5489610000000  0.4561930000000 1.0
C      1  0.4464620000000  0.6019590000000  0.5305420000000 1.0
C      1  0.5706780000000  0.4702880000000  0.4892100000000 1.0
C      1  0.4489880000000  0.4769730000000  0.6000670000000 1.0
C      1  0.4544450000000  0.4698430000000  0.4714350000000 1.0
C      1  0.5639370000000  0.4701970000000  0.4604460000000 1.0
C      1  0.5199830000000  0.5337630000000  0.5919090000000 1.0
C      1  0.4071940000000  0.5681890000000  0.4769800000000 1.0
C      1  0.4559580000000  0.4444920000000  0.4854230000000 1.0
C      1  0.4876040000000  0.4981940000000  0.4513540000000 1.0
C      1  0.4499320000000  0.4529900000000  0.5141750000000 1.0
C      1  0.4273180000000  0.4517730000000  0.4366390000000 1.0
C      1  0.4526170000000  0.5900490000000  0.5559590000000 1.0
C      1  0.4783620000000  0.5096780000000  0.4003340000000 1.0
C      1  0.5185950000000  0.5187860000000  0.5523900000000 1.0
C      1  0.4901590000000  0.5644690000000  0.4833160000000 1.0
C      1  0.5433540000000  0.5756250000000  0.5663390000000 1.0
C      1  0.4396700000000  0.5195510000000  0.4921160000000 1.0
C      1  0.4335880000000  0.5064230000000  0.5185860000000 1.0
C      1  0.5592750000000  0.5608840000000  0.4247350000000 1.0
C      1  0.4279740000000  0.4343990000000  0.5338760000000 1.0
C      1  0.5799810000000  0.5548420000000  0.4722030000000 1.0
C      1  0.5580700000000  0.5390380000000  0.4842620000000 1.0
C      1  0.5314070000000  0.4474240000000  0.5843120000000 1.0
C      1  0.5239090000000  0.5545250000000  0.4542720000000 1.0
C      1  0.5039990000000  0.5836590000000  0.4989220000000 1.0
C      1  0.4825190000000  0.4450290000000  0.4508680000000 1.0
C      1  0.5834030000000  0.4970800000000  0.4259390000000 1.0
C      1  0.5671400000000  0.4107790000000  0.4526010000000 1.0
C      1  0.4445580000000  0.4032070000000  0.4987090000000 1.0
C      1  0.4703140000000  0.5549350000000  0.5013240000000 1.0
C      1  0.5213100000000  0.5959840000000  0.5661710000000 1.0
C      1  0.4794870000000  0.4364450000000  0.4120940000000 1.0
C      1  0.4639700000000  0.5923340000000  0.4474460000000 1.0
C      1  0.4855880000000  0.4038480000000  0.4698960000000 1.0
C      1  0.6023330000000  0.4872340000000  0.5280980000000 1.0
C      1  0.5377430000000  0.5187190000000  0.4155800000000 1.0
C      1  0.4512470000000  0.6008480000000  0.4721480000000 1.0
C      1  0.3873020000000  0.4762510000000  0.5477960000000 1.0
C      1  0.5473120000000  0.4613790000000  0.5270660000000 1.0
C      1  0.4247290000000  0.5125140000000  0.5725220000000 1.0
C      1  0.5355930000000  0.3966270000000  0.5286890000000 1.0
C      1  0.5511560000000  0.4911590000000  0.5416360000000 1.0
C      1  0.4402750000000  0.4285210000000  0.4454070000000 1.0
C      1  0.5757630000000  0.4122400000000  0.4806840000000 1.0
C      1  0.4963360000000  0.5534270000000  0.4554260000000 1.0
C      1  0.4680980000000  0.4234490000000  0.4373420000000 1.0
C      1  0.4960020000000  0.6210430000000  0.5209600000000 1.0
C      1  0.5366340000000  0.4815510000000  0.4551540000000 1.0
C      1  0.5413780000000  0.5532680000000  0.5898110000000 1.0
C      1  0.5409040000000  0.4755010000000  0.3959200000000 1.0
C      1  0.5046260000000  0.5303490000000  0.5188540000000 1.0
C      1  0.4101470000000  0.5514170000000  0.4539220000000 1.0
C      1  0.4789440000000  0.5799850000000  0.5568760000000 1.0
C      1  0.5573900000000  0.4151380000000  0.5240430000000 1.0
C      1  0.5140010000000  0.4280940000000  0.5446050000000 1.0
C      1  0.4251990000000  0.4854750000000  0.5857000000000 1.0
C      1  0.5660100000000  0.5829580000000  0.4789680000000 1.0
C      1  0.5143680000000  0.4415620000000  0.4739630000000 1.0
END
