TITL C-884132-5695-90 33.7532059424537 125000 -21110.4439981838 0 0 142 (C1) n - 1
REM
REM in /home/nfs/bkarasulu/CARBON/AIRSS/Generating-Clusters/ReaxFF-fromJPCA2015/Units_Real/with-SteepDescent/Only-C1/SD-CG/Try1-3A/FIRE-CG
REM
REM
REM
REM
REM
REM ./C.cell (11c1c37f851c82e70ff6c80c92926a4b)
REM
REM compiler GCC version 9.2.1 20190827 (Red Hat 9.2.1-1)
REM options -cpp -mtune=generic -march=x86-64 -g -O0 -fpre-include=/usr/include/finclude/math-vector-fortran.h
REM seed -1477359300 903803215 388544339 -79506743 66625146 1548607316 -1669258404 -288854077 13491860 -311982266 -1806265308 -699020223 -1093828061 -1190855904 -364593012 -282687558 -1369229934 -1152775427 1020405549 -483409913 -1352325373 -1940043529 833414427 -1661815164 -679179348 -1754021120 -509595002 1606852682 -675234612 -1374305874 -1542021228 1244243891 -1283640779
REM
CELL 1.54180   50.00000   50.00000   50.00000   90.00000   90.00000   90.00000
LATT -1
SFAC C  
C      1  0.5064120000000  0.5533130000000  0.5768650000000 1.0
C      1  0.5305110000000  0.5730210000000  0.5395020000000 1.0
C      1  0.4960510000000  0.4430490000000  0.4971180000000 1.0
C      1  0.4699060000000  0.4720150000000  0.4513600000000 1.0
C      1  0.5699860000000  0.5677590000000  0.4706350000000 1.0
C      1  0.4319680000000  0.4926180000000  0.5754360000000 1.0
C      1  0.5925070000000  0.4725450000000  0.5386360000000 1.0
C      1  0.5711100000000  0.5544490000000  0.5190950000000 1.0
C      1  0.4732860000000  0.4684220000000  0.5594360000000 1.0
C      1  0.4785070000000  0.5360450000000  0.5408370000000 1.0
C      1  0.4716840000000  0.5564010000000  0.4904960000000 1.0
C      1  0.4588030000000  0.5661970000000  0.4289340000000 1.0
C      1  0.5211910000000  0.4704180000000  0.4139050000000 1.0
C      1  0.5304800000000  0.4332910000000  0.5647750000000 1.0
C      1  0.4152580000000  0.4797360000000  0.4554190000000 1.0
C      1  0.5134470000000  0.4063050000000  0.4696420000000 1.0
C      1  0.5212100000000  0.5205770000000  0.5963610000000 1.0
C      1  0.4855700000000  0.5641670000000  0.4405670000000 1.0
C      1  0.4863500000000  0.4333880000000  0.4275310000000 1.0
C      1  0.5064510000000  0.4269790000000  0.5476430000000 1.0
C      1  0.4549890000000  0.5368150000000  0.4253340000000 1.0
C      1  0.5140500000000  0.4319000000000  0.4245690000000 1.0
C      1  0.4277130000000  0.4573120000000  0.4413490000000 1.0
C      1  0.4895050000000  0.5208170000000  0.4577470000000 1.0
C      1  0.4570470000000  0.4008980000000  0.5315600000000 1.0
C      1  0.4437220000000  0.4750950000000  0.5558240000000 1.0
C      1  0.4317650000000  0.5286440000000  0.4415280000000 1.0
C      1  0.4700750000000  0.3981900000000  0.4914630000000 1.0
C      1  0.4280910000000  0.4933240000000  0.4106330000000 1.0
C      1  0.4788870000000  0.5828170000000  0.5397310000000 1.0
C      1  0.4262990000000  0.4349600000000  0.5341230000000 1.0
C      1  0.5701160000000  0.4819760000000  0.4455700000000 1.0
C      1  0.5331940000000  0.5357920000000  0.5022340000000 1.0
C      1  0.5346750000000  0.5741670000000  0.4344430000000 1.0
C      1  0.5540400000000  0.5007270000000  0.4295370000000 1.0
C      1  0.5537330000000  0.5117410000000  0.5079560000000 1.0
C      1  0.4842220000000  0.4082280000000  0.4680920000000 1.0
C      1  0.5268450000000  0.4944560000000  0.4686940000000 1.0
C      1  0.5329840000000  0.4792490000000  0.5369710000000 1.0
C      1  0.4902300000000  0.4263770000000  0.5757890000000 1.0
C      1  0.4283330000000  0.5749650000000  0.4661980000000 1.0
C      1  0.4563360000000  0.4648460000000  0.5047250000000 1.0
C      1  0.4599100000000  0.4676280000000  0.4031160000000 1.0
C      1  0.5577400000000  0.5913060000000  0.4792130000000 1.0
C      1  0.4757440000000  0.5968360000000  0.4641000000000 1.0
C      1  0.5102150000000  0.4066000000000  0.5205540000000 1.0
C      1  0.5119970000000  0.4718600000000  0.5904160000000 1.0
C      1  0.5963470000000  0.4980850000000  0.5546970000000 1.0
C      1  0.5779660000000  0.4975060000000  0.4689760000000 1.0
C      1  0.5088230000000  0.5675010000000  0.4222300000000 1.0
C      1  0.5471170000000  0.4543930000000  0.5346170000000 1.0
C      1  0.5538110000000  0.4916450000000  0.4853550000000 1.0
C      1  0.5526310000000  0.4289780000000  0.4447310000000 1.0
C      1  0.5052630000000  0.5312810000000  0.5003030000000 1.0
C      1  0.4813640000000  0.6133750000000  0.4841770000000 1.0
C      1  0.4928110000000  0.4491630000000  0.5946320000000 1.0
C      1  0.5066440000000  0.5069010000000  0.5530360000000 1.0
C      1  0.4777120000000  0.4596230000000  0.4253150000000 1.0
C      1  0.5778000000000  0.5475040000000  0.5487720000000 1.0
C      1  0.4610750000000  0.4304870000000  0.5746330000000 1.0
C      1  0.5216390000000  0.4530500000000  0.4977120000000 1.0
C      1  0.4204200000000  0.5465260000000  0.4628600000000 1.0
C      1  0.5462650000000  0.5486060000000  0.4225230000000 1.0
C      1  0.4509460000000  0.5718330000000  0.5105040000000 1.0
C      1  0.5037940000000  0.5945530000000  0.5403930000000 1.0
C      1  0.4502460000000  0.4479170000000  0.4583370000000 1.0
C      1  0.5055120000000  0.5828020000000  0.4725440000000 1.0
C      1  0.4351820000000  0.4525320000000  0.4889060000000 1.0
C      1  0.5682710000000  0.5389490000000  0.4668270000000 1.0
C      1  0.4550430000000  0.5695510000000  0.5392700000000 1.0
C      1  0.5199370000000  0.5220840000000  0.4559690000000 1.0
C      1  0.5059200000000  0.4871730000000  0.5316010000000 1.0
C      1  0.4999580000000  0.5629160000000  0.4918960000000 1.0
C      1  0.4212940000000  0.4626430000000  0.5422880000000 1.0
C      1  0.5719260000000  0.4543200000000  0.5492510000000 1.0
C      1  0.5954930000000  0.5255860000000  0.5504810000000 1.0
C      1  0.4108090000000  0.4950940000000  0.5060110000000 1.0
C      1  0.5782800000000  0.5274060000000  0.4983200000000 1.0
C      1  0.5426940000000  0.5523350000000  0.5222590000000 1.0
C      1  0.4969280000000  0.4873800000000  0.5715400000000 1.0
C      1  0.5480510000000  0.5249520000000  0.5905500000000 1.0
C      1  0.5681600000000  0.4653130000000  0.4953790000000 1.0
C      1  0.5916980000000  0.4782540000000  0.5103330000000 1.0
C      1  0.4852120000000  0.4484650000000  0.5407340000000 1.0
C      1  0.4839010000000  0.3957740000000  0.5176200000000 1.0
C      1  0.5537600000000  0.4481600000000  0.5736330000000 1.0
C      1  0.5506290000000  0.5010780000000  0.5349800000000 1.0
C      1  0.5180090000000  0.4692650000000  0.4545570000000 1.0
C      1  0.4177010000000  0.5438210000000  0.4917440000000 1.0
C      1  0.4157080000000  0.5066250000000  0.5541240000000 1.0
C      1  0.4682440000000  0.5226350000000  0.5826440000000 1.0
C      1  0.5696130000000  0.4507830000000  0.4509310000000 1.0
C      1  0.5271360000000  0.4558260000000  0.4313340000000 1.0
C      1  0.4467710000000  0.4206870000000  0.5502370000000 1.0
C      1  0.4665110000000  0.4582890000000  0.5853240000000 1.0
C      1  0.4559630000000  0.5145030000000  0.5062140000000 1.0
C      1  0.5571450000000  0.5465860000000  0.5704900000000 1.0
C      1  0.4577130000000  0.4970950000000  0.5869690000000 1.0
C      1  0.5609870000000  0.5278890000000  0.4361380000000 1.0
C      1  0.4192980000000  0.5029510000000  0.4368990000000 1.0
C      1  0.5563800000000  0.4176710000000  0.4938780000000 1.0
C      1  0.4772510000000  0.5308510000000  0.5129590000000 1.0
C      1  0.5266260000000  0.4977240000000  0.4142110000000 1.0
C      1  0.5723380000000  0.4402870000000  0.4780650000000 1.0
C      1  0.5079150000000  0.5045830000000  0.4896900000000 1.0
C      1  0.4282960000000  0.5213760000000  0.5110470000000 1.0
C      1  0.5664920000000  0.4990280000000  0.5583120000000 1.0
C      1  0.5381170000000  0.5388670000000  0.4708820000000 1.0
C      1  0.4568220000000  0.4969620000000  0.4019250000000 1.0
C      1  0.5180060000000  0.6134600000000  0.5233030000000 1.0
C      1  0.5260640000000  0.4072140000000  0.4962230000000 1.0
C      1  0.4950470000000  0.5313330000000  0.5938540000000 1.0
C      1  0.5047220000000  0.5362870000000  0.5527610000000 1.0
C      1  0.4151880000000  0.4768640000000  0.4843440000000 1.0
C      1  0.5413290000000  0.4710540000000  0.5895780000000 1.0
C      1  0.5545330000000  0.4965190000000  0.5861020000000 1.0
C      1  0.4321480000000  0.4642070000000  0.4132340000000 1.0
C      1  0.4711970000000  0.4267240000000  0.4495220000000 1.0
C      1  0.4069450000000  0.4867740000000  0.5333430000000 1.0
C      1  0.5935360000000  0.5024980000000  0.4940650000000 1.0
C      1  0.4441470000000  0.4042340000000  0.5051520000000 1.0
C      1  0.4536090000000  0.5391480000000  0.5566930000000 1.0
C      1  0.4257080000000  0.5717210000000  0.4962550000000 1.0
C      1  0.5472160000000  0.4474110000000  0.5082200000000 1.0
C      1  0.4279800000000  0.4283460000000  0.5060360000000 1.0
C      1  0.4760980000000  0.5462350000000  0.4611040000000 1.0
C      1  0.4665340000000  0.4903800000000  0.4959410000000 1.0
C      1  0.5195070000000  0.5429110000000  0.4098590000000 1.0
C      1  0.5333960000000  0.5620670000000  0.5685070000000 1.0
C      1  0.4983890000000  0.6160140000000  0.5040490000000 1.0
C      1  0.5435470000000  0.5969200000000  0.5253010000000 1.0
C      1  0.4739940000000  0.4961920000000  0.4635410000000 1.0
C      1  0.5282030000000  0.4145280000000  0.4449130000000 1.0
C      1  0.4518300000000  0.5845540000000  0.4516340000000 1.0
C      1  0.5328320000000  0.5859070000000  0.4611590000000 1.0
C      1  0.4942960000000  0.4880800000000  0.5061930000000 1.0
C      1  0.4305230000000  0.5273930000000  0.5426440000000 1.0
C      1  0.5629720000000  0.5852780000000  0.5078120000000 1.0
C      1  0.5049810000000  0.5176310000000  0.4104810000000 1.0
C      1  0.5091930000000  0.4501190000000  0.4728540000000 1.0
C      1  0.4743170000000  0.5180590000000  0.4120820000000 1.0
C      1  0.4765000000000  0.4497210000000  0.5148110000000 1.0
END
