TITL C-884130-5973-262 12.7537590924319 125000 -11919.5344060014 0 0 81 (C1) n - 1
REM
REM in /home/nfs/bkarasulu/CARBON/AIRSS/Generating-Clusters/ReaxFF-fromJPCA2015/Units_Real/with-SteepDescent/Only-C1/SD-CG/Try1-3A/FIRE-CG
REM
REM
REM
REM
REM
REM ./C.cell (11c1c37f851c82e70ff6c80c92926a4b)
REM
REM compiler GCC version 9.2.1 20190827 (Red Hat 9.2.1-1)
REM options -cpp -mtune=generic -march=x86-64 -g -O0 -fpre-include=/usr/include/finclude/math-vector-fortran.h
REM seed -758557270 -810152071 -167332228 586440859 -1007260915 1464950841 -1378945277 1590226595 -100643391 1119543668 1455450183 1283554204 -1812433073 1657569531 -1303405534 -358617547 -1577388395 -462294155 -677737080 1160309272 149789768 -1923491891 -5093232 -51759109 498218842 -1263554046 -315725095 -1363576916 -1884925147 -1601856102 -205446646 -1073718544 -1066038421
REM
CELL 1.54180   50.00000   50.00000   50.00000   90.00000   90.00000   90.00000
LATT -1
SFAC C  
C      1  0.4232040000000  0.4783760000000  0.4656280000000 1.0
C      1  0.4648740000000  0.4620420000000  0.5650760000000 1.0
C      1  0.4732350000000  0.5339230000000  0.5714580000000 1.0
C      1  0.5569300000000  0.5306100000000  0.4952630000000 1.0
C      1  0.4471800000000  0.4394070000000  0.5233150000000 1.0
C      1  0.4717200000000  0.5779310000000  0.4911550000000 1.0
C      1  0.5738600000000  0.5489580000000  0.5425360000000 1.0
C      1  0.5537180000000  0.4440830000000  0.4639920000000 1.0
C      1  0.4884530000000  0.4904110000000  0.4857740000000 1.0
C      1  0.5300080000000  0.5641120000000  0.5211900000000 1.0
C      1  0.4992060000000  0.5586610000000  0.4540090000000 1.0
C      1  0.4710010000000  0.4816710000000  0.5276690000000 1.0
C      1  0.5143000000000  0.4564240000000  0.5525810000000 1.0
C      1  0.5084820000000  0.4662660000000  0.4511470000000 1.0
C      1  0.5175090000000  0.5690000000000  0.5467960000000 1.0
C      1  0.4751320000000  0.4321670000000  0.5227700000000 1.0
C      1  0.5569700000000  0.4614990000000  0.5164010000000 1.0
C      1  0.4531840000000  0.5420140000000  0.5191610000000 1.0
C      1  0.4470870000000  0.5527170000000  0.4698600000000 1.0
C      1  0.4421440000000  0.4539210000000  0.5486450000000 1.0
C      1  0.4848640000000  0.5211900000000  0.4829800000000 1.0
C      1  0.5147570000000  0.4800740000000  0.5651040000000 1.0
C      1  0.4844130000000  0.4542140000000  0.5432210000000 1.0
C      1  0.4615860000000  0.5279890000000  0.4621790000000 1.0
C      1  0.5174850000000  0.5433310000000  0.5602590000000 1.0
C      1  0.5152220000000  0.4276100000000  0.4959370000000 1.0
C      1  0.4868040000000  0.4227610000000  0.4981910000000 1.0
C      1  0.4893240000000  0.5775890000000  0.5445860000000 1.0
C      1  0.4417760000000  0.4807540000000  0.5368770000000 1.0
C      1  0.4855870000000  0.5079040000000  0.5816740000000 1.0
C      1  0.5389140000000  0.5314610000000  0.4727870000000 1.0
C      1  0.5817220000000  0.5058610000000  0.5283930000000 1.0
C      1  0.4407230000000  0.5038790000000  0.5540440000000 1.0
C      1  0.5371310000000  0.4228190000000  0.4756180000000 1.0
C      1  0.5112060000000  0.5670600000000  0.5002790000000 1.0
C      1  0.4619090000000  0.4450190000000  0.4584390000000 1.0
C      1  0.4775370000000  0.4239260000000  0.4678110000000 1.0
C      1  0.5164410000000  0.4537850000000  0.5104330000000 1.0
C      1  0.4219010000000  0.5191520000000  0.5043730000000 1.0
C      1  0.5206460000000  0.5058130000000  0.4643550000000 1.0
C      1  0.5703470000000  0.4820830000000  0.5273580000000 1.0
C      1  0.5352070000000  0.4499930000000  0.5323320000000 1.0
C      1  0.4980360000000  0.4270810000000  0.4474890000000 1.0
C      1  0.5483170000000  0.5399930000000  0.5209240000000 1.0
C      1  0.4634760000000  0.4918400000000  0.5707510000000 1.0
C      1  0.4774060000000  0.5285970000000  0.5102330000000 1.0
C      1  0.5287730000000  0.4791460000000  0.4674100000000 1.0
C      1  0.4734070000000  0.5642170000000  0.5656980000000 1.0
C      1  0.4460450000000  0.4664750000000  0.4502550000000 1.0
C      1  0.5383150000000  0.5330570000000  0.4248180000000 1.0
C      1  0.4158340000000  0.4956390000000  0.4876780000000 1.0
C      1  0.4550230000000  0.5144140000000  0.4366850000000 1.0
C      1  0.4347450000000  0.5221100000000  0.5317360000000 1.0
C      1  0.5460700000000  0.4545270000000  0.4376320000000 1.0
C      1  0.5098100000000  0.5457660000000  0.4782990000000 1.0
C      1  0.4706600000000  0.5697850000000  0.4644520000000 1.0
C      1  0.5672200000000  0.5004670000000  0.4497530000000 1.0
C      1  0.5143880000000  0.5512730000000  0.4309260000000 1.0
C      1  0.5547680000000  0.4684690000000  0.4831770000000 1.0
C      1  0.5520930000000  0.4828330000000  0.4314710000000 1.0
C      1  0.4621960000000  0.4854680000000  0.4332660000000 1.0
C      1  0.4881050000000  0.5801960000000  0.5133370000000 1.0
C      1  0.5182630000000  0.4428160000000  0.4348970000000 1.0
C      1  0.5154820000000  0.5031220000000  0.5220020000000 1.0
C      1  0.4445190000000  0.4565730000000  0.4997280000000 1.0
C      1  0.4910490000000  0.4827920000000  0.4334400000000 1.0
C      1  0.5151900000000  0.5024720000000  0.5769650000000 1.0
C      1  0.5713470000000  0.5228230000000  0.5516730000000 1.0
C      1  0.5732750000000  0.4910520000000  0.4767690000000 1.0
C      1  0.5558040000000  0.5275690000000  0.4475320000000 1.0
C      1  0.4892990000000  0.5115050000000  0.5299170000000 1.0
C      1  0.5366600000000  0.5209280000000  0.5608160000000 1.0
C      1  0.4926790000000  0.5323930000000  0.5499120000000 1.0
C      1  0.5339990000000  0.5036570000000  0.4203960000000 1.0
C      1  0.4666540000000  0.4761320000000  0.4994540000000 1.0
C      1  0.5772150000000  0.5108290000000  0.4981470000000 1.0
C      1  0.4350320000000  0.5442650000000  0.4958570000000 1.0
C      1  0.5363360000000  0.5164300000000  0.5333340000000 1.0
C      1  0.5091670000000  0.5054540000000  0.4365020000000 1.0
C      1  0.5094270000000  0.4816330000000  0.5042410000000 1.0
C      1  0.4202140000000  0.4677400000000  0.4907720000000 1.0
END
