TITL C-883739-1268-87 -4.75953552757119 125000 -12678.0515189136 0 0 85 (C1) n - 1
REM
REM in /home/nfs/bkarasulu/CARBON/AIRSS/Generating-Clusters/ReaxFF-fromJPCA2015/Units_Real/with-SteepDescent/Only-C1/SD-CG/Try1-3A/FIRE-CG
REM
REM
REM
REM
REM
REM ./C.cell (11c1c37f851c82e70ff6c80c92926a4b)
REM
REM compiler GCC version 9.2.1 20190827 (Red Hat 9.2.1-1)
REM options -cpp -mtune=generic -march=x86-64 -g -O0 -fpre-include=/usr/include/finclude/math-vector-fortran.h
REM seed -1345553763 654290724 2138800389 800770577 -192013024 1022807209 -51746873 -1782138541 -2087862638 -1546093763 1094999499 2023876750 -346357672 -1426694154 1291517085 1592065315 2042878014 -822342554 -2124768402 1543858814 -31523407 -2033673146 -181094835 -608327275 -1330522399 497662818 -241789288 781985710 1394861809 355083664 -970572846 -1476769859 -996863206
REM
CELL 1.54180   50.00000   50.00000   50.00000   90.00000   90.00000   90.00000
LATT -1
SFAC C  
C      1  0.4492880000000  0.5014520000000  0.4432980000000 1.0
C      1  0.4893820000000  0.5171830000000  0.5139610000000 1.0
C      1  0.5355880000000  0.4537080000000  0.4179830000000 1.0
C      1  0.5175890000000  0.4823210000000  0.5241240000000 1.0
C      1  0.4623730000000  0.4756300000000  0.5291810000000 1.0
C      1  0.4960640000000  0.5812410000000  0.5261330000000 1.0
C      1  0.4795680000000  0.5249160000000  0.5813250000000 1.0
C      1  0.5356260000000  0.5840250000000  0.4922770000000 1.0
C      1  0.4980980000000  0.4861720000000  0.5753950000000 1.0
C      1  0.5556520000000  0.5225460000000  0.4541410000000 1.0
C      1  0.5400890000000  0.5736430000000  0.4650730000000 1.0
C      1  0.4806740000000  0.4540610000000  0.5373380000000 1.0
C      1  0.5298540000000  0.4659960000000  0.4585890000000 1.0
C      1  0.5713400000000  0.4679760000000  0.4587590000000 1.0
C      1  0.5360630000000  0.4397380000000  0.4713150000000 1.0
C      1  0.5414110000000  0.5731400000000  0.5401060000000 1.0
C      1  0.4938850000000  0.5272700000000  0.4217870000000 1.0
C      1  0.5766420000000  0.4754040000000  0.5096520000000 1.0
C      1  0.4820050000000  0.4345770000000  0.4661330000000 1.0
C      1  0.5234180000000  0.3987610000000  0.5222430000000 1.0
C      1  0.5702850000000  0.4859070000000  0.4818300000000 1.0
C      1  0.5593240000000  0.5520410000000  0.4565310000000 1.0
C      1  0.4818850000000  0.5917190000000  0.4861680000000 1.0
C      1  0.5143920000000  0.5747940000000  0.5491660000000 1.0
C      1  0.4402300000000  0.4785660000000  0.5630180000000 1.0
C      1  0.4312570000000  0.4668020000000  0.5374660000000 1.0
C      1  0.5429940000000  0.5076670000000  0.4316110000000 1.0
C      1  0.4110970000000  0.4880280000000  0.5216610000000 1.0
C      1  0.5170610000000  0.5559930000000  0.4596580000000 1.0
C      1  0.4694470000000  0.5681550000000  0.5233870000000 1.0
C      1  0.5490610000000  0.5063320000000  0.4792760000000 1.0
C      1  0.4723900000000  0.5066230000000  0.4263650000000 1.0
C      1  0.5241730000000  0.5263340000000  0.5548690000000 1.0
C      1  0.4887280000000  0.5331420000000  0.4900890000000 1.0
C      1  0.4700980000000  0.5599630000000  0.4479820000000 1.0
C      1  0.4665470000000  0.4490050000000  0.4452800000000 1.0
C      1  0.5554700000000  0.5425420000000  0.5182160000000 1.0
C      1  0.5160630000000  0.4229290000000  0.5174650000000 1.0
C      1  0.5213940000000  0.4616380000000  0.5448480000000 1.0
C      1  0.5234160000000  0.5002910000000  0.5713550000000 1.0
C      1  0.5492490000000  0.4884140000000  0.5643640000000 1.0
C      1  0.5500330000000  0.4622270000000  0.5496930000000 1.0
C      1  0.4462770000000  0.4716890000000  0.4481060000000 1.0
C      1  0.5671420000000  0.4399780000000  0.4615930000000 1.0
C      1  0.5096110000000  0.4305850000000  0.4569140000000 1.0
C      1  0.4649770000000  0.4915610000000  0.4812040000000 1.0
C      1  0.5202960000000  0.4697920000000  0.5010110000000 1.0
C      1  0.4902260000000  0.4891800000000  0.4666580000000 1.0
C      1  0.5116320000000  0.4409230000000  0.4287200000000 1.0
C      1  0.4248840000000  0.5199580000000  0.4904500000000 1.0
C      1  0.4668800000000  0.5037550000000  0.5268540000000 1.0
C      1  0.4248580000000  0.4513320000000  0.4922220000000 1.0
C      1  0.4477230000000  0.5169800000000  0.4702140000000 1.0
C      1  0.4300500000000  0.4423920000000  0.5198850000000 1.0
C      1  0.5171530000000  0.5121040000000  0.5241300000000 1.0
C      1  0.5527410000000  0.5346820000000  0.5463510000000 1.0
C      1  0.4457370000000  0.5227440000000  0.5393070000000 1.0
C      1  0.5147340000000  0.5398010000000  0.4835930000000 1.0
C      1  0.5072340000000  0.5503760000000  0.5637680000000 1.0
C      1  0.5764070000000  0.4928140000000  0.5318040000000 1.0
C      1  0.3996480000000  0.4724810000000  0.5018290000000 1.0
C      1  0.5084200000000  0.5908540000000  0.5015500000000 1.0
C      1  0.5364200000000  0.5255890000000  0.5013740000000 1.0
C      1  0.4596470000000  0.5491960000000  0.5425410000000 1.0
C      1  0.4642270000000  0.5465190000000  0.4753380000000 1.0
C      1  0.5675890000000  0.5093840000000  0.5527210000000 1.0
C      1  0.4715970000000  0.4308230000000  0.4937540000000 1.0
C      1  0.5187420000000  0.5173520000000  0.4267570000000 1.0
C      1  0.5522480000000  0.5723430000000  0.5141250000000 1.0
C      1  0.4625600000000  0.5709960000000  0.4946490000000 1.0
C      1  0.4704640000000  0.4985830000000  0.5833780000000 1.0
C      1  0.4975740000000  0.4606970000000  0.5612600000000 1.0
C      1  0.5582710000000  0.4560140000000  0.5221970000000 1.0
C      1  0.4439760000000  0.4313580000000  0.5000720000000 1.0
C      1  0.4893620000000  0.4853220000000  0.4375420000000 1.0
C      1  0.4440190000000  0.4715310000000  0.4766760000000 1.0
C      1  0.5191730000000  0.4854550000000  0.4774510000000 1.0
C      1  0.4961330000000  0.5535120000000  0.4370480000000 1.0
C      1  0.4866240000000  0.4575930000000  0.4268550000000 1.0
C      1  0.4872340000000  0.4334440000000  0.5178680000000 1.0
C      1  0.5477030000000  0.4756870000000  0.4362200000000 1.0
C      1  0.4777020000000  0.5487910000000  0.5664580000000 1.0
C      1  0.4451680000000  0.5053650000000  0.5678830000000 1.0
C      1  0.4220280000000  0.5157020000000  0.5186310000000 1.0
C      1  0.5357050000000  0.4458900000000  0.5039310000000 1.0
END
