TITL C-883740-3686-422 13.3400107376882 125000 -15692.2135177827 0 0 106 (C1) n - 1
REM
REM in /home/nfs/bkarasulu/CARBON/AIRSS/Generating-Clusters/ReaxFF-fromJPCA2015/Units_Real/with-SteepDescent/Only-C1/SD-CG/Try1-3A/FIRE-CG
REM
REM
REM
REM
REM
REM ./C.cell (11c1c37f851c82e70ff6c80c92926a4b)
REM
REM compiler GCC version 9.2.1 20190827 (Red Hat 9.2.1-1)
REM options -cpp -mtune=generic -march=x86-64 -g -O0 -fpre-include=/usr/include/finclude/math-vector-fortran.h
REM seed 1146909822 -694832249 -1858103294 1398724645 -1595960827 -924807735 1834114128 -763548745 -345666009 -256721368 466253580 1407850285 -1082560830 -499399179 388923903 -972369362 -2123684220 147298678 -1431667729 -1239520461 -973160300 1541737821 -1241923726 -1107597837 87701382 657449607 1035738599 -2022127471 170287072 -587648750 -11745226 -165965529 1052253143
REM
CELL 1.54180   50.00000   50.00000   50.00000   90.00000   90.00000   90.00000
LATT -1
SFAC C  
C      1  0.4376990000000  0.4603370000000  0.4558270000000 1.0
C      1  0.5075000000000  0.5824150000000  0.4756630000000 1.0
C      1  0.5138480000000  0.4126400000000  0.4945490000000 1.0
C      1  0.5341150000000  0.4411480000000  0.4339500000000 1.0
C      1  0.5121010000000  0.4236610000000  0.4417860000000 1.0
C      1  0.4833380000000  0.5218330000000  0.5104450000000 1.0
C      1  0.5735620000000  0.4603750000000  0.4984230000000 1.0
C      1  0.5751210000000  0.5590780000000  0.4764280000000 1.0
C      1  0.5341370000000  0.4828780000000  0.5704040000000 1.0
C      1  0.4919700000000  0.5518910000000  0.5560320000000 1.0
C      1  0.5335860000000  0.5131030000000  0.4743680000000 1.0
C      1  0.5266870000000  0.5527160000000  0.4389630000000 1.0
C      1  0.5422340000000  0.5192460000000  0.4199330000000 1.0
C      1  0.4580130000000  0.4358340000000  0.5025870000000 1.0
C      1  0.5426020000000  0.5283940000000  0.5494140000000 1.0
C      1  0.4545370000000  0.5350400000000  0.5649570000000 1.0
C      1  0.5326410000000  0.4562550000000  0.4803550000000 1.0
C      1  0.4456350000000  0.4973070000000  0.5389490000000 1.0
C      1  0.5863290000000  0.4820800000000  0.5136410000000 1.0
C      1  0.5220070000000  0.5368510000000  0.4867580000000 1.0
C      1  0.4322400000000  0.4496810000000  0.5048000000000 1.0
C      1  0.5765770000000  0.4593310000000  0.4655740000000 1.0
C      1  0.4332850000000  0.5118470000000  0.4466150000000 1.0
C      1  0.4868120000000  0.5031530000000  0.4164000000000 1.0
C      1  0.5060250000000  0.4691840000000  0.5141150000000 1.0
C      1  0.5556970000000  0.4946150000000  0.4179670000000 1.0
C      1  0.4796760000000  0.4647830000000  0.5250420000000 1.0
C      1  0.5875050000000  0.5107120000000  0.4703170000000 1.0
C      1  0.4582160000000  0.4827190000000  0.5176910000000 1.0
C      1  0.4773100000000  0.5277570000000  0.4289470000000 1.0
C      1  0.5161680000000  0.5060730000000  0.4128570000000 1.0
C      1  0.4321180000000  0.5373240000000  0.4934330000000 1.0
C      1  0.5840170000000  0.5273120000000  0.5176830000000 1.0
C      1  0.4636220000000  0.5475890000000  0.4705710000000 1.0
C      1  0.4729270000000  0.4239070000000  0.5242600000000 1.0
C      1  0.5702940000000  0.5170810000000  0.5411760000000 1.0
C      1  0.4790370000000  0.5493770000000  0.5317710000000 1.0
C      1  0.5008800000000  0.4174200000000  0.5211520000000 1.0
C      1  0.5070170000000  0.5689230000000  0.4507970000000 1.0
C      1  0.4638080000000  0.5037820000000  0.4982600000000 1.0
C      1  0.5600410000000  0.5843880000000  0.4773460000000 1.0
C      1  0.5505290000000  0.4555160000000  0.4535250000000 1.0
C      1  0.5017640000000  0.4126410000000  0.4672680000000 1.0
C      1  0.5403740000000  0.5476750000000  0.5045210000000 1.0
C      1  0.4068760000000  0.4834380000000  0.5328210000000 1.0
C      1  0.4870150000000  0.5794130000000  0.4964610000000 1.0
C      1  0.5051560000000  0.4672370000000  0.4845300000000 1.0
C      1  0.5696980000000  0.5476540000000  0.5026490000000 1.0
C      1  0.4218050000000  0.4625050000000  0.4804800000000 1.0
C      1  0.5503210000000  0.4718710000000  0.5488470000000 1.0
C      1  0.4066920000000  0.5337460000000  0.4798670000000 1.0
C      1  0.4333880000000  0.4642130000000  0.5792630000000 1.0
C      1  0.4093360000000  0.5102910000000  0.4631890000000 1.0
C      1  0.5023590000000  0.5005900000000  0.5274650000000 1.0
C      1  0.4096430000000  0.5280500000000  0.5082300000000 1.0
C      1  0.4541190000000  0.5335850000000  0.4465720000000 1.0
C      1  0.4482590000000  0.4873750000000  0.4502860000000 1.0
C      1  0.5110520000000  0.4660220000000  0.5791490000000 1.0
C      1  0.4027880000000  0.4990060000000  0.5085960000000 1.0
C      1  0.5193420000000  0.4865460000000  0.4357500000000 1.0
C      1  0.4614930000000  0.4438090000000  0.4543630000000 1.0
C      1  0.5125310000000  0.4935200000000  0.4649190000000 1.0
C      1  0.4440140000000  0.4916360000000  0.5856990000000 1.0
C      1  0.5310890000000  0.5110280000000  0.5258720000000 1.0
C      1  0.4405360000000  0.4515020000000  0.5535620000000 1.0
C      1  0.5333760000000  0.5940020000000  0.4798650000000 1.0
C      1  0.4766010000000  0.4476120000000  0.4803040000000 1.0
C      1  0.4233640000000  0.4587000000000  0.5311760000000 1.0
C      1  0.5414430000000  0.5718820000000  0.5209070000000 1.0
C      1  0.4716280000000  0.4449740000000  0.5465300000000 1.0
C      1  0.5108260000000  0.5704360000000  0.5476770000000 1.0
C      1  0.4736480000000  0.4202670000000  0.4666710000000 1.0
C      1  0.5147140000000  0.4328230000000  0.5423960000000 1.0
C      1  0.5724940000000  0.4880200000000  0.5385360000000 1.0
C      1  0.4211390000000  0.5054750000000  0.5482300000000 1.0
C      1  0.5924310000000  0.5060830000000  0.4990340000000 1.0
C      1  0.4991700000000  0.5434900000000  0.4419290000000 1.0
C      1  0.5746520000000  0.5348770000000  0.4600120000000 1.0
C      1  0.4938280000000  0.4743550000000  0.4284100000000 1.0
C      1  0.4515950000000  0.5491190000000  0.5396990000000 1.0
C      1  0.5469520000000  0.5321270000000  0.4475220000000 1.0
C      1  0.5283880000000  0.5118010000000  0.5727490000000 1.0
C      1  0.4602260000000  0.5662340000000  0.4924090000000 1.0
C      1  0.5549220000000  0.4390250000000  0.5131710000000 1.0
C      1  0.4931630000000  0.5750900000000  0.5238970000000 1.0
C      1  0.4406180000000  0.5550510000000  0.5134250000000 1.0
C      1  0.5745940000000  0.4802120000000  0.4311310000000 1.0
C      1  0.4670730000000  0.4977500000000  0.4706170000000 1.0
C      1  0.4856870000000  0.4958860000000  0.5517760000000 1.0
C      1  0.4726930000000  0.4890130000000  0.5754150000000 1.0
C      1  0.5489440000000  0.4745140000000  0.4951250000000 1.0
C      1  0.5060560000000  0.4477520000000  0.4251290000000 1.0
C      1  0.5882340000000  0.4841930000000  0.4557300000000 1.0
C      1  0.5371230000000  0.5592820000000  0.5462390000000 1.0
C      1  0.5034860000000  0.5174830000000  0.5849280000000 1.0
C      1  0.4913900000000  0.5122800000000  0.4652200000000 1.0
C      1  0.4992280000000  0.4448770000000  0.5630600000000 1.0
C      1  0.5486050000000  0.5926910000000  0.5022930000000 1.0
C      1  0.5349150000000  0.4529310000000  0.5309200000000 1.0
C      1  0.4070150000000  0.4876710000000  0.4822500000000 1.0
C      1  0.4819870000000  0.5358070000000  0.5755340000000 1.0
C      1  0.4977710000000  0.4891590000000  0.5925840000000 1.0
C      1  0.4337840000000  0.5162250000000  0.5738630000000 1.0
C      1  0.4931130000000  0.5323070000000  0.4850180000000 1.0
C      1  0.5436370000000  0.5021540000000  0.5011820000000 1.0
C      1  0.5383780000000  0.4274620000000  0.4933470000000 1.0
END
