TITL C-883736-9678-89 73.4035035390541 125000 -19907.8453122956 0 0 135 (C1) n - 1
REM
REM in /home/nfs/bkarasulu/CARBON/AIRSS/Generating-Clusters/ReaxFF-fromJPCA2015/Units_Real/with-SteepDescent/Only-C1/SD-CG/Try1-3A/FIRE-CG
REM
REM
REM
REM
REM
REM ./C.cell (11c1c37f851c82e70ff6c80c92926a4b)
REM
REM compiler GCC version 9.2.1 20190827 (Red Hat 9.2.1-1)
REM options -cpp -mtune=generic -march=x86-64 -g -O0 -fpre-include=/usr/include/finclude/math-vector-fortran.h
REM seed -1346064432 265108932 -1568004214 72788886 -299454704 -1082040461 769330359 -477364837 -818575807 727031899 234269841 1632749572 -2049450921 -1281457067 -380161227 1938867203 -780380540 -333356715 241276713 -988064353 312427760 -503577153 312662061 1525814815 2097781190 1948936159 542088078 -1550278375 -2088006549 522387180 501288729 -455998535 -2014993070
REM
CELL 1.54180   50.00000   50.00000   50.00000   90.00000   90.00000   90.00000
LATT -1
SFAC C  
C      1  0.4550950000000  0.5694020000000  0.5413410000000 1.0
C      1  0.5144780000000  0.4489380000000  0.5152960000000 1.0
C      1  0.4226360000000  0.5735080000000  0.4972840000000 1.0
C      1  0.5958550000000  0.4305080000000  0.4954450000000 1.0
C      1  0.5428710000000  0.4177900000000  0.5542680000000 1.0
C      1  0.5289170000000  0.4591240000000  0.4775310000000 1.0
C      1  0.5047910000000  0.5901880000000  0.4717780000000 1.0
C      1  0.4971670000000  0.4876800000000  0.6036310000000 1.0
C      1  0.5671700000000  0.5596600000000  0.5336670000000 1.0
C      1  0.5019610000000  0.4882320000000  0.5443830000000 1.0
C      1  0.4720360000000  0.5298080000000  0.4403640000000 1.0
C      1  0.4927870000000  0.5621230000000  0.4280140000000 1.0
C      1  0.4295180000000  0.5159980000000  0.4171780000000 1.0
C      1  0.5567940000000  0.4838700000000  0.5841370000000 1.0
C      1  0.4613790000000  0.5915360000000  0.4964850000000 1.0
C      1  0.5674600000000  0.4366800000000  0.4898800000000 1.0
C      1  0.4327010000000  0.4242810000000  0.5051330000000 1.0
C      1  0.4774210000000  0.4572620000000  0.4252780000000 1.0
C      1  0.5331450000000  0.4332990000000  0.5773570000000 1.0
C      1  0.5034910000000  0.4383290000000  0.5390500000000 1.0
C      1  0.5410730000000  0.4585490000000  0.5911980000000 1.0
C      1  0.4185280000000  0.4907720000000  0.5481000000000 1.0
C      1  0.4589120000000  0.5364260000000  0.4854790000000 1.0
C      1  0.4919030000000  0.4547620000000  0.5599920000000 1.0
C      1  0.5219230000000  0.4753320000000  0.4314030000000 1.0
C      1  0.5766460000000  0.5451610000000  0.4423140000000 1.0
C      1  0.5098740000000  0.5251820000000  0.5284940000000 1.0
C      1  0.5009340000000  0.5824810000000  0.5249280000000 1.0
C      1  0.4405230000000  0.5852310000000  0.4761150000000 1.0
C      1  0.5503210000000  0.4998640000000  0.5043840000000 1.0
C      1  0.4601760000000  0.4160850000000  0.5134070000000 1.0
C      1  0.4641140000000  0.5487470000000  0.4596270000000 1.0
C      1  0.5373970000000  0.5013740000000  0.5942950000000 1.0
C      1  0.5932180000000  0.4749400000000  0.5265530000000 1.0
C      1  0.5186300000000  0.5083070000000  0.4100300000000 1.0
C      1  0.4252370000000  0.4707380000000  0.4769820000000 1.0
C      1  0.5853820000000  0.5161270000000  0.4446610000000 1.0
C      1  0.4698570000000  0.4153150000000  0.5418570000000 1.0
C      1  0.4836430000000  0.5495660000000  0.5710260000000 1.0
C      1  0.4556680000000  0.4650650000000  0.4871650000000 1.0
C      1  0.5013460000000  0.5123850000000  0.4640870000000 1.0
C      1  0.4197420000000  0.5182150000000  0.5404370000000 1.0
C      1  0.4689350000000  0.4368760000000  0.5629030000000 1.0
C      1  0.4370640000000  0.4830880000000  0.5685800000000 1.0
C      1  0.5316350000000  0.5441280000000  0.5720130000000 1.0
C      1  0.5592420000000  0.4359740000000  0.5376350000000 1.0
C      1  0.5855060000000  0.4499620000000  0.5404600000000 1.0
C      1  0.4259320000000  0.4227620000000  0.4765040000000 1.0
C      1  0.5470760000000  0.5755520000000  0.5465510000000 1.0
C      1  0.6038200000000  0.5070190000000  0.4955880000000 1.0
C      1  0.4048850000000  0.4808080000000  0.5003030000000 1.0
C      1  0.4259280000000  0.5179570000000  0.5148550000000 1.0
C      1  0.4303750000000  0.5557650000000  0.4313640000000 1.0
C      1  0.5217640000000  0.5664510000000  0.5573490000000 1.0
C      1  0.5377200000000  0.4847510000000  0.4125240000000 1.0
C      1  0.5435880000000  0.4377750000000  0.5120860000000 1.0
C      1  0.4907630000000  0.5891570000000  0.4982880000000 1.0
C      1  0.6064430000000  0.4784530000000  0.4999240000000 1.0
C      1  0.5154820000000  0.5487920000000  0.4424410000000 1.0
C      1  0.4663920000000  0.4394440000000  0.4467060000000 1.0
C      1  0.5758400000000  0.5598030000000  0.4674440000000 1.0
C      1  0.4468050000000  0.4996880000000  0.5075680000000 1.0
C      1  0.4073500000000  0.4706150000000  0.5264740000000 1.0
C      1  0.5452210000000  0.5868030000000  0.5010690000000 1.0
C      1  0.5248340000000  0.3982860000000  0.5406260000000 1.0
C      1  0.5764520000000  0.5404900000000  0.4869460000000 1.0
C      1  0.4757130000000  0.5410170000000  0.5082330000000 1.0
C      1  0.5842430000000  0.5452460000000  0.5183520000000 1.0
C      1  0.5239040000000  0.4206110000000  0.4646140000000 1.0
C      1  0.4885530000000  0.5839150000000  0.4471310000000 1.0
C      1  0.4442700000000  0.5825250000000  0.5182790000000 1.0
C      1  0.4725320000000  0.4444610000000  0.4752440000000 1.0
C      1  0.5650280000000  0.4845080000000  0.4279990000000 1.0
C      1  0.4107460000000  0.5481110000000  0.4937750000000 1.0
C      1  0.5001680000000  0.4887360000000  0.4973350000000 1.0
C      1  0.4757010000000  0.5366320000000  0.4125920000000 1.0
C      1  0.5577600000000  0.5828300000000  0.4766910000000 1.0
C      1  0.5718200000000  0.4970060000000  0.5297620000000 1.0
C      1  0.4195070000000  0.4430220000000  0.5239610000000 1.0
C      1  0.5626600000000  0.4592910000000  0.4431710000000 1.0
C      1  0.4890320000000  0.5071120000000  0.4112120000000 1.0
C      1  0.5133070000000  0.5136740000000  0.6008390000000 1.0
C      1  0.4004250000000  0.5094760000000  0.5047300000000 1.0
C      1  0.5761100000000  0.4555820000000  0.4673440000000 1.0
C      1  0.4878380000000  0.5147710000000  0.5445670000000 1.0
C      1  0.4725960000000  0.4925940000000  0.5930550000000 1.0
C      1  0.6028790000000  0.4569340000000  0.4804640000000 1.0
C      1  0.5041900000000  0.5392770000000  0.5031420000000 1.0
C      1  0.4809880000000  0.4962180000000  0.4774740000000 1.0
C      1  0.5301540000000  0.5329440000000  0.4207220000000 1.0
C      1  0.5948540000000  0.5230500000000  0.4727300000000 1.0
C      1  0.4254410000000  0.4864100000000  0.4520690000000 1.0
C      1  0.5040430000000  0.4631150000000  0.4219620000000 1.0
C      1  0.5209070000000  0.4945820000000  0.4534440000000 1.0
C      1  0.4588050000000  0.5346710000000  0.5735930000000 1.0
C      1  0.5366270000000  0.4447310000000  0.4546940000000 1.0
C      1  0.5357920000000  0.5708290000000  0.4380790000000 1.0
C      1  0.4455470000000  0.5705190000000  0.4515920000000 1.0
C      1  0.4442640000000  0.5404170000000  0.4103850000000 1.0
C      1  0.4411350000000  0.4910650000000  0.4274940000000 1.0
C      1  0.4232440000000  0.5134780000000  0.4611970000000 1.0
C      1  0.5164880000000  0.5345540000000  0.4770500000000 1.0
C      1  0.5303240000000  0.5902280000000  0.5245460000000 1.0
C      1  0.4664400000000  0.5296690000000  0.5333660000000 1.0
C      1  0.5927080000000  0.5172620000000  0.5207800000000 1.0
C      1  0.5447290000000  0.5035120000000  0.4649620000000 1.0
C      1  0.4552040000000  0.5091550000000  0.4826010000000 1.0
C      1  0.5226980000000  0.3989130000000  0.4995440000000 1.0
C      1  0.4781790000000  0.4206250000000  0.4909190000000 1.0
C      1  0.4445190000000  0.4535270000000  0.5338080000000 1.0
C      1  0.5266810000000  0.5040750000000  0.5380430000000 1.0
C      1  0.5635490000000  0.5037170000000  0.4451330000000 1.0
C      1  0.5045100000000  0.4407730000000  0.5826870000000 1.0
C      1  0.4395890000000  0.4291520000000  0.4506670000000 1.0
C      1  0.4693820000000  0.4859800000000  0.4203450000000 1.0
C      1  0.4027340000000  0.5254370000000  0.4786310000000 1.0
C      1  0.5287690000000  0.4819170000000  0.4952180000000 1.0
C      1  0.5037740000000  0.4069950000000  0.4802460000000 1.0
C      1  0.5429970000000  0.5202880000000  0.5554350000000 1.0
C      1  0.5367020000000  0.4057460000000  0.5166150000000 1.0
C      1  0.4184490000000  0.4464710000000  0.4613540000000 1.0
C      1  0.4459050000000  0.4550910000000  0.5629150000000 1.0
C      1  0.5463270000000  0.5234360000000  0.4872810000000 1.0
C      1  0.5628130000000  0.5003230000000  0.5602120000000 1.0
C      1  0.5535880000000  0.5510230000000  0.4254680000000 1.0
C      1  0.4526150000000  0.5053840000000  0.5826920000000 1.0
C      1  0.4603250000000  0.4732610000000  0.5153470000000 1.0
C      1  0.5133150000000  0.4619060000000  0.6007380000000 1.0
C      1  0.5328420000000  0.5884330000000  0.4613390000000 1.0
C      1  0.5065390000000  0.5397340000000  0.5865600000000 1.0
C      1  0.4952720000000  0.4726080000000  0.5192930000000 1.0
C      1  0.4830800000000  0.5716010000000  0.5478180000000 1.0
C      1  0.4978680000000  0.4097750000000  0.5451110000000 1.0
C      1  0.4424980000000  0.5402120000000  0.5496120000000 1.0
C      1  0.4160320000000  0.5306200000000  0.4395040000000 1.0
END
