TITL C-884139-6216-212 15.6177553650298 125000 -28886.9251197056 0 0 190 (C1) n - 1
REM
REM in /home/nfs/bkarasulu/CARBON/AIRSS/Generating-Clusters/ReaxFF-fromJPCA2015/Units_Real/with-SteepDescent/Only-C1/SD-CG/Try1-3A/FIRE-CG
REM
REM
REM
REM
REM
REM ./C.cell (11c1c37f851c82e70ff6c80c92926a4b)
REM
REM compiler GCC version 9.2.1 20190827 (Red Hat 9.2.1-1)
REM options -cpp -mtune=generic -march=x86-64 -g -O0 -fpre-include=/usr/include/finclude/math-vector-fortran.h
REM seed 1821226199 885871436 170434791 -1709410405 -584747958 1345659211 873840027 837405790 -1985812297 -1286375197 -1014423491 -102758239 -1881768920 -1014671015 1769286824 -1890670311 -627703274 -396997875 -918440273 1293318264 1220482951 412166814 884169133 -82752659 1186291248 -1667030303 1644240618 -1797944203 798066880 -1689278754 616995340 2024586596 -1212302706
REM
CELL 1.54180   50.00000   50.00000   50.00000   90.00000   90.00000   90.00000
LATT -1
SFAC C  
C      1  0.4387210000000  0.4136710000000  0.5538040000000 1.0
C      1  0.4130790000000  0.5317300000000  0.5554900000000 1.0
C      1  0.5156720000000  0.5991680000000  0.5347810000000 1.0
C      1  0.3846580000000  0.4976110000000  0.5210690000000 1.0
C      1  0.4055070000000  0.5103510000000  0.5689640000000 1.0
C      1  0.3914540000000  0.4670020000000  0.5500880000000 1.0
C      1  0.5517290000000  0.4610230000000  0.5710970000000 1.0
C      1  0.4642890000000  0.5246500000000  0.5597780000000 1.0
C      1  0.5893480000000  0.4842310000000  0.5417340000000 1.0
C      1  0.5346760000000  0.5553180000000  0.4012550000000 1.0
C      1  0.5017160000000  0.5661480000000  0.5736450000000 1.0
C      1  0.4411590000000  0.5272830000000  0.5385340000000 1.0
C      1  0.5863510000000  0.5441800000000  0.5732260000000 1.0
C      1  0.4584670000000  0.6060710000000  0.4866270000000 1.0
C      1  0.4865340000000  0.6089990000000  0.4977590000000 1.0
C      1  0.4507750000000  0.5604280000000  0.5796040000000 1.0
C      1  0.5594500000000  0.5870210000000  0.5306540000000 1.0
C      1  0.4514540000000  0.5498860000000  0.5247590000000 1.0
C      1  0.4575590000000  0.5561940000000  0.4823550000000 1.0
C      1  0.4736640000000  0.5767880000000  0.5691480000000 1.0
C      1  0.5197530000000  0.4944740000000  0.5633910000000 1.0
C      1  0.5024080000000  0.4928890000000  0.4351180000000 1.0
C      1  0.5005130000000  0.3996490000000  0.4513580000000 1.0
C      1  0.5317580000000  0.4135330000000  0.5560420000000 1.0
C      1  0.4849430000000  0.5635570000000  0.4868550000000 1.0
C      1  0.4181900000000  0.5758760000000  0.5439070000000 1.0
C      1  0.4408590000000  0.5943680000000  0.5350030000000 1.0
C      1  0.4404980000000  0.5036880000000  0.5205690000000 1.0
C      1  0.4256120000000  0.4915760000000  0.5693600000000 1.0
C      1  0.6170320000000  0.5077240000000  0.4798540000000 1.0
C      1  0.5214870000000  0.4293920000000  0.5749000000000 1.0
C      1  0.5947260000000  0.4899810000000  0.4483380000000 1.0
C      1  0.5459170000000  0.5158080000000  0.4519510000000 1.0
C      1  0.5076630000000  0.4172340000000  0.5345470000000 1.0
C      1  0.4997750000000  0.5069630000000  0.5237680000000 1.0
C      1  0.6194310000000  0.4833080000000  0.4622660000000 1.0
C      1  0.4452160000000  0.4640100000000  0.4425410000000 1.0
C      1  0.5739770000000  0.5683390000000  0.4640620000000 1.0
C      1  0.3906940000000  0.5154170000000  0.4983250000000 1.0
C      1  0.5639580000000  0.4947210000000  0.5316580000000 1.0
C      1  0.4768640000000  0.4730510000000  0.3957940000000 1.0
C      1  0.4456350000000  0.4927630000000  0.5899720000000 1.0
C      1  0.4557010000000  0.4511620000000  0.4654900000000 1.0
C      1  0.5773750000000  0.4099410000000  0.4812660000000 1.0
C      1  0.4771230000000  0.4896810000000  0.6166000000000 1.0
C      1  0.4004740000000  0.4536540000000  0.4985820000000 1.0
C      1  0.4768180000000  0.5223490000000  0.6124130000000 1.0
C      1  0.4785620000000  0.5521220000000  0.5306390000000 1.0
C      1  0.4861500000000  0.4831450000000  0.5287010000000 1.0
C      1  0.5063550000000  0.5556780000000  0.3999440000000 1.0
C      1  0.4298800000000  0.4602840000000  0.5347730000000 1.0
C      1  0.4874430000000  0.5979000000000  0.4364810000000 1.0
C      1  0.5074720000000  0.4461610000000  0.5893710000000 1.0
C      1  0.4186470000000  0.4679820000000  0.4293920000000 1.0
C      1  0.4024200000000  0.5630060000000  0.5231780000000 1.0
C      1  0.5994940000000  0.5331560000000  0.5485830000000 1.0
C      1  0.4385250000000  0.5640310000000  0.5028780000000 1.0
C      1  0.5200680000000  0.4680160000000  0.6047090000000 1.0
C      1  0.5193410000000  0.4357820000000  0.4870060000000 1.0
C      1  0.4511330000000  0.4255060000000  0.3974550000000 1.0
C      1  0.3969200000000  0.5015010000000  0.4745650000000 1.0
C      1  0.5504150000000  0.5137770000000  0.4811260000000 1.0
C      1  0.5536290000000  0.5321380000000  0.4054920000000 1.0
C      1  0.5363380000000  0.5008370000000  0.5857940000000 1.0
C      1  0.4556230000000  0.4662550000000  0.4922500000000 1.0
C      1  0.5717370000000  0.4422440000000  0.5603820000000 1.0
C      1  0.5972360000000  0.4408130000000  0.4467180000000 1.0
C      1  0.5592930000000  0.4750060000000  0.3863040000000 1.0
C      1  0.6124120000000  0.4547450000000  0.4679300000000 1.0
C      1  0.5091240000000  0.4178390000000  0.4312820000000 1.0
C      1  0.5814390000000  0.4779330000000  0.4062440000000 1.0
C      1  0.4571570000000  0.4701400000000  0.6046930000000 1.0
C      1  0.5060740000000  0.4745920000000  0.3874850000000 1.0
C      1  0.4434310000000  0.4117900000000  0.5077480000000 1.0
C      1  0.4058150000000  0.4558670000000  0.4523750000000 1.0
C      1  0.5372790000000  0.5917740000000  0.4412630000000 1.0
C      1  0.4454270000000  0.5377260000000  0.4166570000000 1.0
C      1  0.4205550000000  0.5207800000000  0.4243560000000 1.0
C      1  0.5976830000000  0.5290300000000  0.4714020000000 1.0
C      1  0.4784500000000  0.4384560000000  0.4548810000000 1.0
C      1  0.5770930000000  0.4184800000000  0.4550710000000 1.0
C      1  0.4977750000000  0.3909240000000  0.5186330000000 1.0
C      1  0.5071870000000  0.3904680000000  0.4910270000000 1.0
C      1  0.5017500000000  0.4782400000000  0.4608210000000 1.0
C      1  0.5362560000000  0.6005390000000  0.4874970000000 1.0
C      1  0.5772580000000  0.5300740000000  0.4239660000000 1.0
C      1  0.4983070000000  0.5600160000000  0.5121960000000 1.0
C      1  0.4824660000000  0.4738020000000  0.5017700000000 1.0
C      1  0.4398140000000  0.5932890000000  0.5063220000000 1.0
C      1  0.5180590000000  0.4397300000000  0.5155050000000 1.0
C      1  0.4251800000000  0.4935050000000  0.4164600000000 1.0
C      1  0.4698300000000  0.4414360000000  0.4022580000000 1.0
C      1  0.3879510000000  0.4988610000000  0.5504690000000 1.0
C      1  0.4562510000000  0.4900580000000  0.4450190000000 1.0
C      1  0.4557950000000  0.4937780000000  0.4149320000000 1.0
C      1  0.4631850000000  0.4294490000000  0.5222180000000 1.0
C      1  0.3983030000000  0.4721660000000  0.4743910000000 1.0
C      1  0.5494960000000  0.5814630000000  0.5569110000000 1.0
C      1  0.5367210000000  0.4939960000000  0.4339140000000 1.0
C      1  0.5791380000000  0.4804550000000  0.4710050000000 1.0
C      1  0.4886140000000  0.6038640000000  0.5264020000000 1.0
C      1  0.5477350000000  0.5490290000000  0.5938340000000 1.0
C      1  0.4039890000000  0.5453410000000  0.4524650000000 1.0
C      1  0.4810740000000  0.4479550000000  0.5683650000000 1.0
C      1  0.5391790000000  0.5065810000000  0.4061880000000 1.0
C      1  0.4606590000000  0.5402830000000  0.5972850000000 1.0
C      1  0.5231200000000  0.5507860000000  0.4689360000000 1.0
C      1  0.5033290000000  0.4499050000000  0.4663060000000 1.0
C      1  0.4334480000000  0.4337370000000  0.5730940000000 1.0
C      1  0.6076060000000  0.5070090000000  0.5367520000000 1.0
C      1  0.4443160000000  0.3943120000000  0.5333500000000 1.0
C      1  0.5107530000000  0.6040700000000  0.4496050000000 1.0
C      1  0.5386100000000  0.5992750000000  0.5162230000000 1.0
C      1  0.4585100000000  0.5339910000000  0.4644590000000 1.0
C      1  0.3905560000000  0.5469650000000  0.5022760000000 1.0
C      1  0.5265500000000  0.5333720000000  0.4917160000000 1.0
C      1  0.4148070000000  0.4289970000000  0.4662890000000 1.0
C      1  0.5457300000000  0.4805220000000  0.5140570000000 1.0
C      1  0.5869970000000  0.5026820000000  0.4229840000000 1.0
C      1  0.5531200000000  0.5895650000000  0.4647870000000 1.0
C      1  0.5848300000000  0.5445340000000  0.4492710000000 1.0
C      1  0.3967620000000  0.5515720000000  0.4753850000000 1.0
C      1  0.6050570000000  0.4515220000000  0.4962850000000 1.0
C      1  0.5117560000000  0.5180190000000  0.5471660000000 1.0
C      1  0.4818420000000  0.4287880000000  0.5441070000000 1.0
C      1  0.5726840000000  0.4157380000000  0.5221080000000 1.0
C      1  0.5348290000000  0.4355970000000  0.4359700000000 1.0
C      1  0.5909270000000  0.4545730000000  0.4221540000000 1.0
C      1  0.5914070000000  0.4541190000000  0.5424190000000 1.0
C      1  0.4786070000000  0.4763070000000  0.5558830000000 1.0
C      1  0.4565050000000  0.4473080000000  0.5865440000000 1.0
C      1  0.5324090000000  0.4092480000000  0.4819280000000 1.0
C      1  0.5407480000000  0.4873490000000  0.4878670000000 1.0
C      1  0.5185320000000  0.5464140000000  0.5943000000000 1.0
C      1  0.4546630000000  0.5982620000000  0.4598740000000 1.0
C      1  0.4689740000000  0.4984150000000  0.5710370000000 1.0
C      1  0.5049630000000  0.5246830000000  0.6073760000000 1.0
C      1  0.5048380000000  0.5135960000000  0.4976650000000 1.0
C      1  0.4848190000000  0.3914230000000  0.4731270000000 1.0
C      1  0.4826390000000  0.5380110000000  0.4500870000000 1.0
C      1  0.5764070000000  0.5592200000000  0.4913320000000 1.0
C      1  0.5612700000000  0.5091330000000  0.5742830000000 1.0
C      1  0.4555540000000  0.4012290000000  0.4814230000000 1.0
C      1  0.4980980000000  0.4746670000000  0.4128600000000 1.0
C      1  0.5800130000000  0.5400570000000  0.5277480000000 1.0
C      1  0.5302800000000  0.4700860000000  0.5544830000000 1.0
C      1  0.5422650000000  0.5663490000000  0.4273390000000 1.0
C      1  0.5298200000000  0.4622030000000  0.5271700000000 1.0
C      1  0.4563220000000  0.5640250000000  0.4150580000000 1.0
C      1  0.4127570000000  0.4473520000000  0.5549790000000 1.0
C      1  0.5582570000000  0.4035980000000  0.4991620000000 1.0
C      1  0.4376250000000  0.4125890000000  0.4658230000000 1.0
C      1  0.5526070000000  0.4682000000000  0.4685150000000 1.0
C      1  0.3870480000000  0.4682200000000  0.5217470000000 1.0
C      1  0.5209490000000  0.5839770000000  0.5588720000000 1.0
C      1  0.5096300000000  0.6079950000000  0.4798180000000 1.0
C      1  0.4892370000000  0.5191810000000  0.4295920000000 1.0
C      1  0.4797230000000  0.5563420000000  0.4019550000000 1.0
C      1  0.4515400000000  0.5063040000000  0.4680750000000 1.0
C      1  0.4472450000000  0.4515360000000  0.5154820000000 1.0
C      1  0.4678970000000  0.5939530000000  0.5461050000000 1.0
C      1  0.5013410000000  0.4883380000000  0.4862060000000 1.0
C      1  0.5475690000000  0.4756880000000  0.5961720000000 1.0
C      1  0.6109590000000  0.4997910000000  0.5078870000000 1.0
C      1  0.5393310000000  0.5434580000000  0.4466480000000 1.0
C      1  0.4240990000000  0.5566980000000  0.5651750000000 1.0
C      1  0.5320850000000  0.4877400000000  0.3845620000000 1.0
C      1  0.5576020000000  0.5214610000000  0.5438040000000 1.0
C      1  0.5929730000000  0.4784300000000  0.4976330000000 1.0
C      1  0.4044110000000  0.5195350000000  0.4495790000000 1.0
C      1  0.5936890000000  0.4368510000000  0.5192080000000 1.0
C      1  0.4156580000000  0.4294800000000  0.4952590000000 1.0
C      1  0.5476890000000  0.4165560000000  0.4534060000000 1.0
C      1  0.5330800000000  0.5340900000000  0.5382750000000 1.0
C      1  0.5753310000000  0.5676350000000  0.5186420000000 1.0
C      1  0.4719290000000  0.3828550000000  0.5287880000000 1.0
C      1  0.4812880000000  0.4272820000000  0.4270760000000 1.0
C      1  0.5776590000000  0.5295270000000  0.4929800000000 1.0
C      1  0.5645210000000  0.5655000000000  0.5761200000000 1.0
C      1  0.4884920000000  0.5401710000000  0.5552740000000 1.0
C      1  0.4977430000000  0.5562880000000  0.4639930000000 1.0
C      1  0.4482920000000  0.4948050000000  0.4943700000000 1.0
C      1  0.4331660000000  0.4868880000000  0.5411480000000 1.0
C      1  0.5416550000000  0.4632340000000  0.4423310000000 1.0
C      1  0.5250720000000  0.5496160000000  0.5161980000000 1.0
C      1  0.5052090000000  0.4914120000000  0.6135870000000 1.0
C      1  0.5596230000000  0.4186220000000  0.5483190000000 1.0
C      1  0.4668320000000  0.5194480000000  0.4123210000000 1.0
C      1  0.4606490000000  0.5904210000000  0.4333490000000 1.0
C      1  0.5710170000000  0.5286420000000  0.5932020000000 1.0
END
