TITL C-884132-5695-188 -3.53190685212775 125000 -26251.3797423639 0 0 176 (C1) n - 1
REM
REM in /home/nfs/bkarasulu/CARBON/AIRSS/Generating-Clusters/ReaxFF-fromJPCA2015/Units_Real/with-SteepDescent/Only-C1/SD-CG/Try1-3A/FIRE-CG
REM
REM
REM
REM
REM
REM ./C.cell (11c1c37f851c82e70ff6c80c92926a4b)
REM
REM compiler GCC version 9.2.1 20190827 (Red Hat 9.2.1-1)
REM options -cpp -mtune=generic -march=x86-64 -g -O0 -fpre-include=/usr/include/finclude/math-vector-fortran.h
REM seed -1396220278 -2030180829 -382933426 1697949426 1643536891 -623398772 -1971065430 1801042548 1882787806 -1264221288 -2080139190 236168575 -818286078 590955942 933645035 -902577176 -1322669187 319576162 -2134701795 -904520590 1557217912 219446613 -1375021233 -650654314 -1294591796 229362590 1009648507 1963313733 1602922430 1974344271 -517045982 -710772458 -2029658781
REM
CELL 1.54180   50.00000   50.00000   50.00000   90.00000   90.00000   90.00000
LATT -1
SFAC C  
C      1  0.5741650000000  0.4727600000000  0.4316260000000 1.0
C      1  0.4751790000000  0.5654640000000  0.5985150000000 1.0
C      1  0.5807710000000  0.5827400000000  0.4618420000000 1.0
C      1  0.4949230000000  0.5565220000000  0.4905680000000 1.0
C      1  0.5471360000000  0.5447760000000  0.4585770000000 1.0
C      1  0.5332320000000  0.4818680000000  0.6186240000000 1.0
C      1  0.3955520000000  0.4867290000000  0.5502200000000 1.0
C      1  0.4368270000000  0.5006380000000  0.4061880000000 1.0
C      1  0.5011120000000  0.5672460000000  0.5318220000000 1.0
C      1  0.4826580000000  0.3991650000000  0.5342260000000 1.0
C      1  0.5577770000000  0.4983810000000  0.4676970000000 1.0
C      1  0.6089700000000  0.5452120000000  0.4850790000000 1.0
C      1  0.4937990000000  0.4876480000000  0.3936850000000 1.0
C      1  0.4689300000000  0.4718470000000  0.4667450000000 1.0
C      1  0.4478270000000  0.5269280000000  0.4550720000000 1.0
C      1  0.4196420000000  0.4343650000000  0.5603100000000 1.0
C      1  0.5419710000000  0.5171140000000  0.4550790000000 1.0
C      1  0.4732330000000  0.5163510000000  0.5511470000000 1.0
C      1  0.6085630000000  0.4785780000000  0.5255000000000 1.0
C      1  0.4786590000000  0.5566490000000  0.5151760000000 1.0
C      1  0.5461880000000  0.5814290000000  0.5588120000000 1.0
C      1  0.5829810000000  0.4411580000000  0.5506950000000 1.0
C      1  0.4096260000000  0.5546290000000  0.4424960000000 1.0
C      1  0.5321250000000  0.5041360000000  0.4320690000000 1.0
C      1  0.4201360000000  0.5283250000000  0.4512620000000 1.0
C      1  0.4406730000000  0.4743410000000  0.4645360000000 1.0
C      1  0.5094350000000  0.5566710000000  0.4265290000000 1.0
C      1  0.5071040000000  0.5121470000000  0.4900930000000 1.0
C      1  0.5530790000000  0.5047480000000  0.5116570000000 1.0
C      1  0.5388410000000  0.4329030000000  0.4940630000000 1.0
C      1  0.4930770000000  0.5395740000000  0.5945890000000 1.0
C      1  0.5685890000000  0.6244560000000  0.5100890000000 1.0
C      1  0.5266400000000  0.5532630000000  0.5302750000000 1.0
C      1  0.5851680000000  0.5127830000000  0.4099230000000 1.0
C      1  0.5899590000000  0.5117440000000  0.5686190000000 1.0
C      1  0.5429310000000  0.5264820000000  0.5963790000000 1.0
C      1  0.5976250000000  0.5589200000000  0.4590830000000 1.0
C      1  0.5932190000000  0.4854130000000  0.4498430000000 1.0
C      1  0.4244640000000  0.4806600000000  0.4410590000000 1.0
C      1  0.5274930000000  0.5345240000000  0.5523010000000 1.0
C      1  0.4983360000000  0.5159850000000  0.6118340000000 1.0
C      1  0.4213560000000  0.4549850000000  0.5790910000000 1.0
C      1  0.4999430000000  0.5818430000000  0.5563220000000 1.0
C      1  0.5347270000000  0.4590950000000  0.6151020000000 1.0
C      1  0.5332400000000  0.4171210000000  0.5835440000000 1.0
C      1  0.5372510000000  0.5464450000000  0.5052890000000 1.0
C      1  0.4650310000000  0.5835140000000  0.4762170000000 1.0
C      1  0.4637710000000  0.4192680000000  0.5725730000000 1.0
C      1  0.5467330000000  0.4570420000000  0.4035150000000 1.0
C      1  0.4435510000000  0.4748100000000  0.3974220000000 1.0
C      1  0.4866500000000  0.4190450000000  0.5545270000000 1.0
C      1  0.5914080000000  0.4776870000000  0.4784600000000 1.0
C      1  0.4706880000000  0.4656400000000  0.5445440000000 1.0
C      1  0.5520010000000  0.4870040000000  0.4150010000000 1.0
C      1  0.5757320000000  0.4531060000000  0.5285890000000 1.0
C      1  0.4850710000000  0.6075510000000  0.5257780000000 1.0
C      1  0.4544370000000  0.4077510000000  0.5285140000000 1.0
C      1  0.5665170000000  0.5871530000000  0.5413480000000 1.0
C      1  0.5055670000000  0.5835410000000  0.4447170000000 1.0
C      1  0.4429710000000  0.4622670000000  0.5965180000000 1.0
C      1  0.4786580000000  0.5907200000000  0.4336590000000 1.0
C      1  0.4321340000000  0.4606920000000  0.4205760000000 1.0
C      1  0.5047520000000  0.4521270000000  0.4622300000000 1.0
C      1  0.5494980000000  0.5587900000000  0.4836690000000 1.0
C      1  0.4998090000000  0.4884340000000  0.5046720000000 1.0
C      1  0.4980890000000  0.3974410000000  0.4896970000000 1.0
C      1  0.4258140000000  0.4281880000000  0.4597250000000 1.0
C      1  0.5508830000000  0.4774200000000  0.5041440000000 1.0
C      1  0.4967000000000  0.4857990000000  0.4225010000000 1.0
C      1  0.5416140000000  0.4085420000000  0.5580670000000 1.0
C      1  0.4892900000000  0.4659440000000  0.4447440000000 1.0
C      1  0.4921330000000  0.4446420000000  0.5366950000000 1.0
C      1  0.4183590000000  0.5328740000000  0.5493720000000 1.0
C      1  0.3916600000000  0.5258970000000  0.4871390000000 1.0
C      1  0.5221360000000  0.5320910000000  0.3954500000000 1.0
C      1  0.4694770000000  0.4023440000000  0.4833640000000 1.0
C      1  0.5950050000000  0.4276610000000  0.4981500000000 1.0
C      1  0.4176660000000  0.5490540000000  0.4111450000000 1.0
C      1  0.4381330000000  0.4338760000000  0.4328820000000 1.0
C      1  0.4562920000000  0.5886600000000  0.4512800000000 1.0
C      1  0.4174160000000  0.4618310000000  0.5508580000000 1.0
C      1  0.5051260000000  0.5099000000000  0.4311050000000 1.0
C      1  0.4755890000000  0.4457860000000  0.3957540000000 1.0
C      1  0.5472360000000  0.4909830000000  0.5660840000000 1.0
C      1  0.6023220000000  0.5212610000000  0.5880770000000 1.0
C      1  0.5954370000000  0.5132540000000  0.4362290000000 1.0
C      1  0.4492880000000  0.5831230000000  0.5550380000000 1.0
C      1  0.5994440000000  0.5041290000000  0.5373790000000 1.0
C      1  0.5268740000000  0.4385300000000  0.4057790000000 1.0
C      1  0.4483500000000  0.4142250000000  0.5005410000000 1.0
C      1  0.4411050000000  0.4837780000000  0.5098510000000 1.0
C      1  0.5452450000000  0.6264490000000  0.5082420000000 1.0
C      1  0.4747330000000  0.5982880000000  0.5506130000000 1.0
C      1  0.4850290000000  0.4896690000000  0.5536920000000 1.0
C      1  0.5630760000000  0.5093520000000  0.5836870000000 1.0
C      1  0.4873790000000  0.5307870000000  0.4807730000000 1.0
C      1  0.4628390000000  0.4183790000000  0.4315580000000 1.0
C      1  0.3896270000000  0.4947380000000  0.5260360000000 1.0
C      1  0.4593060000000  0.5702950000000  0.4303580000000 1.0
C      1  0.5992020000000  0.4597220000000  0.5035010000000 1.0
C      1  0.4216420000000  0.5837550000000  0.5352700000000 1.0
C      1  0.4568460000000  0.5645390000000  0.5757630000000 1.0
C      1  0.4553160000000  0.4892310000000  0.6001480000000 1.0
C      1  0.5331870000000  0.5966810000000  0.4423850000000 1.0
C      1  0.5193170000000  0.6194720000000  0.5064030000000 1.0
C      1  0.4842020000000  0.4915520000000  0.6055170000000 1.0
C      1  0.4712930000000  0.4695940000000  0.3843760000000 1.0
C      1  0.5526990000000  0.4061520000000  0.4898460000000 1.0
C      1  0.5307140000000  0.5061970000000  0.5473410000000 1.0
C      1  0.5635320000000  0.4747430000000  0.4785920000000 1.0
C      1  0.5841390000000  0.4082610000000  0.5153580000000 1.0
C      1  0.5278570000000  0.4696760000000  0.5683760000000 1.0
C      1  0.5330470000000  0.5204900000000  0.5005960000000 1.0
C      1  0.5240960000000  0.4135540000000  0.4413510000000 1.0
C      1  0.4843410000000  0.4523660000000  0.5899230000000 1.0
C      1  0.5678020000000  0.5033180000000  0.3904680000000 1.0
C      1  0.3995920000000  0.4873930000000  0.4561910000000 1.0
C      1  0.4357240000000  0.5475680000000  0.5004680000000 1.0
C      1  0.4027100000000  0.5682240000000  0.5199880000000 1.0
C      1  0.5792960000000  0.5170480000000  0.5202350000000 1.0
C      1  0.5098670000000  0.4392300000000  0.4858950000000 1.0
C      1  0.4246560000000  0.4653860000000  0.4892420000000 1.0
C      1  0.4914160000000  0.5347630000000  0.4295780000000 1.0
C      1  0.5048520000000  0.4017870000000  0.4605440000000 1.0
C      1  0.5333560000000  0.3969170000000  0.5314390000000 1.0
C      1  0.5492430000000  0.4287330000000  0.4454200000000 1.0
C      1  0.3977700000000  0.4773340000000  0.4824650000000 1.0
C      1  0.4895570000000  0.4442580000000  0.5064720000000 1.0
C      1  0.3862060000000  0.4996100000000  0.4988800000000 1.0
C      1  0.4571360000000  0.5254830000000  0.4821150000000 1.0
C      1  0.5334860000000  0.5512850000000  0.4120170000000 1.0
C      1  0.4441760000000  0.4697840000000  0.5346640000000 1.0
C      1  0.4395660000000  0.5973090000000  0.5170330000000 1.0
C      1  0.5073360000000  0.3956780000000  0.5180340000000 1.0
C      1  0.5881250000000  0.5415530000000  0.4389130000000 1.0
C      1  0.5644050000000  0.4259190000000  0.5591950000000 1.0
C      1  0.3999320000000  0.5139430000000  0.5608500000000 1.0
C      1  0.4042300000000  0.5528400000000  0.4934480000000 1.0
C      1  0.5594100000000  0.5848650000000  0.4407500000000 1.0
C      1  0.5755770000000  0.4202400000000  0.4770630000000 1.0
C      1  0.4415880000000  0.4167860000000  0.5536070000000 1.0
C      1  0.5584760000000  0.3944460000000  0.5159250000000 1.0
C      1  0.4962820000000  0.6073350000000  0.4997400000000 1.0
C      1  0.4807670000000  0.4222560000000  0.4085510000000 1.0
C      1  0.5112160000000  0.4187810000000  0.4149440000000 1.0
C      1  0.4379670000000  0.5291840000000  0.4102240000000 1.0
C      1  0.5741330000000  0.5966410000000  0.5122370000000 1.0
C      1  0.5632400000000  0.4459240000000  0.4256570000000 1.0
C      1  0.4635020000000  0.5262840000000  0.5257560000000 1.0
C      1  0.4758690000000  0.4055890000000  0.4546670000000 1.0
C      1  0.4810060000000  0.4692590000000  0.4946900000000 1.0
C      1  0.4291020000000  0.4325660000000  0.4880680000000 1.0
C      1  0.5551170000000  0.4426420000000  0.4710070000000 1.0
C      1  0.5976030000000  0.5300610000000  0.5054450000000 1.0
C      1  0.5466430000000  0.4530270000000  0.5199480000000 1.0
C      1  0.4553140000000  0.5070150000000  0.5045650000000 1.0
C      1  0.4997060000000  0.4755140000000  0.5829160000000 1.0
C      1  0.5109360000000  0.4871300000000  0.5330580000000 1.0
C      1  0.5580490000000  0.5548880000000  0.4329530000000 1.0
C      1  0.4019340000000  0.5695280000000  0.4642240000000 1.0
C      1  0.5676630000000  0.5809570000000  0.4877090000000 1.0
C      1  0.4616750000000  0.5404030000000  0.4323850000000 1.0
C      1  0.4668070000000  0.5315070000000  0.5754780000000 1.0
C      1  0.4363760000000  0.5367110000000  0.5275900000000 1.0
C      1  0.5275400000000  0.5104080000000  0.6149650000000 1.0
C      1  0.4459020000000  0.5141790000000  0.5888330000000 1.0
C      1  0.3995630000000  0.5153480000000  0.4628040000000 1.0
C      1  0.5236480000000  0.5448760000000  0.5808010000000 1.0
C      1  0.5239170000000  0.5753150000000  0.5730520000000 1.0
C      1  0.5329340000000  0.4354190000000  0.6016890000000 1.0
C      1  0.5222250000000  0.4589440000000  0.5417870000000 1.0
C      1  0.4615220000000  0.4385630000000  0.5962550000000 1.0
C      1  0.4217340000000  0.5228940000000  0.5758710000000 1.0
C      1  0.4929430000000  0.5829950000000  0.4773130000000 1.0
C      1  0.4534960000000  0.5728840000000  0.4999930000000 1.0
C      1  0.5079660000000  0.5111960000000  0.3873900000000 1.0
END
