TITL C-884139-6216-156 16.6196380992038 125000 -14265.9056064783 0 0 97 (C1) n - 1
REM
REM in /home/nfs/bkarasulu/CARBON/AIRSS/Generating-Clusters/ReaxFF-fromJPCA2015/Units_Real/with-SteepDescent/Only-C1/SD-CG/Try1-3A/FIRE-CG
REM
REM
REM
REM
REM
REM ./C.cell (11c1c37f851c82e70ff6c80c92926a4b)
REM
REM compiler GCC version 9.2.1 20190827 (Red Hat 9.2.1-1)
REM options -cpp -mtune=generic -march=x86-64 -g -O0 -fpre-include=/usr/include/finclude/math-vector-fortran.h
REM seed 1517460674 -1782330855 -1419350700 -1146723853 -1273252558 -277851207 1786447004 328463970 -597047990 -892179621 -793555101 -1835505643 422704247 570358684 622693699 2051555378 -1517828974 -712729835 1410497858 1267926448 2126012361 1477290184 246423423 175257016 2003718278 717630373 674624690 1021883481 397629108 -780209589 -1221944731 1554778108 -124298151
REM
CELL 1.54180   50.00000   50.00000   50.00000   90.00000   90.00000   90.00000
LATT -1
SFAC C  
C      1  0.4840290000000  0.5638990000000  0.5391010000000 1.0
C      1  0.4257630000000  0.5139520000000  0.4945850000000 1.0
C      1  0.5718420000000  0.4970290000000  0.4557600000000 1.0
C      1  0.5417820000000  0.5224650000000  0.5632340000000 1.0
C      1  0.5114680000000  0.4754190000000  0.5106330000000 1.0
C      1  0.5232150000000  0.5019360000000  0.3976700000000 1.0
C      1  0.4444490000000  0.4448580000000  0.5470600000000 1.0
C      1  0.5660700000000  0.5340510000000  0.4961830000000 1.0
C      1  0.5011820000000  0.4397260000000  0.5375920000000 1.0
C      1  0.4406920000000  0.4569110000000  0.4595220000000 1.0
C      1  0.5077140000000  0.5338750000000  0.4868150000000 1.0
C      1  0.5010520000000  0.5031960000000  0.5775810000000 1.0
C      1  0.5040960000000  0.5944010000000  0.5075430000000 1.0
C      1  0.5534980000000  0.4437580000000  0.4500240000000 1.0
C      1  0.5300070000000  0.4739710000000  0.5792330000000 1.0
C      1  0.4254050000000  0.4616400000000  0.5080600000000 1.0
C      1  0.5851320000000  0.5005840000000  0.4803490000000 1.0
C      1  0.4481770000000  0.5161540000000  0.4359430000000 1.0
C      1  0.5061980000000  0.5810020000000  0.5339080000000 1.0
C      1  0.4871430000000  0.4983540000000  0.4180740000000 1.0
C      1  0.4538030000000  0.5171850000000  0.4883780000000 1.0
C      1  0.5410120000000  0.4426730000000  0.4248600000000 1.0
C      1  0.5579640000000  0.5244290000000  0.4478580000000 1.0
C      1  0.5174230000000  0.4636950000000  0.4593620000000 1.0
C      1  0.4746140000000  0.4749060000000  0.5928430000000 1.0
C      1  0.5190970000000  0.4908380000000  0.4687990000000 1.0
C      1  0.5206970000000  0.5422180000000  0.5620310000000 1.0
C      1  0.4239420000000  0.5065600000000  0.5232450000000 1.0
C      1  0.4743860000000  0.4925850000000  0.5189380000000 1.0
C      1  0.4839650000000  0.4224110000000  0.5227560000000 1.0
C      1  0.4853460000000  0.5531690000000  0.4426270000000 1.0
C      1  0.4316340000000  0.4695070000000  0.5390710000000 1.0
C      1  0.4459320000000  0.5448930000000  0.5108950000000 1.0
C      1  0.5392220000000  0.4257540000000  0.4721200000000 1.0
C      1  0.5305710000000  0.5895620000000  0.5026100000000 1.0
C      1  0.4253360000000  0.4717400000000  0.4799280000000 1.0
C      1  0.4430720000000  0.5254740000000  0.5581040000000 1.0
C      1  0.4258260000000  0.5196650000000  0.4535750000000 1.0
C      1  0.4621570000000  0.5657860000000  0.5204690000000 1.0
C      1  0.5226670000000  0.5525200000000  0.4712940000000 1.0
C      1  0.5352710000000  0.4537990000000  0.5606660000000 1.0
C      1  0.5466910000000  0.4939620000000  0.5626440000000 1.0
C      1  0.4539110000000  0.5074120000000  0.5755470000000 1.0
C      1  0.4994800000000  0.5123620000000  0.4710540000000 1.0
C      1  0.4963150000000  0.5108200000000  0.5307800000000 1.0
C      1  0.4300000000000  0.5328840000000  0.5350570000000 1.0
C      1  0.4789840000000  0.5229840000000  0.5767500000000 1.0
C      1  0.5023050000000  0.4803410000000  0.5953250000000 1.0
C      1  0.4465180000000  0.4904330000000  0.5274720000000 1.0
C      1  0.4526830000000  0.4751640000000  0.5747340000000 1.0
C      1  0.4157820000000  0.4986980000000  0.4717610000000 1.0
C      1  0.4839590000000  0.4490140000000  0.4365150000000 1.0
C      1  0.4500940000000  0.4379030000000  0.4790350000000 1.0
C      1  0.4849480000000  0.4754720000000  0.4977860000000 1.0
C      1  0.5440500000000  0.5752620000000  0.4837930000000 1.0
C      1  0.5581090000000  0.5670080000000  0.5455730000000 1.0
C      1  0.5114190000000  0.4182050000000  0.4744600000000 1.0
C      1  0.4560280000000  0.4293670000000  0.5286220000000 1.0
C      1  0.4652970000000  0.4511530000000  0.5615600000000 1.0
C      1  0.4666750000000  0.4942100000000  0.4393170000000 1.0
C      1  0.4967510000000  0.5665580000000  0.4655220000000 1.0
C      1  0.4861280000000  0.5847380000000  0.4851830000000 1.0
C      1  0.5694140000000  0.4380350000000  0.5241750000000 1.0
C      1  0.5799400000000  0.5120300000000  0.5330000000000 1.0
C      1  0.5597090000000  0.5336320000000  0.5412140000000 1.0
C      1  0.5713560000000  0.4668730000000  0.5212710000000 1.0
C      1  0.5663190000000  0.4688900000000  0.4621450000000 1.0
C      1  0.4607650000000  0.4651430000000  0.4400670000000 1.0
C      1  0.5114800000000  0.4587620000000  0.4298620000000 1.0
C      1  0.5249430000000  0.4506390000000  0.5292620000000 1.0
C      1  0.4960260000000  0.4420650000000  0.4620720000000 1.0
C      1  0.5377710000000  0.4471160000000  0.4883220000000 1.0
C      1  0.5016880000000  0.5214370000000  0.4077510000000 1.0
C      1  0.4920660000000  0.5376840000000  0.5534190000000 1.0
C      1  0.4782150000000  0.4441730000000  0.4850650000000 1.0
C      1  0.4909910000000  0.4625740000000  0.5507470000000 1.0
C      1  0.4383100000000  0.4362020000000  0.5055930000000 1.0
C      1  0.4356300000000  0.5471910000000  0.4605320000000 1.0
C      1  0.5699490000000  0.5429580000000  0.4672860000000 1.0
C      1  0.5326460000000  0.5377830000000  0.4452880000000 1.0
C      1  0.5433950000000  0.5317540000000  0.5145950000000 1.0
C      1  0.5068240000000  0.4802700000000  0.4108610000000 1.0
C      1  0.5012890000000  0.4899330000000  0.5514440000000 1.0
C      1  0.5697990000000  0.5735810000000  0.4688360000000 1.0
C      1  0.4594310000000  0.5791170000000  0.4949530000000 1.0
C      1  0.5164850000000  0.5251620000000  0.5115970000000 1.0
C      1  0.5083130000000  0.5402740000000  0.4293810000000 1.0
C      1  0.4728730000000  0.5005890000000  0.4745660000000 1.0
C      1  0.4574480000000  0.5435210000000  0.4411760000000 1.0
C      1  0.5319180000000  0.4868440000000  0.4948810000000 1.0
C      1  0.5879100000000  0.5154020000000  0.5046860000000 1.0
C      1  0.5409480000000  0.4333350000000  0.5122160000000 1.0
C      1  0.5685610000000  0.4878560000000  0.5425260000000 1.0
C      1  0.5302860000000  0.5678820000000  0.5503560000000 1.0
C      1  0.4916840000000  0.4207750000000  0.4949320000000 1.0
C      1  0.4394810000000  0.5598670000000  0.4866730000000 1.0
C      1  0.5571530000000  0.4701500000000  0.4914580000000 1.0
END
