TITL C-883738-3659-57 9143726.08074144 125000 -24764.8628987857 0 0 169 (C1) n - 1
REM
REM in /home/nfs/bkarasulu/CARBON/AIRSS/Generating-Clusters/ReaxFF-fromJPCA2015/Units_Real/with-SteepDescent/Only-C1/SD-CG/Try1-3A/FIRE-CG
REM
REM
REM
REM
REM
REM ./C.cell (11c1c37f851c82e70ff6c80c92926a4b)
REM
REM compiler GCC version 9.2.1 20190827 (Red Hat 9.2.1-1)
REM options -cpp -mtune=generic -march=x86-64 -g -O0 -fpre-include=/usr/include/finclude/math-vector-fortran.h
REM seed 1549964495 1954244139 -2103854420 -1187097574 -1970530221 -988263201 -1999684458 -682675180 -2102884546 1529538763 -1011286715 -989388177 1119078182 1984957679 -1377173946 -90617997 1926946506 601262054 -492689826 -1504839752 957250105 1442034183 -912649262 244921145 -181667661 112131023 173919985 1116178803 1791220669 1033690383 169201841 -1496179461 521433030
REM
CELL 1.54180   50.00000   50.00000   50.00000   90.00000   90.00000   90.00000
LATT -1
SFAC C  
C      1  0.5324250000000  0.5194130000000  0.6056660000000 1.0
C      1  0.5193210000000  0.4636040000000  0.5432290000000 1.0
C      1  0.4776940000000  0.4603890000000  0.4576050000000 1.0
C      1  0.5177780000000  0.4780460000000  0.5205490000000 1.0
C      1  0.4865110000000  0.5047250000000  0.3960210000000 1.0
C      1  0.5380910000000  0.6050850000000  0.4506920000000 1.0
C      1  0.5142180000000  0.4183200000000  0.5461660000000 1.0
C      1  0.5134830000000  0.4566910000000  0.4812710000000 1.0
C      1  0.4805820000000  0.5364590000000  0.4380410000000 1.0
C      1  0.5121450000000  0.6146540000000  0.4661990000000 1.0
C      1  0.5156710000000  0.5470290000000  0.4794490000000 1.0
C      1  0.5208970000000  0.3873530000000  0.5343000000000 1.0
C      1  0.5427900000000  0.5411440000000  0.5100800000000 1.0
C      1  0.5893830000000  0.5447440000000  0.5321210000000 1.0
C      1  0.4675170000000  0.4415280000000  0.5010060000000 1.0
C      1  0.4520890000000  0.5466680000000  0.4087360000000 1.0
C      1  0.5990520000000  0.4978190000000  0.5169280000000 1.0
C      1  0.4374450000000  0.5188600000000  0.4585820000000 1.0
C      1  0.4675950000000  0.5200500000000  0.6024950000000 1.0
C      1  0.4241290000000  0.4594970000000  0.5662000000000 1.0
C      1  0.5621360000000  0.5302490000000  0.4192690000000 1.0
C      1  0.5892460000000  0.5346900000000  0.4306740000000 1.0
C      1  0.5400590000000  0.5340740000000  0.4365550000000 1.0
C      1  0.4524770000000  0.4561040000000  0.4150750000000 1.0
C      1  0.5637370000000  0.4375430000000  0.5721480000000 1.0
C      1  0.5201550000000  0.5288410000000  0.4179200000000 1.0
C      1  0.4854560000000  0.4234380000000  0.5341510000000 1.0
C      1  0.5583380000000  0.4872960000000  0.4056890000000 1.0
C      1  0.4929380000000  0.4763950000000  0.4784630000000 1.0
C      1  0.4117960000000  0.4840880000000  0.5589150000000 1.0
C      1  0.5627550000000  0.4959640000000  0.4748900000000 1.0
C      1  0.4707800000000  0.4394300000000  0.5541030000000 1.0
C      1  0.5376530000000  0.5894380000000  0.5016830000000 1.0
C      1  0.5625720000000  0.4750350000000  0.4944000000000 1.0
C      1  0.3934780000000  0.4679310000000  0.4935840000000 1.0
C      1  0.4556780000000  0.4652470000000  0.5547030000000 1.0
C      1  0.4962800000000  0.4908550000000  0.5766090000000 1.0
C      1  0.4579790000000  0.5207900000000  0.4003790000000 1.0
C      1  0.5546480000000  0.5110300000000  0.5872550000000 1.0
C      1  0.4033620000000  0.5496110000000  0.5328180000000 1.0
C      1  0.5904650000000  0.4581000000000  0.4348020000000 1.0
C      1  0.5182350000000  0.5377720000000  0.5891870000000 1.0
C      1  0.5159810000000  0.4719180000000  0.5703340000000 1.0
C      1  0.4889000000000  0.5096570000000  0.5564780000000 1.0
C      1  0.5430130000000  0.4881600000000  0.5104820000000 1.0
C      1  0.4618220000000  0.4838120000000  0.5257890000000 1.0
C      1  0.5961530000000  0.5499540000000  0.4553360000000 1.0
C      1  0.5158530000000  0.4731780000000  0.4303180000000 1.0
C      1  0.5175580000000  0.5203550000000  0.3922160000000 1.0
C      1  0.4649150000000  0.4202270000000  0.5760000000000 1.0
C      1  0.4003330000000  0.4724840000000  0.5202670000000 1.0
C      1  0.5409640000000  0.5658560000000  0.4843780000000 1.0
C      1  0.4542300000000  0.4297690000000  0.4246120000000 1.0
C      1  0.4463370000000  0.5926720000000  0.5273780000000 1.0
C      1  0.5774280000000  0.4473830000000  0.5496420000000 1.0
C      1  0.4421410000000  0.4026730000000  0.5642820000000 1.0
C      1  0.5600520000000  0.4834270000000  0.5817420000000 1.0
C      1  0.3969440000000  0.5473640000000  0.5039110000000 1.0
C      1  0.5177450000000  0.5976830000000  0.5441840000000 1.0
C      1  0.4560720000000  0.4039730000000  0.4687470000000 1.0
C      1  0.5673530000000  0.4215610000000  0.4559080000000 1.0
C      1  0.5680740000000  0.5658830000000  0.5375670000000 1.0
C      1  0.4571630000000  0.6005580000000  0.5014920000000 1.0
C      1  0.4124050000000  0.5252760000000  0.5487860000000 1.0
C      1  0.4087180000000  0.4666620000000  0.4699650000000 1.0
C      1  0.5307240000000  0.4410240000000  0.5330210000000 1.0
C      1  0.4568990000000  0.4522880000000  0.4769360000000 1.0
C      1  0.5160380000000  0.4201320000000  0.5763360000000 1.0
C      1  0.4608760000000  0.5380550000000  0.4620500000000 1.0
C      1  0.5242460000000  0.5211950000000  0.4575050000000 1.0
C      1  0.4656600000000  0.5093330000000  0.5397340000000 1.0
C      1  0.4356860000000  0.4174280000000  0.5398650000000 1.0
C      1  0.4173130000000  0.5800220000000  0.4693640000000 1.0
C      1  0.4617920000000  0.5164420000000  0.4924600000000 1.0
C      1  0.4918770000000  0.4876450000000  0.5074950000000 1.0
C      1  0.5681040000000  0.4620720000000  0.4126290000000 1.0
C      1  0.5007260000000  0.5592170000000  0.5979890000000 1.0
C      1  0.5008670000000  0.5418840000000  0.5042250000000 1.0
C      1  0.5379990000000  0.4648150000000  0.5886280000000 1.0
C      1  0.5199760000000  0.4529650000000  0.4095210000000 1.0
C      1  0.4107690000000  0.5310580000000  0.4563000000000 1.0
C      1  0.4333430000000  0.5277250000000  0.5702130000000 1.0
C      1  0.5313350000000  0.5302500000000  0.5308630000000 1.0
C      1  0.5973860000000  0.5272260000000  0.5102230000000 1.0
C      1  0.4124090000000  0.4386920000000  0.4725220000000 1.0
C      1  0.4841570000000  0.4446940000000  0.6025370000000 1.0
C      1  0.5695220000000  0.4310820000000  0.5008260000000 1.0
C      1  0.5912830000000  0.4749540000000  0.4997040000000 1.0
C      1  0.4630830000000  0.4768130000000  0.4356840000000 1.0
C      1  0.4976800000000  0.5657800000000  0.4657410000000 1.0
C      1  0.5457430000000  0.4228330000000  0.4350980000000 1.0
C      1  0.4410090000000  0.4338610000000  0.5175550000000 1.0
C      1  0.4744000000000  0.3986920000000  0.5198610000000 1.0
C      1  0.4900320000000  0.5158950000000  0.4996520000000 1.0
C      1  0.4622300000000  0.5930390000000  0.4564240000000 1.0
C      1  0.5124150000000  0.5810040000000  0.5821080000000 1.0
C      1  0.5549320000000  0.4147780000000  0.4810230000000 1.0
C      1  0.4364440000000  0.4736940000000  0.4805590000000 1.0
C      1  0.5270180000000  0.4074250000000  0.4732270000000 1.0
C      1  0.4703460000000  0.5767960000000  0.5355660000000 1.0
C      1  0.4885900000000  0.5670330000000  0.5138980000000 1.0
C      1  0.5919280000000  0.4970970000000  0.5451330000000 1.0
C      1  0.5090770000000  0.5475600000000  0.4002480000000 1.0
C      1  0.4867170000000  0.5935180000000  0.5020890000000 1.0
C      1  0.5871070000000  0.5251670000000  0.5531300000000 1.0
C      1  0.6024550000000  0.5095850000000  0.4426180000000 1.0
C      1  0.4955520000000  0.5580840000000  0.4236280000000 1.0
C      1  0.5113250000000  0.5284330000000  0.5580730000000 1.0
C      1  0.4741880000000  0.4525850000000  0.3954200000000 1.0
C      1  0.4926440000000  0.4919130000000  0.4269130000000 1.0
C      1  0.4552540000000  0.5280570000000  0.5192110000000 1.0
C      1  0.4930340000000  0.4307160000000  0.4405320000000 1.0
C      1  0.5275600000000  0.4693120000000  0.4572070000000 1.0
C      1  0.5595260000000  0.4379090000000  0.5272040000000 1.0
C      1  0.5026150000000  0.4080040000000  0.4899030000000 1.0
C      1  0.5469280000000  0.4416570000000  0.4130260000000 1.0
C      1  0.5879130000000  0.4414710000000  0.4598980000000 1.0
C      1  0.5201410000000  0.4172230000000  0.4472120000000 1.0
C      1  0.4973530000000  0.5142190000000  0.4454890000000 1.0
C      1  0.5510220000000  0.5145500000000  0.5174400000000 1.0
C      1  0.4240450000000  0.5721370000000  0.5257570000000 1.0
C      1  0.4963150000000  0.4363460000000  0.4954740000000 1.0
C      1  0.5369740000000  0.4961970000000  0.4642120000000 1.0
C      1  0.5784380000000  0.4756820000000  0.5600160000000 1.0
C      1  0.4692220000000  0.5659920000000  0.4666610000000 1.0
C      1  0.4674100000000  0.4134780000000  0.4430680000000 1.0
C      1  0.4947660000000  0.4379620000000  0.4113320000000 1.0
C      1  0.4409660000000  0.5964950000000  0.4772580000000 1.0
C      1  0.4750660000000  0.3967990000000  0.4894030000000 1.0
C      1  0.4901330000000  0.4978270000000  0.6054060000000 1.0
C      1  0.4977840000000  0.5516470000000  0.5501150000000 1.0
C      1  0.4012990000000  0.4997450000000  0.5409470000000 1.0
C      1  0.5396850000000  0.4346320000000  0.5869070000000 1.0
C      1  0.5110840000000  0.5742810000000  0.4417790000000 1.0
C      1  0.5443130000000  0.6082100000000  0.5473720000000 1.0
C      1  0.4472030000000  0.5076420000000  0.5862380000000 1.0
C      1  0.5921350000000  0.4471610000000  0.4887040000000 1.0
C      1  0.4909770000000  0.4196220000000  0.5915050000000 1.0
C      1  0.5147170000000  0.5062720000000  0.6130870000000 1.0
C      1  0.4177390000000  0.4491080000000  0.5208760000000 1.0
C      1  0.4275440000000  0.4147610000000  0.4721340000000 1.0
C      1  0.5256200000000  0.6047860000000  0.5712660000000 1.0
C      1  0.5492080000000  0.5117040000000  0.3995080000000 1.0
C      1  0.4100140000000  0.5252460000000  0.4272440000000 1.0
C      1  0.5210670000000  0.5677550000000  0.5553260000000 1.0
C      1  0.4934600000000  0.3768110000000  0.5256140000000 1.0
C      1  0.4412200000000  0.4975110000000  0.4388190000000 1.0
C      1  0.5518170000000  0.5561710000000  0.5579370000000 1.0
C      1  0.4516880000000  0.5501940000000  0.5771280000000 1.0
C      1  0.4469520000000  0.4912230000000  0.5012430000000 1.0
C      1  0.4265730000000  0.5772020000000  0.4428750000000 1.0
C      1  0.4822300000000  0.4790940000000  0.3828980000000 1.0
C      1  0.5639990000000  0.5323830000000  0.5698880000000 1.0
C      1  0.4734440000000  0.4695130000000  0.6038130000000 1.0
C      1  0.5965230000000  0.4833230000000  0.4375750000000 1.0
C      1  0.5550270000000  0.5911440000000  0.5257520000000 1.0
C      1  0.5867340000000  0.5114670000000  0.4683010000000 1.0
C      1  0.4334820000000  0.5100170000000  0.4132550000000 1.0
C      1  0.4421760000000  0.5525930000000  0.5185650000000 1.0
C      1  0.4391690000000  0.5627380000000  0.4250190000000 1.0
C      1  0.4044960000000  0.5541620000000  0.4761060000000 1.0
C      1  0.5376490000000  0.5761790000000  0.4548820000000 1.0
C      1  0.4728000000000  0.5476720000000  0.5978060000000 1.0
C      1  0.5439510000000  0.3765040000000  0.5306600000000 1.0
C      1  0.5916240000000  0.5358280000000  0.4826300000000 1.0
C      1  0.4856850000000  0.6120200000000  0.4547250000000 1.0
C      1  0.5128590000000  0.6041760000000  0.4938550000000 1.0
C      1  0.4567920000000  0.4792570000000  0.5814220000000 1.0
C      1  0.4714850000000  0.5599470000000  0.5575060000000 1.0
END
