TITL C-883727-9645-152 -4.65676800742576 125000 -20666.2002262956 0 0 139 (C1) n - 1
REM
REM in /home/nfs/bkarasulu/CARBON/AIRSS/Generating-Clusters/ReaxFF-fromJPCA2015/Units_Real/with-SteepDescent/Only-C1/SD-CG/Try1-3A/FIRE-CG
REM
REM
REM
REM
REM
REM ./C.cell (11c1c37f851c82e70ff6c80c92926a4b)
REM
REM compiler GCC version 9.2.1 20190827 (Red Hat 9.2.1-1)
REM options -cpp -mtune=generic -march=x86-64 -g -O0 -fpre-include=/usr/include/finclude/math-vector-fortran.h
REM seed -412385268 1304722073 1167879749 -926613264 1203118802 924339285 -193263583 -1500651981 -1555331444 1671222908 907280251 1851649252 -1860393268 -392932848 1056413501 1755072769 1405778034 386596767 -1517013190 -1735930873 -43137543 1991607044 340368177 -1129433135 -469410492 -1080856709 -834725856 1896179913 -1733746633 457362383 403399846 -326699547 327963885
REM
CELL 1.54180   50.00000   50.00000   50.00000   90.00000   90.00000   90.00000
LATT -1
SFAC C  
C      1  0.4894120000000  0.4974820000000  0.4041700000000 1.0
C      1  0.4077580000000  0.4991000000000  0.5157110000000 1.0
C      1  0.5064550000000  0.5035600000000  0.4934990000000 1.0
C      1  0.5957150000000  0.5379600000000  0.5546310000000 1.0
C      1  0.5953490000000  0.4741760000000  0.5302500000000 1.0
C      1  0.4976230000000  0.4926150000000  0.5533250000000 1.0
C      1  0.4401660000000  0.5336410000000  0.4640410000000 1.0
C      1  0.5696050000000  0.4686970000000  0.4374070000000 1.0
C      1  0.5742040000000  0.4421750000000  0.5483750000000 1.0
C      1  0.5374480000000  0.5402040000000  0.4826910000000 1.0
C      1  0.4912280000000  0.4035580000000  0.5078410000000 1.0
C      1  0.5746070000000  0.4350620000000  0.4688230000000 1.0
C      1  0.4686170000000  0.4839400000000  0.4663990000000 1.0
C      1  0.4955250000000  0.4851540000000  0.4754030000000 1.0
C      1  0.4715940000000  0.4150840000000  0.4508150000000 1.0
C      1  0.5223370000000  0.4542620000000  0.4170080000000 1.0
C      1  0.4956210000000  0.4649200000000  0.5568620000000 1.0
C      1  0.5102110000000  0.5318830000000  0.4899920000000 1.0
C      1  0.4726760000000  0.4582380000000  0.5795620000000 1.0
C      1  0.4596400000000  0.4561870000000  0.5294800000000 1.0
C      1  0.5280660000000  0.4266230000000  0.5598670000000 1.0
C      1  0.5301840000000  0.5620200000000  0.4396900000000 1.0
C      1  0.5392910000000  0.4944280000000  0.5853610000000 1.0
C      1  0.5014470000000  0.4571770000000  0.5084510000000 1.0
C      1  0.5835120000000  0.5290750000000  0.4595610000000 1.0
C      1  0.5666280000000  0.4934270000000  0.5709360000000 1.0
C      1  0.4220290000000  0.5479560000000  0.5323270000000 1.0
C      1  0.5123760000000  0.4760110000000  0.4540190000000 1.0
C      1  0.5249210000000  0.4683630000000  0.5902870000000 1.0
C      1  0.4977670000000  0.5294820000000  0.4157310000000 1.0
C      1  0.4590080000000  0.5045990000000  0.5183770000000 1.0
C      1  0.4755350000000  0.5503860000000  0.4224940000000 1.0
C      1  0.4990500000000  0.6011680000000  0.5319390000000 1.0
C      1  0.4113640000000  0.5208750000000  0.5374760000000 1.0
C      1  0.5058710000000  0.4520330000000  0.4401200000000 1.0
C      1  0.5601400000000  0.5750680000000  0.5674310000000 1.0
C      1  0.5856250000000  0.4625380000000  0.4622360000000 1.0
C      1  0.4690720000000  0.5020770000000  0.4457270000000 1.0
C      1  0.5289500000000  0.5305460000000  0.5949880000000 1.0
C      1  0.4975390000000  0.4431590000000  0.4849130000000 1.0
C      1  0.4626370000000  0.4778580000000  0.5104580000000 1.0
C      1  0.5838890000000  0.4486620000000  0.5223090000000 1.0
C      1  0.5827120000000  0.5621260000000  0.5622780000000 1.0
C      1  0.4298810000000  0.4912420000000  0.4485250000000 1.0
C      1  0.4761530000000  0.4091810000000  0.5603860000000 1.0
C      1  0.4913550000000  0.5583160000000  0.5350170000000 1.0
C      1  0.4880550000000  0.4505160000000  0.5346580000000 1.0
C      1  0.4493740000000  0.4291180000000  0.5191540000000 1.0
C      1  0.4302150000000  0.5076770000000  0.4730060000000 1.0
C      1  0.4232760000000  0.4603840000000  0.4872840000000 1.0
C      1  0.4673450000000  0.5535160000000  0.4975170000000 1.0
C      1  0.5524990000000  0.4504650000000  0.5132080000000 1.0
C      1  0.4345460000000  0.5069720000000  0.5029280000000 1.0
C      1  0.4624900000000  0.4885070000000  0.4072050000000 1.0
C      1  0.6016040000000  0.5227180000000  0.5076580000000 1.0
C      1  0.5561800000000  0.5059540000000  0.5083070000000 1.0
C      1  0.5031200000000  0.5604910000000  0.4501360000000 1.0
C      1  0.4506070000000  0.4625080000000  0.4173950000000 1.0
C      1  0.4669390000000  0.5410850000000  0.4734600000000 1.0
C      1  0.4131660000000  0.5695670000000  0.4572190000000 1.0
C      1  0.4487610000000  0.5396610000000  0.4230430000000 1.0
C      1  0.5401170000000  0.5762950000000  0.5166200000000 1.0
C      1  0.4401330000000  0.5310120000000  0.5723430000000 1.0
C      1  0.5601410000000  0.5530480000000  0.5245660000000 1.0
C      1  0.4503510000000  0.4729070000000  0.4856670000000 1.0
C      1  0.5259650000000  0.4159530000000  0.4703040000000 1.0
C      1  0.3851720000000  0.5121000000000  0.4982410000000 1.0
C      1  0.5066240000000  0.5969290000000  0.4816020000000 1.0
C      1  0.5325970000000  0.5784900000000  0.5667230000000 1.0
C      1  0.4287560000000  0.4849780000000  0.5713990000000 1.0
C      1  0.4816580000000  0.5918850000000  0.4644570000000 1.0
C      1  0.4233570000000  0.5652230000000  0.5077100000000 1.0
C      1  0.4656610000000  0.5695220000000  0.5495570000000 1.0
C      1  0.5285030000000  0.5547520000000  0.5830630000000 1.0
C      1  0.4581650000000  0.4307310000000  0.5660450000000 1.0
C      1  0.5517510000000  0.5372460000000  0.5484370000000 1.0
C      1  0.4617840000000  0.5112830000000  0.5745890000000 1.0
C      1  0.5017230000000  0.4215590000000  0.5487330000000 1.0
C      1  0.5266570000000  0.4554880000000  0.5611890000000 1.0
C      1  0.5721880000000  0.5211080000000  0.5626240000000 1.0
C      1  0.5412100000000  0.5641550000000  0.4674730000000 1.0
C      1  0.4647160000000  0.4141390000000  0.4990680000000 1.0
C      1  0.4977530000000  0.5325270000000  0.5457600000000 1.0
C      1  0.5562780000000  0.5034650000000  0.4029300000000 1.0
C      1  0.4372680000000  0.4263470000000  0.5456670000000 1.0
C      1  0.4331190000000  0.4677480000000  0.5481920000000 1.0
C      1  0.5418810000000  0.4204660000000  0.5158580000000 1.0
C      1  0.4275140000000  0.5487650000000  0.4412520000000 1.0
C      1  0.5470240000000  0.4503090000000  0.4330730000000 1.0
C      1  0.4188910000000  0.5126440000000  0.5638350000000 1.0
C      1  0.5211190000000  0.4093600000000  0.4986340000000 1.0
C      1  0.5410260000000  0.4670450000000  0.5370210000000 1.0
C      1  0.5535100000000  0.5298410000000  0.4151180000000 1.0
C      1  0.6015640000000  0.4928150000000  0.5079780000000 1.0
C      1  0.5583220000000  0.5339620000000  0.5004480000000 1.0
C      1  0.4353180000000  0.4631370000000  0.4443060000000 1.0
C      1  0.5882800000000  0.5360160000000  0.4847480000000 1.0
C      1  0.4759620000000  0.5114770000000  0.5461860000000 1.0
C      1  0.4540120000000  0.4216540000000  0.4721970000000 1.0
C      1  0.5509450000000  0.4225300000000  0.5435570000000 1.0
C      1  0.3855210000000  0.5388020000000  0.4884740000000 1.0
C      1  0.4329120000000  0.4424590000000  0.4656210000000 1.0
C      1  0.4810230000000  0.5754210000000  0.4391980000000 1.0
C      1  0.5245990000000  0.5863430000000  0.5381370000000 1.0
C      1  0.4652140000000  0.5970400000000  0.4885030000000 1.0
C      1  0.4556580000000  0.4843200000000  0.5828430000000 1.0
C      1  0.5293630000000  0.4951780000000  0.4128760000000 1.0
C      1  0.4757240000000  0.5936300000000  0.5462490000000 1.0
C      1  0.5750940000000  0.4938430000000  0.4233080000000 1.0
C      1  0.4887980000000  0.3974120000000  0.5358190000000 1.0
C      1  0.4958430000000  0.5153610000000  0.4422350000000 1.0
C      1  0.4636970000000  0.4234840000000  0.4252040000000 1.0
C      1  0.5270940000000  0.5407120000000  0.4199660000000 1.0
C      1  0.4568410000000  0.4368020000000  0.4074210000000 1.0
C      1  0.5920720000000  0.5426620000000  0.5263100000000 1.0
C      1  0.5197140000000  0.4989600000000  0.4399210000000 1.0
C      1  0.5481000000000  0.4301020000000  0.4563920000000 1.0
C      1  0.5780800000000  0.5219920000000  0.4337430000000 1.0
C      1  0.4105010000000  0.4648160000000  0.5134150000000 1.0
C      1  0.4498800000000  0.5756020000000  0.5016020000000 1.0
C      1  0.4978800000000  0.4612590000000  0.5968840000000 1.0
C      1  0.5627900000000  0.4892000000000  0.4851100000000 1.0
C      1  0.5248480000000  0.5270120000000  0.5510660000000 1.0
C      1  0.4050750000000  0.5622690000000  0.4851570000000 1.0
C      1  0.5102090000000  0.4768890000000  0.4007870000000 1.0
C      1  0.4400550000000  0.5540370000000  0.5542000000000 1.0
C      1  0.4151420000000  0.4482000000000  0.5370040000000 1.0
C      1  0.4472270000000  0.5071750000000  0.4261640000000 1.0
C      1  0.4927000000000  0.5518270000000  0.5074020000000 1.0
C      1  0.5397210000000  0.4934720000000  0.5277360000000 1.0
C      1  0.5315880000000  0.5817190000000  0.4889150000000 1.0
C      1  0.5797190000000  0.4715860000000  0.5565260000000 1.0
C      1  0.5219540000000  0.4829270000000  0.5047910000000 1.0
C      1  0.5197080000000  0.5042040000000  0.5657310000000 1.0
C      1  0.5917180000000  0.4838990000000  0.4819320000000 1.0
C      1  0.5441020000000  0.4683160000000  0.4911620000000 1.0
C      1  0.4999550000000  0.4284520000000  0.4578770000000 1.0
C      1  0.4900530000000  0.6056410000000  0.5035050000000 1.0
C      1  0.4938490000000  0.5366310000000  0.4642870000000 1.0
END
