TITL C-884141-4321-450 27.1126870216912 125000 -25321.3734845542 0 0 168 (C1) n - 1
REM
REM in /home/nfs/bkarasulu/CARBON/AIRSS/Generating-Clusters/ReaxFF-fromJPCA2015/Units_Real/with-SteepDescent/Only-C1/SD-CG/Try1-3A/FIRE-CG
REM
REM
REM
REM
REM
REM ./C.cell (11c1c37f851c82e70ff6c80c92926a4b)
REM
REM compiler GCC version 9.2.1 20190827 (Red Hat 9.2.1-1)
REM options -cpp -mtune=generic -march=x86-64 -g -O0 -fpre-include=/usr/include/finclude/math-vector-fortran.h
REM seed 1766971248 -1777370354 -1280326616 2098006183 433582736 -255968585 -2104586023 -384183512 376343534 33507764 -730291924 997416130 1364152765 -2128384616 2120310737 -154987907 -706692515 -1447939393 1288310780 124432547 -1177457952 625832083 -1463245870 1711975352 2005534878 -683901625 1642065199 625844195 -789484091 -1590355221 51801933 -1855387313 1979826406
REM
CELL 1.54180   50.00000   50.00000   50.00000   90.00000   90.00000   90.00000
LATT -1
SFAC C  
C      1  0.4255710000000  0.5577850000000  0.4385000000000 1.0
C      1  0.4583480000000  0.4402540000000  0.4098100000000 1.0
C      1  0.4247470000000  0.4648440000000  0.4181220000000 1.0
C      1  0.5025140000000  0.5968710000000  0.5664790000000 1.0
C      1  0.4570780000000  0.4977320000000  0.5140720000000 1.0
C      1  0.5696320000000  0.5153540000000  0.4783880000000 1.0
C      1  0.4917550000000  0.5727440000000  0.5279890000000 1.0
C      1  0.3896460000000  0.4902820000000  0.4598690000000 1.0
C      1  0.4968110000000  0.4707950000000  0.4047650000000 1.0
C      1  0.5394320000000  0.5232620000000  0.5467720000000 1.0
C      1  0.4742460000000  0.5289390000000  0.6067290000000 1.0
C      1  0.4023830000000  0.4487100000000  0.5121450000000 1.0
C      1  0.4667290000000  0.4742260000000  0.5598900000000 1.0
C      1  0.5781880000000  0.4260720000000  0.5215290000000 1.0
C      1  0.5674000000000  0.5645580000000  0.5653540000000 1.0
C      1  0.4491360000000  0.5771160000000  0.5595050000000 1.0
C      1  0.5286410000000  0.4159050000000  0.4347690000000 1.0
C      1  0.5467910000000  0.4760530000000  0.4965410000000 1.0
C      1  0.5200740000000  0.5067420000000  0.5616970000000 1.0
C      1  0.5460910000000  0.4291410000000  0.5513160000000 1.0
C      1  0.5605570000000  0.5054520000000  0.5314370000000 1.0
C      1  0.5839130000000  0.4544460000000  0.5269940000000 1.0
C      1  0.5367480000000  0.4348830000000  0.5190010000000 1.0
C      1  0.4827260000000  0.5030600000000  0.5959750000000 1.0
C      1  0.4705900000000  0.5528180000000  0.4049510000000 1.0
C      1  0.5364110000000  0.5204070000000  0.3961220000000 1.0
C      1  0.5078530000000  0.5211000000000  0.3910160000000 1.0
C      1  0.4299350000000  0.4882480000000  0.4737590000000 1.0
C      1  0.4356240000000  0.4528300000000  0.3932850000000 1.0
C      1  0.5429620000000  0.4068730000000  0.4583700000000 1.0
C      1  0.4576940000000  0.5261440000000  0.4728040000000 1.0
C      1  0.5049240000000  0.4950060000000  0.4914970000000 1.0
C      1  0.4260770000000  0.4603370000000  0.4731300000000 1.0
C      1  0.4775710000000  0.4999990000000  0.5502900000000 1.0
C      1  0.4321920000000  0.4326330000000  0.5493640000000 1.0
C      1  0.4165870000000  0.5400040000000  0.5227460000000 1.0
C      1  0.5738630000000  0.4501840000000  0.4618950000000 1.0
C      1  0.6150050000000  0.5068420000000  0.4772300000000 1.0
C      1  0.5738900000000  0.5631240000000  0.5183340000000 1.0
C      1  0.3866340000000  0.4949570000000  0.4891000000000 1.0
C      1  0.4738760000000  0.5359590000000  0.5242090000000 1.0
C      1  0.5139570000000  0.3906380000000  0.5612300000000 1.0
C      1  0.5970800000000  0.4689680000000  0.5056610000000 1.0
C      1  0.4355670000000  0.5092110000000  0.4008970000000 1.0
C      1  0.5534340000000  0.5801180000000  0.4623630000000 1.0
C      1  0.4258130000000  0.5412140000000  0.4763310000000 1.0
C      1  0.4871150000000  0.3909250000000  0.5506540000000 1.0
C      1  0.5476260000000  0.4915260000000  0.3938920000000 1.0
C      1  0.5068650000000  0.4000870000000  0.4924570000000 1.0
C      1  0.5322890000000  0.3896690000000  0.4802000000000 1.0
C      1  0.4265560000000  0.5056700000000  0.5656400000000 1.0
C      1  0.4691890000000  0.5280900000000  0.5534190000000 1.0
C      1  0.5033610000000  0.4955390000000  0.5430670000000 1.0
C      1  0.5238360000000  0.5837530000000  0.5834100000000 1.0
C      1  0.4409310000000  0.4225630000000  0.4540070000000 1.0
C      1  0.4613490000000  0.5696610000000  0.4248060000000 1.0
C      1  0.5212440000000  0.5581910000000  0.5986860000000 1.0
C      1  0.4618130000000  0.5052730000000  0.3852150000000 1.0
C      1  0.4940290000000  0.5487500000000  0.5984760000000 1.0
C      1  0.4985740000000  0.4594490000000  0.5985890000000 1.0
C      1  0.5593600000000  0.4288270000000  0.5003700000000 1.0
C      1  0.5452270000000  0.5427320000000  0.4121800000000 1.0
C      1  0.5435220000000  0.5385330000000  0.5971620000000 1.0
C      1  0.5160770000000  0.4388700000000  0.5861820000000 1.0
C      1  0.5389220000000  0.5979700000000  0.4761790000000 1.0
C      1  0.5491760000000  0.5890270000000  0.5686680000000 1.0
C      1  0.6116230000000  0.4966790000000  0.5033360000000 1.0
C      1  0.5210810000000  0.5603060000000  0.4155940000000 1.0
C      1  0.5408900000000  0.6031610000000  0.5458140000000 1.0
C      1  0.5614740000000  0.4255270000000  0.4709160000000 1.0
C      1  0.5599600000000  0.4772060000000  0.4155690000000 1.0
C      1  0.4194150000000  0.4945840000000  0.4202000000000 1.0
C      1  0.4868860000000  0.4406640000000  0.4059310000000 1.0
C      1  0.5598790000000  0.4690250000000  0.4418950000000 1.0
C      1  0.4394020000000  0.4138170000000  0.5320740000000 1.0
C      1  0.4810560000000  0.5303500000000  0.4548710000000 1.0
C      1  0.5167660000000  0.4399510000000  0.4389150000000 1.0
C      1  0.5689390000000  0.5433130000000  0.4293740000000 1.0
C      1  0.4967600000000  0.5707220000000  0.5560710000000 1.0
C      1  0.4308520000000  0.5657190000000  0.5180020000000 1.0
C      1  0.4463410000000  0.4512200000000  0.4367010000000 1.0
C      1  0.4997430000000  0.5477900000000  0.4005350000000 1.0
C      1  0.5238960000000  0.5317450000000  0.4683560000000 1.0
C      1  0.5167540000000  0.4804970000000  0.6083040000000 1.0
C      1  0.4117380000000  0.5361090000000  0.4491710000000 1.0
C      1  0.5252810000000  0.5123800000000  0.4463150000000 1.0
C      1  0.5523240000000  0.5400980000000  0.5693630000000 1.0
C      1  0.5225260000000  0.4770610000000  0.4757800000000 1.0
C      1  0.5358220000000  0.5916550000000  0.5055790000000 1.0
C      1  0.4496550000000  0.5412460000000  0.5965150000000 1.0
C      1  0.4413350000000  0.4500440000000  0.4956090000000 1.0
C      1  0.5614740000000  0.4752510000000  0.5394030000000 1.0
C      1  0.4761110000000  0.4858980000000  0.4951060000000 1.0
C      1  0.4312080000000  0.4113550000000  0.4780350000000 1.0
C      1  0.4131370000000  0.4655240000000  0.5328620000000 1.0
C      1  0.4044170000000  0.5077360000000  0.4413020000000 1.0
C      1  0.5833270000000  0.5541750000000  0.5439310000000 1.0
C      1  0.5718590000000  0.4938750000000  0.5847420000000 1.0
C      1  0.4684520000000  0.4049560000000  0.5350780000000 1.0
C      1  0.3971250000000  0.4620470000000  0.4660190000000 1.0
C      1  0.4292940000000  0.4919650000000  0.5232680000000 1.0
C      1  0.5751120000000  0.4647680000000  0.4869180000000 1.0
C      1  0.5918370000000  0.5066340000000  0.5685880000000 1.0
C      1  0.5227160000000  0.5184260000000  0.4954890000000 1.0
C      1  0.5264150000000  0.5412190000000  0.5200730000000 1.0
C      1  0.3865880000000  0.4647060000000  0.4932290000000 1.0
C      1  0.5378010000000  0.4865030000000  0.4509960000000 1.0
C      1  0.5929820000000  0.5463020000000  0.5028150000000 1.0
C      1  0.6038750000000  0.5218310000000  0.5160850000000 1.0
C      1  0.4927030000000  0.5977380000000  0.4736480000000 1.0
C      1  0.4501190000000  0.5857810000000  0.4752790000000 1.0
C      1  0.5457940000000  0.3901530000000  0.5048900000000 1.0
C      1  0.4895390000000  0.4792790000000  0.4381230000000 1.0
C      1  0.4609500000000  0.5236470000000  0.5029380000000 1.0
C      1  0.4567990000000  0.4944010000000  0.4678760000000 1.0
C      1  0.4443820000000  0.5788410000000  0.4447290000000 1.0
C      1  0.5027140000000  0.4228370000000  0.4218340000000 1.0
C      1  0.4476200000000  0.5848220000000  0.5338860000000 1.0
C      1  0.5241280000000  0.4755920000000  0.3967500000000 1.0
C      1  0.5024100000000  0.5501020000000  0.4605220000000 1.0
C      1  0.5091530000000  0.4137700000000  0.5759250000000 1.0
C      1  0.4186730000000  0.5155420000000  0.5390860000000 1.0
C      1  0.4982620000000  0.5480850000000  0.5156740000000 1.0
C      1  0.5600940000000  0.3980600000000  0.5277670000000 1.0
C      1  0.4822350000000  0.5536490000000  0.5729260000000 1.0
C      1  0.5875510000000  0.5214320000000  0.5416550000000 1.0
C      1  0.4883510000000  0.4273260000000  0.5301800000000 1.0
C      1  0.4620530000000  0.4754640000000  0.4451690000000 1.0
C      1  0.4991610000000  0.6107090000000  0.5408860000000 1.0
C      1  0.4757150000000  0.4749270000000  0.5893280000000 1.0
C      1  0.5574830000000  0.4719600000000  0.5684030000000 1.0
C      1  0.5348570000000  0.4644370000000  0.5219050000000 1.0
C      1  0.5080870000000  0.4706530000000  0.5322290000000 1.0
C      1  0.5857910000000  0.5204070000000  0.4331440000000 1.0
C      1  0.4146140000000  0.5010870000000  0.4948010000000 1.0
C      1  0.4716320000000  0.5991280000000  0.4900640000000 1.0
C      1  0.4848740000000  0.4126540000000  0.4764770000000 1.0
C      1  0.4893550000000  0.4980480000000  0.3890750000000 1.0
C      1  0.5242590000000  0.6123210000000  0.5255100000000 1.0
C      1  0.4519480000000  0.5314910000000  0.3933390000000 1.0
C      1  0.4265320000000  0.4264380000000  0.5053790000000 1.0
C      1  0.5706160000000  0.5600150000000  0.4542110000000 1.0
C      1  0.4579980000000  0.4036640000000  0.4675150000000 1.0
C      1  0.5112440000000  0.5706850000000  0.4412670000000 1.0
C      1  0.5444050000000  0.5648730000000  0.5138770000000 1.0
C      1  0.4710630000000  0.4560300000000  0.4998890000000 1.0
C      1  0.5037810000000  0.4558750000000  0.4592860000000 1.0
C      1  0.4087200000000  0.5289750000000  0.4970660000000 1.0
C      1  0.5423480000000  0.4895080000000  0.6131800000000 1.0
C      1  0.6092510000000  0.5128120000000  0.4507340000000 1.0
C      1  0.4324250000000  0.5685720000000  0.4893610000000 1.0
C      1  0.5530390000000  0.5046660000000  0.5006490000000 1.0
C      1  0.4753810000000  0.5966320000000  0.5225210000000 1.0
C      1  0.5811440000000  0.5042650000000  0.4551190000000 1.0
C      1  0.4867240000000  0.4414410000000  0.4784410000000 1.0
C      1  0.4387180000000  0.4788350000000  0.5694030000000 1.0
C      1  0.4425340000000  0.5292620000000  0.5710710000000 1.0
C      1  0.4556490000000  0.5675340000000  0.5842230000000 1.0
C      1  0.5795910000000  0.5422340000000  0.4773350000000 1.0
C      1  0.5148270000000  0.5962340000000  0.4566990000000 1.0
C      1  0.4217810000000  0.4563640000000  0.5597880000000 1.0
C      1  0.5556190000000  0.5125890000000  0.6055240000000 1.0
C      1  0.5429440000000  0.4474080000000  0.5735230000000 1.0
C      1  0.5111320000000  0.4195190000000  0.5135840000000 1.0
C      1  0.4962510000000  0.5082840000000  0.4432790000000 1.0
C      1  0.5423450000000  0.4006960000000  0.5513210000000 1.0
C      1  0.4830060000000  0.4561270000000  0.5315160000000 1.0
C      1  0.5117400000000  0.5041420000000  0.5900010000000 1.0
END
