TITL C-883733-4178-240 94.7784571435278 125000 -26688.1844880265 0 0 181 (C1) n - 1
REM
REM in /home/nfs/bkarasulu/CARBON/AIRSS/Generating-Clusters/ReaxFF-fromJPCA2015/Units_Real/with-SteepDescent/Only-C1/SD-CG/Try1-3A/FIRE-CG
REM
REM
REM
REM
REM
REM ./C.cell (11c1c37f851c82e70ff6c80c92926a4b)
REM
REM compiler GCC version 9.2.1 20190827 (Red Hat 9.2.1-1)
REM options -cpp -mtune=generic -march=x86-64 -g -O0 -fpre-include=/usr/include/finclude/math-vector-fortran.h
REM seed -1899750268 72660815 -942226477 -1055756792 214032120 -1692381516 1824481827 -67445653 -829357993 1266488448 1290991044 774550150 166429396 1627107000 931663535 -691662365 1939060033 941419463 -54546886 708416960 -815490819 186124597 392659459 -890489059 -1341061969 1430835063 156705289 802630230 -194540160 -2016190444 -138727234 696926880 32440403
REM
CELL 1.54180   50.00000   50.00000   50.00000   90.00000   90.00000   90.00000
LATT -1
SFAC C  
C      1  0.5233940000000  0.4928280000000  0.4339960000000 1.0
C      1  0.4430340000000  0.6044390000000  0.4893200000000 1.0
C      1  0.4340810000000  0.4148800000000  0.5452780000000 1.0
C      1  0.5398580000000  0.4507870000000  0.4710910000000 1.0
C      1  0.5518880000000  0.4804620000000  0.4071550000000 1.0
C      1  0.5512020000000  0.5290780000000  0.5000220000000 1.0
C      1  0.4759090000000  0.4836250000000  0.5545250000000 1.0
C      1  0.6095040000000  0.4882250000000  0.4954260000000 1.0
C      1  0.5024610000000  0.4205290000000  0.4629560000000 1.0
C      1  0.5233270000000  0.4459690000000  0.5228430000000 1.0
C      1  0.4794430000000  0.5143570000000  0.3973060000000 1.0
C      1  0.4153930000000  0.4376970000000  0.5478150000000 1.0
C      1  0.5871980000000  0.4689920000000  0.4948810000000 1.0
C      1  0.4835550000000  0.5682690000000  0.4881220000000 1.0
C      1  0.4883810000000  0.4200620000000  0.4153200000000 1.0
C      1  0.4370680000000  0.5573720000000  0.4653790000000 1.0
C      1  0.5738750000000  0.5493850000000  0.5065750000000 1.0
C      1  0.4912060000000  0.5830200000000  0.5770750000000 1.0
C      1  0.4087670000000  0.4551010000000  0.5723640000000 1.0
C      1  0.5404440000000  0.5143650000000  0.4244640000000 1.0
C      1  0.5630500000000  0.5129570000000  0.4645970000000 1.0
C      1  0.5057880000000  0.5269090000000  0.5178630000000 1.0
C      1  0.4868860000000  0.5291530000000  0.4756260000000 1.0
C      1  0.4612160000000  0.4246200000000  0.4250960000000 1.0
C      1  0.4548630000000  0.5346010000000  0.4319680000000 1.0
C      1  0.4420840000000  0.5068950000000  0.6045290000000 1.0
C      1  0.5040010000000  0.4914910000000  0.6014360000000 1.0
C      1  0.4038130000000  0.4916590000000  0.5247050000000 1.0
C      1  0.4772580000000  0.3949180000000  0.5357790000000 1.0
C      1  0.5739790000000  0.5550580000000  0.5403910000000 1.0
C      1  0.5378830000000  0.4724060000000  0.5699820000000 1.0
C      1  0.5571310000000  0.4025470000000  0.5401880000000 1.0
C      1  0.4926050000000  0.5329690000000  0.5634650000000 1.0
C      1  0.4485820000000  0.5306670000000  0.5070810000000 1.0
C      1  0.5094110000000  0.4462430000000  0.5976290000000 1.0
C      1  0.4443210000000  0.4823070000000  0.4961700000000 1.0
C      1  0.5981830000000  0.5352090000000  0.4951360000000 1.0
C      1  0.5278180000000  0.5977670000000  0.5226350000000 1.0
C      1  0.4446830000000  0.5577400000000  0.5834250000000 1.0
C      1  0.4568300000000  0.4710280000000  0.3957380000000 1.0
C      1  0.5200290000000  0.5749450000000  0.5701370000000 1.0
C      1  0.4903800000000  0.4768570000000  0.4901740000000 1.0
C      1  0.5268710000000  0.4969740000000  0.5566550000000 1.0
C      1  0.4392990000000  0.3970260000000  0.4970690000000 1.0
C      1  0.5643370000000  0.4581960000000  0.4528820000000 1.0
C      1  0.4744320000000  0.5393030000000  0.4104070000000 1.0
C      1  0.4813380000000  0.4483930000000  0.5927030000000 1.0
C      1  0.4831820000000  0.3909060000000  0.4835290000000 1.0
C      1  0.4973440000000  0.5217020000000  0.4526280000000 1.0
C      1  0.4130460000000  0.4842560000000  0.5717840000000 1.0
C      1  0.5808670000000  0.5521520000000  0.4484270000000 1.0
C      1  0.5755010000000  0.4614120000000  0.5337260000000 1.0
C      1  0.5321560000000  0.3921540000000  0.5287820000000 1.0
C      1  0.4271760000000  0.4529680000000  0.4156700000000 1.0
C      1  0.4700430000000  0.4957480000000  0.5014950000000 1.0
C      1  0.5997360000000  0.5369470000000  0.4659390000000 1.0
C      1  0.5021360000000  0.5544060000000  0.4141480000000 1.0
C      1  0.4760490000000  0.4539470000000  0.4831560000000 1.0
C      1  0.4895890000000  0.5646910000000  0.5379270000000 1.0
C      1  0.4436690000000  0.4807250000000  0.4675120000000 1.0
C      1  0.5293560000000  0.5733050000000  0.4724170000000 1.0
C      1  0.5167160000000  0.5769940000000  0.5412940000000 1.0
C      1  0.5124830000000  0.4345800000000  0.4054870000000 1.0
C      1  0.4733850000000  0.5625080000000  0.5883680000000 1.0
C      1  0.4056060000000  0.4322540000000  0.5190560000000 1.0
C      1  0.5681980000000  0.5079050000000  0.4207120000000 1.0
C      1  0.5331070000000  0.4372410000000  0.4258670000000 1.0
C      1  0.4897300000000  0.5377770000000  0.5394110000000 1.0
C      1  0.5428610000000  0.5412580000000  0.4154810000000 1.0
C      1  0.4184300000000  0.5667100000000  0.5397580000000 1.0
C      1  0.5056390000000  0.5863850000000  0.4155080000000 1.0
C      1  0.5339260000000  0.5252280000000  0.5208180000000 1.0
C      1  0.6005520000000  0.5586680000000  0.5481360000000 1.0
C      1  0.5690100000000  0.5759610000000  0.4918250000000 1.0
C      1  0.5550430000000  0.4574360000000  0.4248950000000 1.0
C      1  0.4283690000000  0.4564760000000  0.4618460000000 1.0
C      1  0.5877230000000  0.4671520000000  0.4660440000000 1.0
C      1  0.4665020000000  0.5201570000000  0.4888940000000 1.0
C      1  0.5635700000000  0.4743950000000  0.5113230000000 1.0
C      1  0.4286800000000  0.4379280000000  0.4858340000000 1.0
C      1  0.4388980000000  0.4181410000000  0.4441910000000 1.0
C      1  0.5556930000000  0.5967160000000  0.5094750000000 1.0
C      1  0.5102160000000  0.4597750000000  0.3888000000000 1.0
C      1  0.4228820000000  0.4079470000000  0.5187730000000 1.0
C      1  0.4827310000000  0.4657270000000  0.4445310000000 1.0
C      1  0.6071830000000  0.5125940000000  0.5112680000000 1.0
C      1  0.4505420000000  0.4963120000000  0.5434580000000 1.0
C      1  0.5369610000000  0.4830500000000  0.5054460000000 1.0
C      1  0.4620490000000  0.4111450000000  0.5535740000000 1.0
C      1  0.5689860000000  0.5760890000000  0.4629760000000 1.0
C      1  0.4734100000000  0.5135050000000  0.4406750000000 1.0
C      1  0.5058460000000  0.3893510000000  0.5444800000000 1.0
C      1  0.4181710000000  0.5354260000000  0.5464860000000 1.0
C      1  0.4650640000000  0.4871690000000  0.4498680000000 1.0
C      1  0.4458230000000  0.5948720000000  0.5152800000000 1.0
C      1  0.5128390000000  0.4281480000000  0.5740510000000 1.0
C      1  0.4996820000000  0.6010100000000  0.4387560000000 1.0
C      1  0.4664390000000  0.3889350000000  0.5073100000000 1.0
C      1  0.4751370000000  0.4346330000000  0.5681800000000 1.0
C      1  0.4012900000000  0.4616210000000  0.4686680000000 1.0
C      1  0.4245370000000  0.4828780000000  0.5444630000000 1.0
C      1  0.5671230000000  0.5953680000000  0.5340090000000 1.0
C      1  0.5054640000000  0.5836460000000  0.4822190000000 1.0
C      1  0.4188620000000  0.5089500000000  0.5898150000000 1.0
C      1  0.4828680000000  0.6076110000000  0.5274420000000 1.0
C      1  0.4521030000000  0.4531320000000  0.5005140000000 1.0
C      1  0.4438390000000  0.5223340000000  0.5328210000000 1.0
C      1  0.4005660000000  0.4457300000000  0.4937940000000 1.0
C      1  0.5593400000000  0.5375820000000  0.5609130000000 1.0
C      1  0.4022620000000  0.5436470000000  0.4841160000000 1.0
C      1  0.5566770000000  0.4259530000000  0.5601710000000 1.0
C      1  0.4164970000000  0.5101980000000  0.4469700000000 1.0
C      1  0.5217150000000  0.5011260000000  0.4620020000000 1.0
C      1  0.4644220000000  0.4961190000000  0.6067210000000 1.0
C      1  0.5458800000000  0.5952330000000  0.4614180000000 1.0
C      1  0.4056880000000  0.4984730000000  0.4948910000000 1.0
C      1  0.4979680000000  0.4329080000000  0.5142770000000 1.0
C      1  0.6048760000000  0.5339930000000  0.5586860000000 1.0
C      1  0.5720840000000  0.4710470000000  0.5616600000000 1.0
C      1  0.5209700000000  0.5358650000000  0.3970400000000 1.0
C      1  0.5832210000000  0.5822420000000  0.5519670000000 1.0
C      1  0.5221940000000  0.6115900000000  0.4561560000000 1.0
C      1  0.4839050000000  0.6033060000000  0.5567330000000 1.0
C      1  0.5890010000000  0.4969480000000  0.5607140000000 1.0
C      1  0.5262450000000  0.4313070000000  0.4527170000000 1.0
C      1  0.4244650000000  0.5776480000000  0.5134290000000 1.0
C      1  0.4806590000000  0.4787940000000  0.5902450000000 1.0
C      1  0.6189890000000  0.4351710000000  0.5250430000000 1.0
C      1  0.5023320000000  0.4933630000000  0.5410770000000 1.0
C      1  0.5420000000000  0.5241410000000  0.4731780000000 1.0
C      1  0.4361820000000  0.5123920000000  0.4247080000000 1.0
C      1  0.5322760000000  0.3988280000000  0.5009600000000 1.0
C      1  0.5042860000000  0.6116350000000  0.4790030000000 1.0
C      1  0.4854710000000  0.5364770000000  0.5873290000000 1.0
C      1  0.5430100000000  0.4395140000000  0.4984630000000 1.0
C      1  0.5709650000000  0.5395690000000  0.4236910000000 1.0
C      1  0.5323490000000  0.4436120000000  0.5559980000000 1.0
C      1  0.5425940000000  0.5184090000000  0.5459940000000 1.0
C      1  0.5931310000000  0.4350260000000  0.5261830000000 1.0
C      1  0.4864170000000  0.4732240000000  0.3987230000000 1.0
C      1  0.5569850000000  0.4140410000000  0.4974120000000 1.0
C      1  0.5828820000000  0.5225630000000  0.5728930000000 1.0
C      1  0.4261400000000  0.5336230000000  0.5773380000000 1.0
C      1  0.5386460000000  0.5545710000000  0.5804510000000 1.0
C      1  0.5104560000000  0.5439470000000  0.4408240000000 1.0
C      1  0.4549420000000  0.4987320000000  0.4052980000000 1.0
C      1  0.4643990000000  0.5648250000000  0.4594280000000 1.0
C      1  0.4334450000000  0.5712660000000  0.5619270000000 1.0
C      1  0.4978440000000  0.5438500000000  0.4950670000000 1.0
C      1  0.6064290000000  0.5105400000000  0.5413900000000 1.0
C      1  0.5267480000000  0.4843390000000  0.3929920000000 1.0
C      1  0.5060420000000  0.4129560000000  0.4906850000000 1.0
C      1  0.4158630000000  0.5371900000000  0.4591840000000 1.0
C      1  0.4353790000000  0.4114020000000  0.4720980000000 1.0
C      1  0.5316130000000  0.5481930000000  0.4583690000000 1.0
C      1  0.4698590000000  0.5910590000000  0.4480060000000 1.0
C      1  0.4468680000000  0.4464880000000  0.4056120000000 1.0
C      1  0.4290020000000  0.5545210000000  0.4953180000000 1.0
C      1  0.3904370000000  0.5238670000000  0.5019390000000 1.0
C      1  0.4998730000000  0.4775610000000  0.4246070000000 1.0
C      1  0.4729040000000  0.5798670000000  0.5169020000000 1.0
C      1  0.6056230000000  0.5116820000000  0.4533530000000 1.0
C      1  0.5754240000000  0.4104640000000  0.5198940000000 1.0
C      1  0.5053760000000  0.5203690000000  0.6006630000000 1.0
C      1  0.4730880000000  0.4431550000000  0.5225560000000 1.0
C      1  0.4034900000000  0.4908810000000  0.4665910000000 1.0
C      1  0.4535910000000  0.6038910000000  0.4658860000000 1.0
C      1  0.4202370000000  0.4408290000000  0.4395470000000 1.0
C      1  0.5233600000000  0.4714170000000  0.5958520000000 1.0
C      1  0.5160930000000  0.4754670000000  0.5227820000000 1.0
C      1  0.5113310000000  0.3970190000000  0.5719200000000 1.0
C      1  0.4813230000000  0.4396070000000  0.4581950000000 1.0
C      1  0.5197060000000  0.4788090000000  0.4817630000000 1.0
C      1  0.5095450000000  0.5101120000000  0.3923820000000 1.0
C      1  0.5794910000000  0.5017670000000  0.4469260000000 1.0
C      1  0.5065530000000  0.6127970000000  0.5091500000000 1.0
C      1  0.6110460000000  0.4863970000000  0.4660070000000 1.0
C      1  0.5308570000000  0.5370830000000  0.6023660000000 1.0
C      1  0.5788170000000  0.4412070000000  0.5714640000000 1.0
C      1  0.3965090000000  0.5191170000000  0.5304560000000 1.0
C      1  0.4720690000000  0.4547570000000  0.5489330000000 1.0
END
