TITL C-883740-3686-23 -1679184.65354568 125000 -15215.2059779593 0 0 104 (C1) n - 1
REM
REM in /home/nfs/bkarasulu/CARBON/AIRSS/Generating-Clusters/ReaxFF-fromJPCA2015/Units_Real/with-SteepDescent/Only-C1/SD-CG/Try1-3A/FIRE-CG
REM
REM
REM
REM
REM
REM ./C.cell (11c1c37f851c82e70ff6c80c92926a4b)
REM
REM compiler GCC version 9.2.1 20190827 (Red Hat 9.2.1-1)
REM options -cpp -mtune=generic -march=x86-64 -g -O0 -fpre-include=/usr/include/finclude/math-vector-fortran.h
REM seed -988656628 876797490 1402605839 -1499355653 -318893731 712382213 -401368478 1911646215 -1002107678 9020499 -700996113 1820695817 -535040775 -1210043098 -1764701878 -438703057 1249891895 915287088 -49904871 640307773 -710078992 210800978 180315772 204171849 585629919 -1751453123 -46477566 1830046910 -1214245363 -472713611 497761976 1309819468 1796824497
REM
CELL 1.54180   50.00000   50.00000   50.00000   90.00000   90.00000   90.00000
LATT -1
SFAC C  
C      1  0.4399250000000  0.4976470000000  0.5535290000000 1.0
C      1  0.4307830000000  0.5465640000000  0.5294500000000 1.0
C      1  0.4942660000000  0.4771410000000  0.4267520000000 1.0
C      1  0.5683830000000  0.4575990000000  0.4512010000000 1.0
C      1  0.5264890000000  0.4147630000000  0.5349700000000 1.0
C      1  0.5615210000000  0.5498600000000  0.5243000000000 1.0
C      1  0.4547120000000  0.4414270000000  0.5455980000000 1.0
C      1  0.4784080000000  0.4258130000000  0.5450200000000 1.0
C      1  0.5432090000000  0.5217010000000  0.5619430000000 1.0
C      1  0.5295770000000  0.4582730000000  0.5602250000000 1.0
C      1  0.5473570000000  0.5484120000000  0.5509220000000 1.0
C      1  0.5354260000000  0.5042690000000  0.5401030000000 1.0
C      1  0.4892090000000  0.4920370000000  0.5420780000000 1.0
C      1  0.5161940000000  0.4404530000000  0.4481010000000 1.0
C      1  0.4981240000000  0.4245260000000  0.5209800000000 1.0
C      1  0.5397880000000  0.4738660000000  0.4186730000000 1.0
C      1  0.4462170000000  0.4445960000000  0.4847030000000 1.0
C      1  0.5220400000000  0.5177380000000  0.5842850000000 1.0
C      1  0.5346080000000  0.5168460000000  0.4822730000000 1.0
C      1  0.5475190000000  0.4771650000000  0.5455540000000 1.0
C      1  0.5754020000000  0.4684750000000  0.5378890000000 1.0
C      1  0.5274360000000  0.5672570000000  0.5003570000000 1.0
C      1  0.5010830000000  0.4554830000000  0.5149350000000 1.0
C      1  0.4269540000000  0.5418170000000  0.5591010000000 1.0
C      1  0.4819950000000  0.5738840000000  0.4371590000000 1.0
C      1  0.4862430000000  0.4776960000000  0.5992370000000 1.0
C      1  0.4405110000000  0.5079720000000  0.5060080000000 1.0
C      1  0.4745260000000  0.5275560000000  0.5766990000000 1.0
C      1  0.5801310000000  0.4974670000000  0.4483090000000 1.0
C      1  0.4659540000000  0.4973180000000  0.5917270000000 1.0
C      1  0.4783150000000  0.4714170000000  0.5207980000000 1.0
C      1  0.4626500000000  0.4202320000000  0.4865280000000 1.0
C      1  0.4915770000000  0.4485190000000  0.4338270000000 1.0
C      1  0.5027400000000  0.5753320000000  0.4586070000000 1.0
C      1  0.5091490000000  0.5091370000000  0.5267650000000 1.0
C      1  0.5023180000000  0.4412670000000  0.4745340000000 1.0
C      1  0.4154090000000  0.5236950000000  0.4638140000000 1.0
C      1  0.5794550000000  0.5015980000000  0.5021800000000 1.0
C      1  0.5407730000000  0.5026330000000  0.4285410000000 1.0
C      1  0.5137940000000  0.4775790000000  0.4048860000000 1.0
C      1  0.4938960000000  0.4312590000000  0.5691860000000 1.0
C      1  0.5119020000000  0.4901970000000  0.5900370000000 1.0
C      1  0.5414630000000  0.4525970000000  0.4383900000000 1.0
C      1  0.4891040000000  0.5635990000000  0.4828370000000 1.0
C      1  0.5483200000000  0.4603740000000  0.4987730000000 1.0
C      1  0.4432960000000  0.5325800000000  0.4576380000000 1.0
C      1  0.4566780000000  0.4682430000000  0.4722830000000 1.0
C      1  0.4542010000000  0.5116940000000  0.4398020000000 1.0
C      1  0.4372160000000  0.5673860000000  0.4955740000000 1.0
C      1  0.4661870000000  0.5238450000000  0.4162640000000 1.0
C      1  0.4383280000000  0.4856030000000  0.5250160000000 1.0
C      1  0.4159240000000  0.5208440000000  0.4938560000000 1.0
C      1  0.4889170000000  0.5811900000000  0.5084320000000 1.0
C      1  0.5658420000000  0.4847900000000  0.4618100000000 1.0
C      1  0.5300170000000  0.5442280000000  0.4373300000000 1.0
C      1  0.5462700000000  0.4295130000000  0.4946790000000 1.0
C      1  0.4163700000000  0.5478650000000  0.5045820000000 1.0
C      1  0.4545990000000  0.4532210000000  0.5728420000000 1.0
C      1  0.5551440000000  0.5575470000000  0.4677850000000 1.0
C      1  0.5605100000000  0.5187950000000  0.4944140000000 1.0
C      1  0.4639020000000  0.5516350000000  0.4267230000000 1.0
C      1  0.5070440000000  0.5262870000000  0.4435720000000 1.0
C      1  0.5099810000000  0.5437500000000  0.4933970000000 1.0
C      1  0.4910220000000  0.5341610000000  0.5153970000000 1.0
C      1  0.5220140000000  0.4696890000000  0.5023140000000 1.0
C      1  0.5042470000000  0.5383390000000  0.5782580000000 1.0
C      1  0.4981850000000  0.4989540000000  0.4473030000000 1.0
C      1  0.4459860000000  0.4614860000000  0.4260850000000 1.0
C      1  0.4468130000000  0.4809510000000  0.5785410000000 1.0
C      1  0.5083910000000  0.4776820000000  0.5644150000000 1.0
C      1  0.4799980000000  0.4508660000000  0.5861440000000 1.0
C      1  0.5164590000000  0.5060840000000  0.4045150000000 1.0
C      1  0.4907840000000  0.4204440000000  0.4916530000000 1.0
C      1  0.5153350000000  0.4989230000000  0.4964020000000 1.0
C      1  0.4592710000000  0.5303860000000  0.5063380000000 1.0
C      1  0.5219630000000  0.4301780000000  0.5599080000000 1.0
C      1  0.5752710000000  0.5252170000000  0.5178440000000 1.0
C      1  0.5153820000000  0.5883390000000  0.5192260000000 1.0
C      1  0.4504730000000  0.4284260000000  0.4614730000000 1.0
C      1  0.5684800000000  0.5175690000000  0.4318940000000 1.0
C      1  0.4849520000000  0.5607440000000  0.5285120000000 1.0
C      1  0.4424120000000  0.5722040000000  0.5243930000000 1.0
C      1  0.5195570000000  0.5781570000000  0.5449230000000 1.0
C      1  0.4511370000000  0.4593350000000  0.5208830000000 1.0
C      1  0.5048000000000  0.5440030000000  0.4208270000000 1.0
C      1  0.5406050000000  0.4990470000000  0.4590740000000 1.0
C      1  0.4548510000000  0.5490190000000  0.5673260000000 1.0
C      1  0.4571100000000  0.5489980000000  0.4829830000000 1.0
C      1  0.5768420000000  0.4360120000000  0.4684110000000 1.0
C      1  0.5722200000000  0.4202610000000  0.4881260000000 1.0
C      1  0.4963450000000  0.4918840000000  0.4748710000000 1.0
C      1  0.5479700000000  0.4135340000000  0.5177880000000 1.0
C      1  0.5308080000000  0.5680640000000  0.4536960000000 1.0
C      1  0.5223600000000  0.5594580000000  0.5651580000000 1.0
C      1  0.4933520000000  0.5232710000000  0.4034480000000 1.0
C      1  0.4151230000000  0.5164570000000  0.5645180000000 1.0
C      1  0.4633440000000  0.4392820000000  0.4370870000000 1.0
C      1  0.5731320000000  0.4733040000000  0.5082110000000 1.0
C      1  0.4624050000000  0.5665560000000  0.5454970000000 1.0
C      1  0.5677740000000  0.5367000000000  0.4526170000000 1.0
C      1  0.5557050000000  0.5628120000000  0.4987710000000 1.0
C      1  0.4849730000000  0.4658860000000  0.4773160000000 1.0
C      1  0.4681400000000  0.5108250000000  0.5528490000000 1.0
C      1  0.4487260000000  0.4824230000000  0.4472200000000 1.0
END
