TITL C-884141-4321-288 4.77486199183494 125000 -19378.9102901351 0 0 132 (C1) n - 1
REM
REM in /home/nfs/bkarasulu/CARBON/AIRSS/Generating-Clusters/ReaxFF-fromJPCA2015/Units_Real/with-SteepDescent/Only-C1/SD-CG/Try1-3A/FIRE-CG
REM
REM
REM
REM
REM
REM ./C.cell (11c1c37f851c82e70ff6c80c92926a4b)
REM
REM compiler GCC version 9.2.1 20190827 (Red Hat 9.2.1-1)
REM options -cpp -mtune=generic -march=x86-64 -g -O0 -fpre-include=/usr/include/finclude/math-vector-fortran.h
REM seed 1713887053 -255498052 -214436656 917932925 -876785682 322748227 -48495067 -1933090008 -1070960033 -105091785 1324624836 -1270099152 1304473013 -1876998831 54419620 -194044939 -714377934 1677552198 -637579354 656927601 -1281175975 2061096591 2100438923 977440115 -1546480553 -1462255771 975719152 221847040 -657053934 1867920227 -611339672 -1360087095 -1693428276
REM
CELL 1.54180   50.00000   50.00000   50.00000   90.00000   90.00000   90.00000
LATT -1
SFAC C  
C      1  0.5814850000000  0.4425320000000  0.5506540000000 1.0
C      1  0.5028500000000  0.4272610000000  0.5595380000000 1.0
C      1  0.4029420000000  0.4889540000000  0.4859530000000 1.0
C      1  0.5784850000000  0.4251800000000  0.5265140000000 1.0
C      1  0.4725050000000  0.5354390000000  0.5261870000000 1.0
C      1  0.5559420000000  0.4318720000000  0.4504740000000 1.0
C      1  0.5119370000000  0.4319900000000  0.4213960000000 1.0
C      1  0.5343940000000  0.6172550000000  0.5617950000000 1.0
C      1  0.4174460000000  0.4894490000000  0.4388710000000 1.0
C      1  0.4721330000000  0.4883480000000  0.5410920000000 1.0
C      1  0.5361040000000  0.5391120000000  0.4204240000000 1.0
C      1  0.5421130000000  0.4955680000000  0.5332680000000 1.0
C      1  0.4826530000000  0.5135310000000  0.4690200000000 1.0
C      1  0.4484020000000  0.5777560000000  0.5372550000000 1.0
C      1  0.5795000000000  0.5365060000000  0.4871900000000 1.0
C      1  0.4538310000000  0.4125030000000  0.5010430000000 1.0
C      1  0.5412920000000  0.5038540000000  0.5970980000000 1.0
C      1  0.4518520000000  0.4718080000000  0.4696980000000 1.0
C      1  0.4396630000000  0.5192990000000  0.4634350000000 1.0
C      1  0.5374340000000  0.4647350000000  0.4144300000000 1.0
C      1  0.4211210000000  0.5235640000000  0.5158580000000 1.0
C      1  0.5077600000000  0.4731830000000  0.5141570000000 1.0
C      1  0.4471660000000  0.4331390000000  0.5213640000000 1.0
C      1  0.4304950000000  0.4819660000000  0.5595660000000 1.0
C      1  0.5295000000000  0.5670620000000  0.4984240000000 1.0
C      1  0.5599540000000  0.5349490000000  0.4373670000000 1.0
C      1  0.5716870000000  0.4947030000000  0.5499890000000 1.0
C      1  0.4926090000000  0.5574220000000  0.5764830000000 1.0
C      1  0.4747700000000  0.5397180000000  0.5911550000000 1.0
C      1  0.5417800000000  0.4105750000000  0.4845610000000 1.0
C      1  0.4784430000000  0.4966990000000  0.5681080000000 1.0
C      1  0.5901900000000  0.4660490000000  0.5117940000000 1.0
C      1  0.4970280000000  0.5071420000000  0.4233160000000 1.0
C      1  0.4317430000000  0.4654470000000  0.4494210000000 1.0
C      1  0.4940820000000  0.5182110000000  0.6013170000000 1.0
C      1  0.5537690000000  0.4585110000000  0.4382480000000 1.0
C      1  0.4568080000000  0.4247010000000  0.4739280000000 1.0
C      1  0.4053000000000  0.5352560000000  0.4974880000000 1.0
C      1  0.5025480000000  0.5110440000000  0.5740250000000 1.0
C      1  0.5341900000000  0.4685100000000  0.5759510000000 1.0
C      1  0.5783050000000  0.4967640000000  0.4598300000000 1.0
C      1  0.5111330000000  0.5383720000000  0.5600270000000 1.0
C      1  0.5165960000000  0.5415540000000  0.4936920000000 1.0
C      1  0.4511270000000  0.5340650000000  0.5751980000000 1.0
C      1  0.4951610000000  0.5826650000000  0.4692310000000 1.0
C      1  0.5482460000000  0.5728510000000  0.4605550000000 1.0
C      1  0.4635360000000  0.4288680000000  0.4448620000000 1.0
C      1  0.5302350000000  0.4392070000000  0.5425340000000 1.0
C      1  0.4233620000000  0.5312260000000  0.5439420000000 1.0
C      1  0.4360710000000  0.4926430000000  0.4184160000000 1.0
C      1  0.5215420000000  0.5163830000000  0.6085070000000 1.0
C      1  0.4892850000000  0.5386290000000  0.4811590000000 1.0
C      1  0.5463650000000  0.4936350000000  0.4164870000000 1.0
C      1  0.5327770000000  0.4698900000000  0.5483500000000 1.0
C      1  0.5237910000000  0.5909970000000  0.5102420000000 1.0
C      1  0.4530220000000  0.4340770000000  0.5500610000000 1.0
C      1  0.4901570000000  0.5843850000000  0.5670340000000 1.0
C      1  0.4894380000000  0.4182770000000  0.4364490000000 1.0
C      1  0.5856770000000  0.5107650000000  0.5288750000000 1.0
C      1  0.5311790000000  0.4198470000000  0.4406830000000 1.0
C      1  0.4482220000000  0.5488730000000  0.5463220000000 1.0
C      1  0.5672820000000  0.5504550000000  0.4625260000000 1.0
C      1  0.4700770000000  0.4507660000000  0.4804060000000 1.0
C      1  0.5917790000000  0.5105700000000  0.4813720000000 1.0
C      1  0.4772170000000  0.4180300000000  0.5475170000000 1.0
C      1  0.4190810000000  0.4811140000000  0.5073790000000 1.0
C      1  0.5589910000000  0.5546420000000  0.5315810000000 1.0
C      1  0.4337270000000  0.5134280000000  0.5645190000000 1.0
C      1  0.4729590000000  0.5916560000000  0.5448460000000 1.0
C      1  0.5423800000000  0.4649960000000  0.4791340000000 1.0
C      1  0.4905930000000  0.5492050000000  0.4118720000000 1.0
C      1  0.5347140000000  0.4751760000000  0.4551460000000 1.0
C      1  0.5002170000000  0.5350470000000  0.5345230000000 1.0
C      1  0.4649490000000  0.4735700000000  0.5839510000000 1.0
C      1  0.5859430000000  0.4699590000000  0.5407420000000 1.0
C      1  0.4721010000000  0.3998410000000  0.5211110000000 1.0
C      1  0.4579700000000  0.4771100000000  0.4122990000000 1.0
C      1  0.4982580000000  0.5934300000000  0.4959230000000 1.0
C      1  0.4523940000000  0.4540100000000  0.4319030000000 1.0
C      1  0.4432150000000  0.5410510000000  0.4821530000000 1.0
C      1  0.4673960000000  0.5454370000000  0.4976260000000 1.0
C      1  0.4568170000000  0.5365060000000  0.4368900000000 1.0
C      1  0.5197270000000  0.5964810000000  0.5711290000000 1.0
C      1  0.5643670000000  0.4261620000000  0.4795720000000 1.0
C      1  0.4285710000000  0.5628810000000  0.4668520000000 1.0
C      1  0.4044480000000  0.5389490000000  0.4702870000000 1.0
C      1  0.4439730000000  0.5852310000000  0.4809480000000 1.0
C      1  0.5204310000000  0.4560770000000  0.4945750000000 1.0
C      1  0.4738710000000  0.5022040000000  0.4063870000000 1.0
C      1  0.5098860000000  0.4606530000000  0.4225420000000 1.0
C      1  0.5947620000000  0.4945110000000  0.5064940000000 1.0
C      1  0.4430220000000  0.5023980000000  0.5059520000000 1.0
C      1  0.4133080000000  0.4758400000000  0.5367130000000 1.0
C      1  0.5663620000000  0.5068020000000  0.4352940000000 1.0
C      1  0.4691180000000  0.5060810000000  0.5196720000000 1.0
C      1  0.5279030000000  0.5378130000000  0.4669650000000 1.0
C      1  0.4667530000000  0.5817850000000  0.4622440000000 1.0
C      1  0.4992340000000  0.4277040000000  0.5131540000000 1.0
C      1  0.4748470000000  0.4450890000000  0.5129150000000 1.0
C      1  0.4763320000000  0.5993020000000  0.5152590000000 1.0
C      1  0.5181380000000  0.5671910000000  0.4536390000000 1.0
C      1  0.4839090000000  0.5245700000000  0.4437990000000 1.0
C      1  0.5249770000000  0.5130010000000  0.4135490000000 1.0
C      1  0.4997850000000  0.4473250000000  0.4707630000000 1.0
C      1  0.5577290000000  0.4267290000000  0.5470070000000 1.0
C      1  0.5062320000000  0.4680240000000  0.4512910000000 1.0
C      1  0.4495300000000  0.5896000000000  0.5093170000000 1.0
C      1  0.5265390000000  0.5111650000000  0.4611050000000 1.0
C      1  0.5392750000000  0.5772970000000  0.5604770000000 1.0
C      1  0.5412240000000  0.5510490000000  0.5550440000000 1.0
C      1  0.5520660000000  0.4911030000000  0.5074810000000 1.0
C      1  0.5166920000000  0.3988000000000  0.4850820000000 1.0
C      1  0.5754300000000  0.5356000000000  0.5161460000000 1.0
C      1  0.5106120000000  0.4452760000000  0.5808010000000 1.0
C      1  0.5807090000000  0.4396790000000  0.5013560000000 1.0
C      1  0.5144500000000  0.5588130000000  0.4232890000000 1.0
C      1  0.4851710000000  0.4539770000000  0.5851160000000 1.0
C      1  0.5245520000000  0.4367480000000  0.5139820000000 1.0
C      1  0.5548750000000  0.4886390000000  0.5791980000000 1.0
C      1  0.5487460000000  0.5762030000000  0.5139650000000 1.0
C      1  0.4502970000000  0.5642160000000  0.4454580000000 1.0
C      1  0.4857450000000  0.4659210000000  0.5299740000000 1.0
C      1  0.5052690000000  0.4957890000000  0.4718930000000 1.0
C      1  0.4539240000000  0.4989770000000  0.4772220000000 1.0
C      1  0.5080370000000  0.4168370000000  0.4606120000000 1.0
C      1  0.4462920000000  0.4583240000000  0.5671780000000 1.0
C      1  0.4999460000000  0.4991230000000  0.5047150000000 1.0
C      1  0.4989210000000  0.3991120000000  0.5092350000000 1.0
C      1  0.5621350000000  0.4835240000000  0.4825630000000 1.0
C      1  0.4677570000000  0.5325100000000  0.4075440000000 1.0
C      1  0.5176480000000  0.5189990000000  0.5183890000000 1.0
C      1  0.4092830000000  0.5091390000000  0.4621230000000 1.0
END
