TITL C-883736-9678-145 -1.97046106196687 125000 -7020.24696071266 0 0 49 (C1) n - 1
REM
REM in /home/nfs/bkarasulu/CARBON/AIRSS/Generating-Clusters/ReaxFF-fromJPCA2015/Units_Real/with-SteepDescent/Only-C1/SD-CG/Try1-3A/FIRE-CG
REM
REM
REM
REM
REM
REM ./C.cell (11c1c37f851c82e70ff6c80c92926a4b)
REM
REM compiler GCC version 9.2.1 20190827 (Red Hat 9.2.1-1)
REM options -cpp -mtune=generic -march=x86-64 -g -O0 -fpre-include=/usr/include/finclude/math-vector-fortran.h
REM seed 1588003228 1199396936 -779926083 1439791528 -555675776 2140412447 1920675651 980649206 -224655709 -504125454 702738083 799493683 -1432960359 1342283869 900551472 -169507242 -993522176 -1272763807 1564187357 819002488 1864162469 1804756937 -1020001710 -397525052 428846686 -1990643913 2030937750 1621333143 1641641520 -2048575410 -353289451 -1126305118 1958042664
REM
CELL 1.54180   50.00000   50.00000   50.00000   90.00000   90.00000   90.00000
LATT -1
SFAC C  
C      1  0.4756320000000  0.5052030000000  0.4906050000000 1.0
C      1  0.4875690000000  0.4924370000000  0.5132020000000 1.0
C      1  0.4429830000000  0.5311370000000  0.4836100000000 1.0
C      1  0.5402700000000  0.4984090000000  0.5347450000000 1.0
C      1  0.4848810000000  0.5418080000000  0.4468560000000 1.0
C      1  0.4523600000000  0.5045100000000  0.5471170000000 1.0
C      1  0.4411580000000  0.5342110000000  0.5131330000000 1.0
C      1  0.5119240000000  0.5545250000000  0.4505760000000 1.0
C      1  0.5207600000000  0.4920510000000  0.4872180000000 1.0
C      1  0.4339730000000  0.4870720000000  0.5056560000000 1.0
C      1  0.5395550000000  0.4497550000000  0.4892130000000 1.0
C      1  0.5191830000000  0.5346670000000  0.5476500000000 1.0
C      1  0.5468460000000  0.5169180000000  0.4469420000000 1.0
C      1  0.4994070000000  0.5180400000000  0.5608660000000 1.0
C      1  0.5011740000000  0.4727460000000  0.4776370000000 1.0
C      1  0.5534910000000  0.5386680000000  0.5111820000000 1.0
C      1  0.5326060000000  0.4796350000000  0.5546710000000 1.0
C      1  0.4954800000000  0.4691270000000  0.4486360000000 1.0
C      1  0.5018310000000  0.4399760000000  0.4520610000000 1.0
C      1  0.5364080000000  0.4926240000000  0.4331500000000 1.0
C      1  0.4598290000000  0.4344170000000  0.5144260000000 1.0
C      1  0.4980610000000  0.5190700000000  0.4320870000000 1.0
C      1  0.5100690000000  0.5339190000000  0.5223180000000 1.0
C      1  0.5384190000000  0.4482500000000  0.5166050000000 1.0
C      1  0.5094820000000  0.4440450000000  0.4824400000000 1.0
C      1  0.5153760000000  0.5050840000000  0.5153390000000 1.0
C      1  0.5402430000000  0.5589700000000  0.4980140000000 1.0
C      1  0.5065350000000  0.4895200000000  0.5641660000000 1.0
C      1  0.5070300000000  0.4910860000000  0.4322080000000 1.0
C      1  0.4466820000000  0.5018670000000  0.4844870000000 1.0
C      1  0.4331150000000  0.5087580000000  0.5251660000000 1.0
C      1  0.4877000000000  0.5461150000000  0.5139660000000 1.0
C      1  0.4897210000000  0.4366730000000  0.5108420000000 1.0
C      1  0.4462750000000  0.4618050000000  0.5175060000000 1.0
C      1  0.5462270000000  0.5266780000000  0.5377090000000 1.0
C      1  0.5237690000000  0.5324250000000  0.4361160000000 1.0
C      1  0.5474490000000  0.5362780000000  0.4828210000000 1.0
C      1  0.5456090000000  0.4781530000000  0.4812070000000 1.0
C      1  0.4892600000000  0.4681380000000  0.5534200000000 1.0
C      1  0.5303850000000  0.4511100000000  0.5431380000000 1.0
C      1  0.4688800000000  0.4815490000000  0.5353650000000 1.0
C      1  0.5543350000000  0.4893030000000  0.4556370000000 1.0
C      1  0.4850380000000  0.5337270000000  0.4874960000000 1.0
C      1  0.4637120000000  0.5421250000000  0.5305280000000 1.0
C      1  0.4652910000000  0.5441830000000  0.4689680000000 1.0
C      1  0.4714520000000  0.5251520000000  0.5536430000000 1.0
C      1  0.5017950000000  0.4471150000000  0.5384540000000 1.0
C      1  0.5327390000000  0.5582290000000  0.4709220000000 1.0
C      1  0.4680310000000  0.4527390000000  0.5002780000000 1.0
END
