TITL C-884135-4325-129 4.76143967613102 125000 -19855.4257691917 0 0 133 (C1) n - 1
REM
REM in /home/nfs/bkarasulu/CARBON/AIRSS/Generating-Clusters/ReaxFF-fromJPCA2015/Units_Real/with-SteepDescent/Only-C1/SD-CG/Try1-3A/FIRE-CG
REM
REM
REM
REM
REM
REM ./C.cell (11c1c37f851c82e70ff6c80c92926a4b)
REM
REM compiler GCC version 9.2.1 20190827 (Red Hat 9.2.1-1)
REM options -cpp -mtune=generic -march=x86-64 -g -O0 -fpre-include=/usr/include/finclude/math-vector-fortran.h
REM seed 1425399451 2076450300 546332191 -77417804 -22576057 970026723 -14401055 1478249999 -1812103006 -1251284040 702893652 133059730 -875893483 1081556724 284144857 1903755905 -1271685032 -939827424 -1001738159 649632232 -962821572 1740258931 -157525346 -867215465 -1996929776 -1943993715 1445490437 -1912424116 239102020 -1988526690 -527182492 -838346396 1479021193
REM
CELL 1.54180   50.00000   50.00000   50.00000   90.00000   90.00000   90.00000
LATT -1
SFAC C  
C      1  0.4310270000000  0.5564670000000  0.5559500000000 1.0
C      1  0.4976300000000  0.5895320000000  0.5367030000000 1.0
C      1  0.4480890000000  0.4433870000000  0.4627900000000 1.0
C      1  0.5872330000000  0.4529790000000  0.4879310000000 1.0
C      1  0.4037830000000  0.4811970000000  0.4568670000000 1.0
C      1  0.5217830000000  0.4859540000000  0.5512800000000 1.0
C      1  0.4880360000000  0.4926830000000  0.4332190000000 1.0
C      1  0.4640830000000  0.4636680000000  0.4568140000000 1.0
C      1  0.4214840000000  0.5003750000000  0.4430490000000 1.0
C      1  0.4164630000000  0.4688900000000  0.5351850000000 1.0
C      1  0.5723890000000  0.4724100000000  0.5499630000000 1.0
C      1  0.4815280000000  0.4108960000000  0.5126500000000 1.0
C      1  0.5119480000000  0.5468980000000  0.5202290000000 1.0
C      1  0.5513020000000  0.4144950000000  0.4728360000000 1.0
C      1  0.5702650000000  0.4677770000000  0.5080260000000 1.0
C      1  0.5352680000000  0.4055750000000  0.4987930000000 1.0
C      1  0.5885940000000  0.5161650000000  0.4809370000000 1.0
C      1  0.4159220000000  0.5314590000000  0.5604770000000 1.0
C      1  0.4883110000000  0.5250230000000  0.4619060000000 1.0
C      1  0.4592530000000  0.4817950000000  0.4074700000000 1.0
C      1  0.5564670000000  0.5595850000000  0.5588010000000 1.0
C      1  0.4863730000000  0.5335230000000  0.5555460000000 1.0
C      1  0.5647150000000  0.5294000000000  0.4947200000000 1.0
C      1  0.5401960000000  0.4182850000000  0.4465710000000 1.0
C      1  0.4942960000000  0.4382640000000  0.4309780000000 1.0
C      1  0.4175520000000  0.5314150000000  0.4866410000000 1.0
C      1  0.5206700000000  0.4581310000000  0.4608210000000 1.0
C      1  0.4745170000000  0.5761040000000  0.4661110000000 1.0
C      1  0.5706760000000  0.4697880000000  0.4330440000000 1.0
C      1  0.4744430000000  0.5059450000000  0.4789800000000 1.0
C      1  0.5016280000000  0.5026820000000  0.5141680000000 1.0
C      1  0.5084040000000  0.4909610000000  0.3908060000000 1.0
C      1  0.4724370000000  0.4893720000000  0.5893350000000 1.0
C      1  0.4988610000000  0.4764620000000  0.5027390000000 1.0
C      1  0.4846260000000  0.4793260000000  0.4763050000000 1.0
C      1  0.5481980000000  0.4026020000000  0.5242740000000 1.0
C      1  0.4607560000000  0.4188360000000  0.4665220000000 1.0
C      1  0.4389220000000  0.4328230000000  0.5073640000000 1.0
C      1  0.4584770000000  0.4145400000000  0.4956820000000 1.0
C      1  0.5441130000000  0.4655370000000  0.4256140000000 1.0
C      1  0.4383210000000  0.4526960000000  0.4865820000000 1.0
C      1  0.5459970000000  0.5229630000000  0.5782940000000 1.0
C      1  0.4301030000000  0.5819130000000  0.4912980000000 1.0
C      1  0.4886500000000  0.5408270000000  0.5037680000000 1.0
C      1  0.4588430000000  0.5626280000000  0.5653370000000 1.0
C      1  0.5312670000000  0.5669620000000  0.5737110000000 1.0
C      1  0.5066990000000  0.4459190000000  0.5387370000000 1.0
C      1  0.4409350000000  0.5425200000000  0.4412470000000 1.0
C      1  0.5685690000000  0.4165860000000  0.5425950000000 1.0
C      1  0.5593380000000  0.5309210000000  0.5524550000000 1.0
C      1  0.5532380000000  0.5754720000000  0.5128540000000 1.0
C      1  0.5786600000000  0.4440460000000  0.5458690000000 1.0
C      1  0.4666430000000  0.5238800000000  0.5366980000000 1.0
C      1  0.4043650000000  0.5329290000000  0.5327120000000 1.0
C      1  0.5683390000000  0.4389160000000  0.4708140000000 1.0
C      1  0.5653930000000  0.5713810000000  0.4481840000000 1.0
C      1  0.4753740000000  0.4618060000000  0.5721920000000 1.0
C      1  0.4282710000000  0.5067240000000  0.5716750000000 1.0
C      1  0.5494310000000  0.4625370000000  0.4666990000000 1.0
C      1  0.4339090000000  0.5535010000000  0.5023930000000 1.0
C      1  0.5503010000000  0.5816470000000  0.5402720000000 1.0
C      1  0.5270330000000  0.5430570000000  0.4231250000000 1.0
C      1  0.5434620000000  0.4965530000000  0.5891480000000 1.0
C      1  0.4360310000000  0.4456630000000  0.5339270000000 1.0
C      1  0.4378460000000  0.4975510000000  0.4183190000000 1.0
C      1  0.5728810000000  0.4905230000000  0.5274760000000 1.0
C      1  0.4811420000000  0.4997540000000  0.3937720000000 1.0
C      1  0.6034550000000  0.4720520000000  0.4730790000000 1.0
C      1  0.5243820000000  0.5081450000000  0.5335080000000 1.0
C      1  0.4981040000000  0.5470160000000  0.4118740000000 1.0
C      1  0.4962020000000  0.5025170000000  0.6010690000000 1.0
C      1  0.4970900000000  0.5930960000000  0.5066040000000 1.0
C      1  0.4750340000000  0.4630430000000  0.4291900000000 1.0
C      1  0.5456590000000  0.5221990000000  0.4175800000000 1.0
C      1  0.5728990000000  0.5575540000000  0.4996580000000 1.0
C      1  0.5358910000000  0.4488140000000  0.5785430000000 1.0
C      1  0.4515370000000  0.5258540000000  0.4177720000000 1.0
C      1  0.4984900000000  0.5313130000000  0.5958730000000 1.0
C      1  0.5187320000000  0.4576330000000  0.6009140000000 1.0
C      1  0.5446590000000  0.4666840000000  0.4954630000000 1.0
C      1  0.4963270000000  0.4732950000000  0.5487350000000 1.0
C      1  0.4772570000000  0.4969500000000  0.5302950000000 1.0
C      1  0.4570230000000  0.5675640000000  0.4433430000000 1.0
C      1  0.4528980000000  0.4904850000000  0.5173240000000 1.0
C      1  0.5213150000000  0.4875060000000  0.6047760000000 1.0
C      1  0.5201070000000  0.5831460000000  0.4911660000000 1.0
C      1  0.4226110000000  0.4859960000000  0.5537480000000 1.0
C      1  0.5059590000000  0.4018310000000  0.4977290000000 1.0
C      1  0.4187980000000  0.5580770000000  0.5290470000000 1.0
C      1  0.4511260000000  0.5043290000000  0.4927880000000 1.0
C      1  0.4811810000000  0.4293550000000  0.5355800000000 1.0
C      1  0.5235260000000  0.5851680000000  0.5515570000000 1.0
C      1  0.4243800000000  0.5259550000000  0.4584150000000 1.0
C      1  0.5354430000000  0.5543860000000  0.4503470000000 1.0
C      1  0.4794790000000  0.5610830000000  0.4275060000000 1.0
C      1  0.4348170000000  0.4810050000000  0.4960470000000 1.0
C      1  0.5095570000000  0.4823860000000  0.4656440000000 1.0
C      1  0.4046990000000  0.4855560000000  0.5090530000000 1.0
C      1  0.4965980000000  0.4480870000000  0.5861380000000 1.0
C      1  0.5407870000000  0.4120970000000  0.5504890000000 1.0
C      1  0.5446610000000  0.5279130000000  0.4662900000000 1.0
C      1  0.5055300000000  0.4134670000000  0.4708630000000 1.0
C      1  0.5443590000000  0.4748730000000  0.5668800000000 1.0
C      1  0.5325560000000  0.4925020000000  0.4098270000000 1.0
C      1  0.5301240000000  0.5641800000000  0.5071480000000 1.0
C      1  0.4917770000000  0.5533400000000  0.4730570000000 1.0
C      1  0.4549820000000  0.5103230000000  0.5843390000000 1.0
C      1  0.5859640000000  0.5091790000000  0.4522980000000 1.0
C      1  0.6090860000000  0.4963690000000  0.4901550000000 1.0
C      1  0.4778570000000  0.5286080000000  0.4008680000000 1.0
C      1  0.5185190000000  0.5096550000000  0.4601650000000 1.0
C      1  0.5239220000000  0.5417500000000  0.5867460000000 1.0
C      1  0.4723450000000  0.5368060000000  0.5822690000000 1.0
C      1  0.5727280000000  0.5650140000000  0.4733350000000 1.0
C      1  0.4058120000000  0.5164250000000  0.5079690000000 1.0
C      1  0.4715580000000  0.5150800000000  0.4398070000000 1.0
C      1  0.4767720000000  0.5769230000000  0.5507030000000 1.0
C      1  0.4747500000000  0.5944670000000  0.4888700000000 1.0
C      1  0.5609780000000  0.5209790000000  0.4429740000000 1.0
C      1  0.5139170000000  0.5017150000000  0.4315950000000 1.0
C      1  0.4848890000000  0.4184600000000  0.4497110000000 1.0
C      1  0.5244390000000  0.4402500000000  0.4309770000000 1.0
C      1  0.4601660000000  0.4433200000000  0.5488940000000 1.0
C      1  0.5582080000000  0.5162340000000  0.5263020000000 1.0
C      1  0.5152010000000  0.5687540000000  0.4664480000000 1.0
C      1  0.5113940000000  0.4395240000000  0.4812590000000 1.0
C      1  0.5129730000000  0.5326550000000  0.5450720000000 1.0
C      1  0.3927160000000  0.4746250000000  0.4833710000000 1.0
C      1  0.5233710000000  0.4327510000000  0.5595620000000 1.0
C      1  0.4625970000000  0.5416050000000  0.5140140000000 1.0
C      1  0.5186200000000  0.4542940000000  0.5062490000000 1.0
C      1  0.5929110000000  0.4813520000000  0.4465050000000 1.0
C      1  0.4465390000000  0.6053510000000  0.4963740000000 1.0
END
