TITL C-883727-9645-267 -2.62378094138961 125000 -6228.97247416646 0 0 43 (C1) n - 1
REM
REM in /home/nfs/bkarasulu/CARBON/AIRSS/Generating-Clusters/ReaxFF-fromJPCA2015/Units_Real/with-SteepDescent/Only-C1/SD-CG/Try1-3A/FIRE-CG
REM
REM
REM
REM
REM
REM ./C.cell (11c1c37f851c82e70ff6c80c92926a4b)
REM
REM compiler GCC version 9.2.1 20190827 (Red Hat 9.2.1-1)
REM options -cpp -mtune=generic -march=x86-64 -g -O0 -fpre-include=/usr/include/finclude/math-vector-fortran.h
REM seed 1863390909 699976506 -1277644948 1460750008 650910309 -1949531291 718391295 -1923629452 787685802 783788179 -1718101650 -1075289128 -1716179986 2044072607 712908868 -1121671765 -2018349598 -1681274710 638029923 1805531899 -1191414218 1977320612 1150813506 216777965 -324963237 -80081145 705526230 -1161847449 -2021520223 -1301866571 -1107224491 1414895144 -774356552
REM
CELL 1.54180   50.00000   50.00000   50.00000   90.00000   90.00000   90.00000
LATT -1
SFAC C  
C      1  0.5724370000000  0.5300470000000  0.4919680000000 1.0
C      1  0.4538690000000  0.5127900000000  0.5359530000000 1.0
C      1  0.4788230000000  0.5560310000000  0.5587080000000 1.0
C      1  0.4979170000000  0.4631200000000  0.4446000000000 1.0
C      1  0.4834990000000  0.5165660000000  0.5470450000000 1.0
C      1  0.4953330000000  0.4818430000000  0.5125540000000 1.0
C      1  0.5398960000000  0.4545450000000  0.4715790000000 1.0
C      1  0.4585710000000  0.5450400000000  0.4852330000000 1.0
C      1  0.4449610000000  0.4761860000000  0.5061790000000 1.0
C      1  0.5183220000000  0.4487820000000  0.5321850000000 1.0
C      1  0.4309420000000  0.5161470000000  0.5455590000000 1.0
C      1  0.5052880000000  0.5579490000000  0.4768600000000 1.0
C      1  0.4492220000000  0.5174420000000  0.4833980000000 1.0
C      1  0.5023810000000  0.4916570000000  0.4411210000000 1.0
C      1  0.5197850000000  0.4730770000000  0.5489590000000 1.0
C      1  0.4703700000000  0.5581300000000  0.5357210000000 1.0
C      1  0.5649930000000  0.4774030000000  0.5089560000000 1.0
C      1  0.5305860000000  0.5167030000000  0.5226710000000 1.0
C      1  0.5555650000000  0.4530230000000  0.4946450000000 1.0
C      1  0.4541370000000  0.4529670000000  0.5024680000000 1.0
C      1  0.4932540000000  0.4522320000000  0.5168870000000 1.0
C      1  0.5470970000000  0.4755970000000  0.5591510000000 1.0
C      1  0.5451450000000  0.4434300000000  0.5217120000000 1.0
C      1  0.4783560000000  0.4420620000000  0.4936900000000 1.0
C      1  0.5265540000000  0.5446300000000  0.5175620000000 1.0
C      1  0.5497490000000  0.5376230000000  0.4761390000000 1.0
C      1  0.5129730000000  0.5004580000000  0.4681330000000 1.0
C      1  0.5399030000000  0.5093850000000  0.4757200000000 1.0
C      1  0.5233600000000  0.4579400000000  0.4531900000000 1.0
C      1  0.4782420000000  0.5341810000000  0.4486470000000 1.0
C      1  0.4642350000000  0.5528420000000  0.5112690000000 1.0
C      1  0.4786320000000  0.4614500000000  0.4695610000000 1.0
C      1  0.4947900000000  0.4854030000000  0.4846740000000 1.0
C      1  0.4777550000000  0.5084620000000  0.4390760000000 1.0
C      1  0.5523250000000  0.5046210000000  0.5032940000000 1.0
C      1  0.5287850000000  0.5569060000000  0.4891240000000 1.0
C      1  0.5623560000000  0.4636910000000  0.5348160000000 1.0
C      1  0.4800760000000  0.5568940000000  0.4649850000000 1.0
C      1  0.4501220000000  0.4728720000000  0.4591080000000 1.0
C      1  0.4408200000000  0.5036850000000  0.5077880000000 1.0
C      1  0.5077250000000  0.4993300000000  0.5346630000000 1.0
C      1  0.4879310000000  0.5356200000000  0.5665750000000 1.0
C      1  0.4529210000000  0.5012370000000  0.4578760000000 1.0
END
