TITL C-884141-4321-89 6.0772491078184 125000 -10273.8971424693 0 0 70 (C1) n - 1
REM
REM in /home/nfs/bkarasulu/CARBON/AIRSS/Generating-Clusters/ReaxFF-fromJPCA2015/Units_Real/with-SteepDescent/Only-C1/SD-CG/Try1-3A/FIRE-CG
REM
REM
REM
REM
REM
REM ./C.cell (11c1c37f851c82e70ff6c80c92926a4b)
REM
REM compiler GCC version 9.2.1 20190827 (Red Hat 9.2.1-1)
REM options -cpp -mtune=generic -march=x86-64 -g -O0 -fpre-include=/usr/include/finclude/math-vector-fortran.h
REM seed -305477088 247535326 762716641 -1844401026 -2073529451 -1835716906 -1181666067 -224698553 -1285759767 -869638411 1445389185 1210188222 -310158849 -727518859 -1727577895 -304522045 759781984 960233371 -2087153765 973239961 -1152611329 -1110147211 -620243487 1629678665 -2133188940 -1077121917 2132727215 -189900996 1193914039 -2047258462 1819705133 -1408749889 -283344380
REM
CELL 1.54180   50.00000   50.00000   50.00000   90.00000   90.00000   90.00000
LATT -1
SFAC C  
C      1  0.4772990000000  0.5800710000000  0.5119330000000 1.0
C      1  0.5474920000000  0.5429860000000  0.4752070000000 1.0
C      1  0.5493540000000  0.5212610000000  0.4559490000000 1.0
C      1  0.5815690000000  0.4827710000000  0.4722050000000 1.0
C      1  0.4850260000000  0.5516300000000  0.4523760000000 1.0
C      1  0.5186160000000  0.5070470000000  0.4992880000000 1.0
C      1  0.5285650000000  0.4606240000000  0.4446070000000 1.0
C      1  0.5032300000000  0.5704930000000  0.4664180000000 1.0
C      1  0.4500050000000  0.4386080000000  0.5225180000000 1.0
C      1  0.4650250000000  0.5685940000000  0.4875320000000 1.0
C      1  0.5356620000000  0.4237290000000  0.5252300000000 1.0
C      1  0.5210090000000  0.4357220000000  0.5488760000000 1.0
C      1  0.5086700000000  0.5141790000000  0.4743990000000 1.0
C      1  0.4973600000000  0.5099970000000  0.5206070000000 1.0
C      1  0.4734700000000  0.4939320000000  0.5717630000000 1.0
C      1  0.4722330000000  0.5120290000000  0.4162480000000 1.0
C      1  0.4855260000000  0.5361920000000  0.5185650000000 1.0
C      1  0.4717120000000  0.4729200000000  0.5520490000000 1.0
C      1  0.5160510000000  0.5654970000000  0.5156480000000 1.0
C      1  0.4814190000000  0.4572560000000  0.4597200000000 1.0
C      1  0.5607820000000  0.4979310000000  0.5398950000000 1.0
C      1  0.4848820000000  0.5264820000000  0.4695990000000 1.0
C      1  0.5452060000000  0.5290890000000  0.5037560000000 1.0
C      1  0.4768070000000  0.5418670000000  0.4925250000000 1.0
C      1  0.4793710000000  0.5346530000000  0.5675720000000 1.0
C      1  0.5232750000000  0.4655070000000  0.5456750000000 1.0
C      1  0.4558670000000  0.5501960000000  0.4488480000000 1.0
C      1  0.5070700000000  0.5311410000000  0.5711670000000 1.0
C      1  0.5176660000000  0.4173830000000  0.5053090000000 1.0
C      1  0.5335020000000  0.5471720000000  0.5273710000000 1.0
C      1  0.5248530000000  0.5545590000000  0.4640630000000 1.0
C      1  0.5306860000000  0.5349360000000  0.5537400000000 1.0
C      1  0.5021080000000  0.5015210000000  0.5768180000000 1.0
C      1  0.5693970000000  0.5124060000000  0.5012300000000 1.0
C      1  0.4925790000000  0.4909290000000  0.4131620000000 1.0
C      1  0.5247010000000  0.4870310000000  0.5660120000000 1.0
C      1  0.4574280000000  0.5184490000000  0.5628250000000 1.0
C      1  0.4656390000000  0.4440280000000  0.5484580000000 1.0
C      1  0.4475550000000  0.4567200000000  0.5000670000000 1.0
C      1  0.5098390000000  0.4693810000000  0.5192420000000 1.0
C      1  0.5110820000000  0.4809350000000  0.4490970000000 1.0
C      1  0.5755740000000  0.4887810000000  0.5194610000000 1.0
C      1  0.5734350000000  0.5091910000000  0.4712510000000 1.0
C      1  0.4856530000000  0.4301130000000  0.4691050000000 1.0
C      1  0.4534240000000  0.5235570000000  0.4359690000000 1.0
C      1  0.5580640000000  0.4378550000000  0.5107760000000 1.0
C      1  0.5124120000000  0.4717380000000  0.4223880000000 1.0
C      1  0.5240930000000  0.5074120000000  0.4535340000000 1.0
C      1  0.4406550000000  0.5472080000000  0.5241340000000 1.0
C      1  0.4345090000000  0.5124120000000  0.4720390000000 1.0
C      1  0.4813670000000  0.4847270000000  0.5244830000000 1.0
C      1  0.4286900000000  0.5456180000000  0.4967480000000 1.0
C      1  0.4533340000000  0.4836110000000  0.5104740000000 1.0
C      1  0.4415010000000  0.5590250000000  0.4734690000000 1.0
C      1  0.5570500000000  0.4418270000000  0.4815440000000 1.0
C      1  0.4544890000000  0.4512800000000  0.4701440000000 1.0
C      1  0.5233550000000  0.4755030000000  0.4948510000000 1.0
C      1  0.4555440000000  0.5013080000000  0.4567240000000 1.0
C      1  0.4202380000000  0.5170100000000  0.4951460000000 1.0
C      1  0.4678700000000  0.5575720000000  0.5287060000000 1.0
C      1  0.4331910000000  0.5022340000000  0.5188550000000 1.0
C      1  0.5029870000000  0.5808570000000  0.4970310000000 1.0
C      1  0.4390570000000  0.5223450000000  0.5390630000000 1.0
C      1  0.4929410000000  0.4362710000000  0.5501390000000 1.0
C      1  0.5348740000000  0.4590420000000  0.4729110000000 1.0
C      1  0.5444140000000  0.5089390000000  0.5592760000000 1.0
C      1  0.5012370000000  0.4193720000000  0.4861980000000 1.0
C      1  0.5838520000000  0.4568480000000  0.4827620000000 1.0
C      1  0.5786190000000  0.4588080000000  0.5122840000000 1.0
C      1  0.4579850000000  0.4716820000000  0.4529660000000 1.0
END
