TITL C-883732-77-98 44.260874262151 125000 -18843.4292741553 0 0 126 (C1) n - 1
REM
REM in /home/nfs/bkarasulu/CARBON/AIRSS/Generating-Clusters/ReaxFF-fromJPCA2015/Units_Real/with-SteepDescent/Only-C1/SD-CG/Try1-3A/FIRE-CG
REM
REM
REM
REM
REM
REM ./C.cell (11c1c37f851c82e70ff6c80c92926a4b)
REM
REM compiler GCC version 9.2.1 20190827 (Red Hat 9.2.1-1)
REM options -cpp -mtune=generic -march=x86-64 -g -O0 -fpre-include=/usr/include/finclude/math-vector-fortran.h
REM seed 1009939169 403150354 1232595457 -339763635 -1658323310 1846086798 1399432967 -1918335166 -773110746 -1307347580 -2142601815 -14931945 -780899445 688191804 1658144400 1192847808 83320494 1153444892 1973782754 2076228913 -1486093020 -272290580 1151885381 1199283604 961599431 -918188008 913674521 1128934135 -304986622 -1902606757 -1304564090 -59211016 1118964237
REM
CELL 1.54180   50.00000   50.00000   50.00000   90.00000   90.00000   90.00000
LATT -1
SFAC C  
C      1  0.5427330000000  0.4604380000000  0.5193310000000 1.0
C      1  0.4297620000000  0.4730160000000  0.4445400000000 1.0
C      1  0.4977050000000  0.4715040000000  0.5794010000000 1.0
C      1  0.5166030000000  0.5071290000000  0.4095040000000 1.0
C      1  0.5876460000000  0.5104390000000  0.4398620000000 1.0
C      1  0.5791690000000  0.4939070000000  0.5434710000000 1.0
C      1  0.4068860000000  0.4879060000000  0.4912660000000 1.0
C      1  0.4944440000000  0.4734210000000  0.4335010000000 1.0
C      1  0.5715720000000  0.4829620000000  0.4668580000000 1.0
C      1  0.5202710000000  0.5042940000000  0.4707310000000 1.0
C      1  0.4844390000000  0.4896400000000  0.4561930000000 1.0
C      1  0.5155690000000  0.5603310000000  0.5450020000000 1.0
C      1  0.5215600000000  0.4039290000000  0.5068740000000 1.0
C      1  0.6007180000000  0.5133930000000  0.4659460000000 1.0
C      1  0.4505840000000  0.4544020000000  0.4392090000000 1.0
C      1  0.4147440000000  0.5709430000000  0.5178800000000 1.0
C      1  0.4805950000000  0.5398190000000  0.5819650000000 1.0
C      1  0.4120520000000  0.5361990000000  0.4808460000000 1.0
C      1  0.5823510000000  0.5480760000000  0.4558970000000 1.0
C      1  0.4510120000000  0.4535510000000  0.4888190000000 1.0
C      1  0.4690010000000  0.4612460000000  0.5369120000000 1.0
C      1  0.4503670000000  0.4670520000000  0.5155990000000 1.0
C      1  0.5246100000000  0.5024450000000  0.5458300000000 1.0
C      1  0.5363990000000  0.5241930000000  0.4121090000000 1.0
C      1  0.5396030000000  0.5617310000000  0.4303270000000 1.0
C      1  0.5421510000000  0.5203610000000  0.5396760000000 1.0
C      1  0.4101290000000  0.4748390000000  0.5389430000000 1.0
C      1  0.4236500000000  0.4665000000000  0.5629110000000 1.0
C      1  0.5140700000000  0.5795920000000  0.4764510000000 1.0
C      1  0.5110590000000  0.4338710000000  0.5404930000000 1.0
C      1  0.5661120000000  0.4492300000000  0.5336900000000 1.0
C      1  0.5770870000000  0.5602460000000  0.5207320000000 1.0
C      1  0.4899010000000  0.5720450000000  0.5546390000000 1.0
C      1  0.4671470000000  0.4977540000000  0.4109660000000 1.0
C      1  0.4833270000000  0.4849990000000  0.5372570000000 1.0
C      1  0.4499720000000  0.5059210000000  0.5573830000000 1.0
C      1  0.5180280000000  0.4837920000000  0.4907040000000 1.0
C      1  0.5432440000000  0.5666280000000  0.5551880000000 1.0
C      1  0.5562910000000  0.5187440000000  0.5121750000000 1.0
C      1  0.4249900000000  0.5025130000000  0.5385200000000 1.0
C      1  0.4135890000000  0.5498310000000  0.5392290000000 1.0
C      1  0.4629840000000  0.5895380000000  0.5152750000000 1.0
C      1  0.5433220000000  0.4730060000000  0.4970480000000 1.0
C      1  0.6012770000000  0.4633810000000  0.4973110000000 1.0
C      1  0.5510820000000  0.5300940000000  0.4856570000000 1.0
C      1  0.5182020000000  0.5025330000000  0.5982530000000 1.0
C      1  0.4386270000000  0.4271530000000  0.4912430000000 1.0
C      1  0.4481260000000  0.5359230000000  0.4450630000000 1.0
C      1  0.5599120000000  0.5787880000000  0.5338180000000 1.0
C      1  0.4451190000000  0.5755930000000  0.4801140000000 1.0
C      1  0.4569500000000  0.5100210000000  0.4976660000000 1.0
C      1  0.4412290000000  0.4935380000000  0.5140420000000 1.0
C      1  0.4715700000000  0.5279050000000  0.4629820000000 1.0
C      1  0.5020710000000  0.4089700000000  0.5276580000000 1.0
C      1  0.5058290000000  0.4832650000000  0.5523960000000 1.0
C      1  0.4624230000000  0.4452350000000  0.5609610000000 1.0
C      1  0.4980420000000  0.5634180000000  0.4270300000000 1.0
C      1  0.5841030000000  0.4813530000000  0.4387640000000 1.0
C      1  0.4979410000000  0.5157710000000  0.4558550000000 1.0
C      1  0.5676260000000  0.4718610000000  0.5569670000000 1.0
C      1  0.4663090000000  0.5557700000000  0.5642160000000 1.0
C      1  0.5333240000000  0.4369660000000  0.5599740000000 1.0
C      1  0.5932850000000  0.4914000000000  0.4889550000000 1.0
C      1  0.4485480000000  0.4764430000000  0.4211360000000 1.0
C      1  0.5404560000000  0.5948860000000  0.5183510000000 1.0
C      1  0.5557870000000  0.4603580000000  0.4757530000000 1.0
C      1  0.4990910000000  0.4626740000000  0.4953320000000 1.0
C      1  0.5311800000000  0.5386370000000  0.5840240000000 1.0
C      1  0.4546560000000  0.5641080000000  0.4537840000000 1.0
C      1  0.4266540000000  0.4242590000000  0.5365480000000 1.0
C      1  0.4994380000000  0.4447680000000  0.4350830000000 1.0
C      1  0.5120240000000  0.4090360000000  0.4789680000000 1.0
C      1  0.5486780000000  0.5090520000000  0.4639990000000 1.0
C      1  0.4734060000000  0.5266630000000  0.5152910000000 1.0
C      1  0.5592340000000  0.5644390000000  0.4509500000000 1.0
C      1  0.4829390000000  0.5706730000000  0.4518360000000 1.0
C      1  0.5481240000000  0.5580630000000  0.4783960000000 1.0
C      1  0.5331760000000  0.4198490000000  0.4620180000000 1.0
C      1  0.4193340000000  0.4934090000000  0.4648290000000 1.0
C      1  0.4465240000000  0.4829670000000  0.5739250000000 1.0
C      1  0.5561120000000  0.5104230000000  0.4318480000000 1.0
C      1  0.4685030000000  0.5862660000000  0.4896100000000 1.0
C      1  0.5839940000000  0.5088480000000  0.5169540000000 1.0
C      1  0.4205720000000  0.5625410000000  0.4906970000000 1.0
C      1  0.4775660000000  0.4547420000000  0.4776590000000 1.0
C      1  0.4769120000000  0.4365470000000  0.4532710000000 1.0
C      1  0.5317620000000  0.5752330000000  0.4952040000000 1.0
C      1  0.5271310000000  0.4349370000000  0.4368080000000 1.0
C      1  0.4727060000000  0.5106910000000  0.5407570000000 1.0
C      1  0.4085250000000  0.4653140000000  0.5116110000000 1.0
C      1  0.5502040000000  0.5398140000000  0.5638770000000 1.0
C      1  0.5973200000000  0.5397270000000  0.4780370000000 1.0
C      1  0.5574170000000  0.4311360000000  0.4736270000000 1.0
C      1  0.4835940000000  0.4127450000000  0.4727500000000 1.0
C      1  0.4065030000000  0.5242310000000  0.5277870000000 1.0
C      1  0.4870360000000  0.5926270000000  0.5341610000000 1.0
C      1  0.4903570000000  0.5705940000000  0.4796270000000 1.0
C      1  0.4022180000000  0.5155620000000  0.5004460000000 1.0
C      1  0.5159060000000  0.4537280000000  0.5183310000000 1.0
C      1  0.5435160000000  0.4623020000000  0.5718030000000 1.0
C      1  0.4237020000000  0.5215430000000  0.4593240000000 1.0
C      1  0.4858430000000  0.5422170000000  0.4163180000000 1.0
C      1  0.5241730000000  0.5540190000000  0.4152610000000 1.0
C      1  0.4524240000000  0.4130190000000  0.5367910000000 1.0
C      1  0.4332770000000  0.4388460000000  0.5618250000000 1.0
C      1  0.5138600000000  0.5563640000000  0.5160810000000 1.0
C      1  0.5422620000000  0.4575850000000  0.4291040000000 1.0
C      1  0.4384550000000  0.5617460000000  0.5511690000000 1.0
C      1  0.4956670000000  0.4893620000000  0.4076940000000 1.0
C      1  0.5485350000000  0.4105170000000  0.5166140000000 1.0
C      1  0.5142040000000  0.6034020000000  0.5272650000000 1.0
C      1  0.4629750000000  0.4096420000000  0.4923270000000 1.0
C      1  0.4621230000000  0.5016950000000  0.4702230000000 1.0
C      1  0.5068430000000  0.5291430000000  0.5954650000000 1.0
C      1  0.5243950000000  0.4753810000000  0.5916540000000 1.0
C      1  0.4186490000000  0.4369550000000  0.5102170000000 1.0
C      1  0.4692190000000  0.4652200000000  0.5814250000000 1.0
C      1  0.4732420000000  0.4041790000000  0.5203080000000 1.0
C      1  0.5914050000000  0.5407170000000  0.5090970000000 1.0
C      1  0.5869510000000  0.4419660000000  0.5106620000000 1.0
C      1  0.4920290000000  0.5449940000000  0.5041040000000 1.0
C      1  0.5690000000000  0.4216850000000  0.4986220000000 1.0
C      1  0.5523340000000  0.4234320000000  0.5427100000000 1.0
C      1  0.4639400000000  0.5260330000000  0.4175770000000 1.0
C      1  0.5584190000000  0.4789280000000  0.4238010000000 1.0
C      1  0.4384790000000  0.5828040000000  0.5311980000000 1.0
END
