TITL C-883736-9678-361 -1.62292843641777 125000 -20791.2559163396 0 0 141 (C1) n - 1
REM
REM in /home/nfs/bkarasulu/CARBON/AIRSS/Generating-Clusters/ReaxFF-fromJPCA2015/Units_Real/with-SteepDescent/Only-C1/SD-CG/Try1-3A/FIRE-CG
REM
REM
REM
REM
REM
REM ./C.cell (11c1c37f851c82e70ff6c80c92926a4b)
REM
REM compiler GCC version 9.2.1 20190827 (Red Hat 9.2.1-1)
REM options -cpp -mtune=generic -march=x86-64 -g -O0 -fpre-include=/usr/include/finclude/math-vector-fortran.h
REM seed -1263182174 357018934 1283882237 1845671052 60270509 849162399 -1092626071 873307937 1722178627 -304318094 -743128679 1471871189 1077863107 2052858744 -1096425908 -1470471101 -1408907274 -737425597 715888124 -410061666 -951453366 1111777736 -1145069115 -971164160 -1452280321 -703238321 491136352 454756936 -387472008 -880952993 -233556336 1452579589 1871520397
REM
CELL 1.54180   50.00000   50.00000   50.00000   90.00000   90.00000   90.00000
LATT -1
SFAC C  
C      1  0.4671790000000  0.4664410000000  0.5273980000000 1.0
C      1  0.5655580000000  0.5507690000000  0.4641230000000 1.0
C      1  0.4570030000000  0.5256470000000  0.5905580000000 1.0
C      1  0.5658500000000  0.5157260000000  0.4276140000000 1.0
C      1  0.4223230000000  0.4439890000000  0.4753520000000 1.0
C      1  0.5216560000000  0.5739970000000  0.4455650000000 1.0
C      1  0.5883590000000  0.4566020000000  0.4835530000000 1.0
C      1  0.4594680000000  0.4190170000000  0.5101890000000 1.0
C      1  0.6079500000000  0.5236120000000  0.5384640000000 1.0
C      1  0.5433120000000  0.4289610000000  0.4931040000000 1.0
C      1  0.4571450000000  0.4355020000000  0.5623180000000 1.0
C      1  0.4259320000000  0.4601760000000  0.4509410000000 1.0
C      1  0.4670990000000  0.5867980000000  0.5162980000000 1.0
C      1  0.5540960000000  0.4194650000000  0.5213510000000 1.0
C      1  0.4864240000000  0.4817950000000  0.4051130000000 1.0
C      1  0.4577160000000  0.4818700000000  0.4127120000000 1.0
C      1  0.4055640000000  0.5130230000000  0.5608470000000 1.0
C      1  0.4799060000000  0.4369550000000  0.5807420000000 1.0
C      1  0.4923320000000  0.6006210000000  0.5234620000000 1.0
C      1  0.4552440000000  0.5264230000000  0.5224000000000 1.0
C      1  0.4249090000000  0.5673800000000  0.5267210000000 1.0
C      1  0.4937690000000  0.4596080000000  0.5941890000000 1.0
C      1  0.4829960000000  0.4835650000000  0.5987020000000 1.0
C      1  0.4329230000000  0.5108300000000  0.5731420000000 1.0
C      1  0.4452660000000  0.5103870000000  0.4118160000000 1.0
C      1  0.5484900000000  0.5371880000000  0.5618250000000 1.0
C      1  0.5468230000000  0.5109440000000  0.4487700000000 1.0
C      1  0.5140930000000  0.4198160000000  0.4338350000000 1.0
C      1  0.4990710000000  0.4172200000000  0.5713040000000 1.0
C      1  0.4466060000000  0.4554230000000  0.4305280000000 1.0
C      1  0.5834560000000  0.5100100000000  0.4980340000000 1.0
C      1  0.4870050000000  0.4717910000000  0.4512560000000 1.0
C      1  0.4645060000000  0.5434130000000  0.4730490000000 1.0
C      1  0.4603080000000  0.4673100000000  0.4822450000000 1.0
C      1  0.5066780000000  0.5868760000000  0.5450640000000 1.0
C      1  0.5469690000000  0.4610960000000  0.4525220000000 1.0
C      1  0.5502070000000  0.5238870000000  0.4034460000000 1.0
C      1  0.5042540000000  0.4120690000000  0.5246350000000 1.0
C      1  0.5865600000000  0.4830680000000  0.4511490000000 1.0
C      1  0.4675200000000  0.4887850000000  0.4404580000000 1.0
C      1  0.4205440000000  0.5380420000000  0.4815340000000 1.0
C      1  0.5261790000000  0.4935690000000  0.5474860000000 1.0
C      1  0.5540200000000  0.4803490000000  0.5439380000000 1.0
C      1  0.4483090000000  0.5792610000000  0.5372810000000 1.0
C      1  0.5583170000000  0.5652190000000  0.5550110000000 1.0
C      1  0.4768160000000  0.5642280000000  0.4990460000000 1.0
C      1  0.4148750000000  0.4861900000000  0.4592070000000 1.0
C      1  0.5406850000000  0.5520680000000  0.4056040000000 1.0
C      1  0.5208730000000  0.5001660000000  0.5210260000000 1.0
C      1  0.4169880000000  0.5583870000000  0.5015170000000 1.0
C      1  0.4883380000000  0.5820260000000  0.5676990000000 1.0
C      1  0.4919010000000  0.5807290000000  0.4528910000000 1.0
C      1  0.5955950000000  0.4841900000000  0.4770990000000 1.0
C      1  0.5643030000000  0.4157060000000  0.4521450000000 1.0
C      1  0.5332060000000  0.4985390000000  0.5886640000000 1.0
C      1  0.5635040000000  0.4551830000000  0.5565450000000 1.0
C      1  0.4315790000000  0.4818960000000  0.5686880000000 1.0
C      1  0.4363490000000  0.4573220000000  0.5555430000000 1.0
C      1  0.5501860000000  0.4821650000000  0.4084080000000 1.0
C      1  0.4941180000000  0.5483630000000  0.5209830000000 1.0
C      1  0.5585920000000  0.4716620000000  0.5128320000000 1.0
C      1  0.5238340000000  0.5324260000000  0.4883870000000 1.0
C      1  0.5316370000000  0.5696420000000  0.4163810000000 1.0
C      1  0.4216420000000  0.5116540000000  0.4457610000000 1.0
C      1  0.4505440000000  0.5109900000000  0.4404040000000 1.0
C      1  0.5510840000000  0.5864170000000  0.5357570000000 1.0
C      1  0.5215770000000  0.4456500000000  0.4234570000000 1.0
C      1  0.4469560000000  0.5570340000000  0.4525550000000 1.0
C      1  0.5105590000000  0.5991960000000  0.5009740000000 1.0
C      1  0.4238520000000  0.5395380000000  0.5235840000000 1.0
C      1  0.4699200000000  0.4391550000000  0.4294910000000 1.0
C      1  0.5598670000000  0.4939450000000  0.4937750000000 1.0
C      1  0.5281860000000  0.4215940000000  0.5645440000000 1.0
C      1  0.5113690000000  0.5142870000000  0.5990920000000 1.0
C      1  0.4514230000000  0.5111680000000  0.5454120000000 1.0
C      1  0.5556770000000  0.5110120000000  0.5739750000000 1.0
C      1  0.4626330000000  0.5530270000000  0.5853900000000 1.0
C      1  0.4867390000000  0.4198590000000  0.4431860000000 1.0
C      1  0.4795950000000  0.5064650000000  0.5493900000000 1.0
C      1  0.4938300000000  0.4212790000000  0.4736700000000 1.0
C      1  0.4595130000000  0.5319180000000  0.3995270000000 1.0
C      1  0.5492130000000  0.5741780000000  0.4635050000000 1.0
C      1  0.4854210000000  0.4552210000000  0.4754040000000 1.0
C      1  0.5014710000000  0.5054420000000  0.4009680000000 1.0
C      1  0.4911050000000  0.5617220000000  0.5891330000000 1.0
C      1  0.4871530000000  0.5311750000000  0.3982210000000 1.0
C      1  0.4605200000000  0.5742020000000  0.5632000000000 1.0
C      1  0.5195970000000  0.5310680000000  0.5605690000000 1.0
C      1  0.3940050000000  0.4989770000000  0.5367490000000 1.0
C      1  0.5783190000000  0.5395400000000  0.4881560000000 1.0
C      1  0.5353160000000  0.5224550000000  0.5113550000000 1.0
C      1  0.4444640000000  0.5212530000000  0.4795530000000 1.0
C      1  0.4011740000000  0.4959430000000  0.5100220000000 1.0
C      1  0.5663500000000  0.5591950000000  0.5055750000000 1.0
C      1  0.5887380000000  0.5093270000000  0.5316470000000 1.0
C      1  0.4995170000000  0.5155730000000  0.4829890000000 1.0
C      1  0.4397320000000  0.4611920000000  0.5260720000000 1.0
C      1  0.5312610000000  0.4534730000000  0.5066670000000 1.0
C      1  0.5128930000000  0.5456170000000  0.4489680000000 1.0
C      1  0.4549710000000  0.4954970000000  0.4907150000000 1.0
C      1  0.4968420000000  0.5288950000000  0.5412950000000 1.0
C      1  0.5330430000000  0.4106050000000  0.5379000000000 1.0
C      1  0.4202980000000  0.4539130000000  0.5032680000000 1.0
C      1  0.5119150000000  0.5411240000000  0.5878330000000 1.0
C      1  0.4947470000000  0.4597640000000  0.4230580000000 1.0
C      1  0.4006790000000  0.5257320000000  0.5372310000000 1.0
C      1  0.5367040000000  0.5339400000000  0.4614700000000 1.0
C      1  0.5637160000000  0.4418530000000  0.4684840000000 1.0
C      1  0.5233270000000  0.4142230000000  0.4771070000000 1.0
C      1  0.5752190000000  0.4877600000000  0.4253950000000 1.0
C      1  0.5356200000000  0.4078410000000  0.4517340000000 1.0
C      1  0.5728610000000  0.4380700000000  0.5335050000000 1.0
C      1  0.4851760000000  0.4062600000000  0.5485290000000 1.0
C      1  0.5561440000000  0.5833340000000  0.4897490000000 1.0
C      1  0.4594740000000  0.4165780000000  0.5399760000000 1.0
C      1  0.4834860000000  0.4103960000000  0.4998110000000 1.0
C      1  0.5135650000000  0.4784890000000  0.5023300000000 1.0
C      1  0.4903890000000  0.5337010000000  0.4610420000000 1.0
C      1  0.5150460000000  0.4904290000000  0.4769630000000 1.0
C      1  0.4900320000000  0.4605570000000  0.5089770000000 1.0
C      1  0.5416010000000  0.4459160000000  0.5726350000000 1.0
C      1  0.5419710000000  0.5491110000000  0.5209240000000 1.0
C      1  0.5839460000000  0.4547110000000  0.5121280000000 1.0
C      1  0.4733090000000  0.5530420000000  0.4117390000000 1.0
C      1  0.4459400000000  0.4422980000000  0.4907550000000 1.0
C      1  0.4077760000000  0.4808730000000  0.4882120000000 1.0
C      1  0.4929610000000  0.5835280000000  0.4820720000000 1.0
C      1  0.4818690000000  0.4777740000000  0.5496010000000 1.0
C      1  0.5228190000000  0.4680630000000  0.5834220000000 1.0
C      1  0.5460830000000  0.4594260000000  0.4250110000000 1.0
C      1  0.4737490000000  0.5112950000000  0.5059010000000 1.0
C      1  0.5088630000000  0.4735670000000  0.5574420000000 1.0
C      1  0.4788720000000  0.5099530000000  0.6013230000000 1.0
C      1  0.5307670000000  0.5029920000000  0.4005160000000 1.0
C      1  0.4698570000000  0.5668910000000  0.4375910000000 1.0
C      1  0.5733280000000  0.4961210000000  0.5551460000000 1.0
C      1  0.4217160000000  0.5414750000000  0.4525090000000 1.0
C      1  0.5386590000000  0.5957540000000  0.5096330000000 1.0
C      1  0.5421620000000  0.4880750000000  0.4653420000000 1.0
C      1  0.5089360000000  0.4416160000000  0.5206030000000 1.0
C      1  0.5170710000000  0.5634360000000  0.5297170000000 1.0
END
