TITL C-883738-3659-152 -18.658603731266 125000 -8448.2125064555 0 0 57 (C1) n - 1
REM
REM in /home/nfs/bkarasulu/CARBON/AIRSS/Generating-Clusters/ReaxFF-fromJPCA2015/Units_Real/with-SteepDescent/Only-C1/SD-CG/Try1-3A/FIRE-CG
REM
REM
REM
REM
REM
REM ./C.cell (11c1c37f851c82e70ff6c80c92926a4b)
REM
REM compiler GCC version 9.2.1 20190827 (Red Hat 9.2.1-1)
REM options -cpp -mtune=generic -march=x86-64 -g -O0 -fpre-include=/usr/include/finclude/math-vector-fortran.h
REM seed -1994476747 658716185 1426198910 93225991 467686115 1898750129 -1542383821 -528474071 887661918 -1771885362 1607951264 45058111 617630726 284312380 1944624382 716627610 -1655317779 -558948357 1278539612 -565367069 -173180262 -1231130528 -722979871 -527537886 596101981 -134319759 2070055911 -59376494 -1181856219 606280758 1700006907 -2058630117 1289826199
REM
CELL 1.54180   50.00000   50.00000   50.00000   90.00000   90.00000   90.00000
LATT -1
SFAC C  
C      1  0.5131000000000  0.4350090000000  0.5322810000000 1.0
C      1  0.4793670000000  0.4417610000000  0.4622210000000 1.0
C      1  0.5134510000000  0.5328240000000  0.5629010000000 1.0
C      1  0.4515840000000  0.5021620000000  0.5513610000000 1.0
C      1  0.4614780000000  0.4806030000000  0.4798920000000 1.0
C      1  0.5043450000000  0.4744520000000  0.4412440000000 1.0
C      1  0.5203960000000  0.5015980000000  0.4870930000000 1.0
C      1  0.4820150000000  0.4980830000000  0.5470820000000 1.0
C      1  0.4471510000000  0.5060310000000  0.4797520000000 1.0
C      1  0.5377540000000  0.4627460000000  0.4762070000000 1.0
C      1  0.5507600000000  0.4378610000000  0.5065830000000 1.0
C      1  0.4380260000000  0.4898640000000  0.5292210000000 1.0
C      1  0.5522400000000  0.4353080000000  0.4796870000000 1.0
C      1  0.5151330000000  0.5674860000000  0.4653230000000 1.0
C      1  0.4863970000000  0.4793270000000  0.4969250000000 1.0
C      1  0.5319330000000  0.5243400000000  0.5415590000000 1.0
C      1  0.4751570000000  0.5651310000000  0.4960020000000 1.0
C      1  0.5036230000000  0.4354950000000  0.5042300000000 1.0
C      1  0.4780940000000  0.4701350000000  0.5477810000000 1.0
C      1  0.4566690000000  0.5564010000000  0.5195660000000 1.0
C      1  0.4338210000000  0.5093380000000  0.5065190000000 1.0
C      1  0.5317120000000  0.4713900000000  0.5419980000000 1.0
C      1  0.4765460000000  0.4328930000000  0.4909920000000 1.0
C      1  0.4613660000000  0.5258060000000  0.4628200000000 1.0
C      1  0.5602870000000  0.4889270000000  0.4654830000000 1.0
C      1  0.4727330000000  0.5516210000000  0.4694480000000 1.0
C      1  0.4542980000000  0.4649070000000  0.5304470000000 1.0
C      1  0.5061120000000  0.5219560000000  0.5031920000000 1.0
C      1  0.5286240000000  0.5725120000000  0.4891730000000 1.0
C      1  0.5001960000000  0.5787740000000  0.5018890000000 1.0
C      1  0.5017860000000  0.5302770000000  0.4372660000000 1.0
C      1  0.4642190000000  0.4656130000000  0.4550210000000 1.0
C      1  0.5453590000000  0.5500060000000  0.4999320000000 1.0
C      1  0.4933620000000  0.5544480000000  0.5565900000000 1.0
C      1  0.5560620000000  0.5254920000000  0.4874600000000 1.0
C      1  0.5246380000000  0.5408900000000  0.5181650000000 1.0
C      1  0.5049960000000  0.4591740000000  0.5468580000000 1.0
C      1  0.4949510000000  0.5564390000000  0.4496840000000 1.0
C      1  0.4528200000000  0.5291190000000  0.5639390000000 1.0
C      1  0.4777070000000  0.5141890000000  0.4410560000000 1.0
C      1  0.5419070000000  0.4442260000000  0.5325420000000 1.0
C      1  0.4905940000000  0.5019420000000  0.5154770000000 1.0
C      1  0.4939360000000  0.5131760000000  0.5721960000000 1.0
C      1  0.4706310000000  0.5234920000000  0.5878820000000 1.0
C      1  0.4564520000000  0.4441220000000  0.5092130000000 1.0
C      1  0.4777020000000  0.4850270000000  0.4370530000000 1.0
C      1  0.5456260000000  0.5012920000000  0.5027070000000 1.0
C      1  0.5053310000000  0.4457550000000  0.4490530000000 1.0
C      1  0.5282650000000  0.5183600000000  0.4425700000000 1.0
C      1  0.5185780000000  0.4952400000000  0.4574120000000 1.0
C      1  0.4451580000000  0.5335270000000  0.5125530000000 1.0
C      1  0.5529920000000  0.5183880000000  0.4590350000000 1.0
C      1  0.5848630000000  0.4831260000000  0.4672050000000 1.0
C      1  0.4650680000000  0.5520600000000  0.5485540000000 1.0
C      1  0.5097490000000  0.4612840000000  0.4926680000000 1.0
C      1  0.5328330000000  0.4407390000000  0.4571720000000 1.0
C      1  0.5400490000000  0.4978610000000  0.5318650000000 1.0
END
