TITL C-883741-3679-202 136.563342951391 125000 -29391.0311849117 0 0 198 (C1) n - 1
REM
REM in /home/nfs/bkarasulu/CARBON/AIRSS/Generating-Clusters/ReaxFF-fromJPCA2015/Units_Real/with-SteepDescent/Only-C1/SD-CG/Try1-3A/FIRE-CG
REM
REM
REM
REM
REM
REM ./C.cell (11c1c37f851c82e70ff6c80c92926a4b)
REM
REM compiler GCC version 9.2.1 20190827 (Red Hat 9.2.1-1)
REM options -cpp -mtune=generic -march=x86-64 -g -O0 -fpre-include=/usr/include/finclude/math-vector-fortran.h
REM seed 911316239 -1126525946 126784726 -1087985483 -355467488 -1207712674 -309432420 -647558306 1018320451 696545205 -455995827 -1611542273 -851307620 1820886888 1409633190 2026186204 1721237543 -342696944 1933024009 -1136207533 -1774517135 1697090815 -2108717800 -1200951149 -1576543408 -1531112982 -625446867 624089519 1759714684 1151040524 1713610157 -1826048461 -88862770
REM
CELL 1.54180   50.00000   50.00000   50.00000   90.00000   90.00000   90.00000
LATT -1
SFAC C  
C      1  0.6031120000000  0.5363420000000  0.4735690000000 1.0
C      1  0.5422040000000  0.5279300000000  0.5988120000000 1.0
C      1  0.5738100000000  0.5514610000000  0.4379480000000 1.0
C      1  0.5309920000000  0.5407100000000  0.5279800000000 1.0
C      1  0.5251950000000  0.5044210000000  0.5964030000000 1.0
C      1  0.5419030000000  0.4729580000000  0.3822360000000 1.0
C      1  0.5632510000000  0.4753040000000  0.4019470000000 1.0
C      1  0.5297280000000  0.4313850000000  0.5071430000000 1.0
C      1  0.5171530000000  0.5076420000000  0.4980270000000 1.0
C      1  0.5712090000000  0.5208040000000  0.5069610000000 1.0
C      1  0.5087000000000  0.4780220000000  0.4530440000000 1.0
C      1  0.5508630000000  0.4830510000000  0.5201290000000 1.0
C      1  0.4724600000000  0.5229160000000  0.4641320000000 1.0
C      1  0.3980620000000  0.5301640000000  0.4800770000000 1.0
C      1  0.3972440000000  0.5329020000000  0.5410590000000 1.0
C      1  0.4170840000000  0.5420120000000  0.4582090000000 1.0
C      1  0.5360440000000  0.4454950000000  0.5829320000000 1.0
C      1  0.4260790000000  0.5420770000000  0.5877890000000 1.0
C      1  0.5515890000000  0.5907780000000  0.4997870000000 1.0
C      1  0.5651400000000  0.4227890000000  0.5493030000000 1.0
C      1  0.4583160000000  0.4047720000000  0.4798460000000 1.0
C      1  0.5948350000000  0.4794300000000  0.4566140000000 1.0
C      1  0.5253810000000  0.5628020000000  0.4465730000000 1.0
C      1  0.4309090000000  0.4964810000000  0.4196230000000 1.0
C      1  0.5061300000000  0.5363720000000  0.5672280000000 1.0
C      1  0.4444500000000  0.4193240000000  0.4578690000000 1.0
C      1  0.5396440000000  0.5710930000000  0.4071130000000 1.0
C      1  0.5775190000000  0.4463790000000  0.5097870000000 1.0
C      1  0.4867070000000  0.4751580000000  0.5756920000000 1.0
C      1  0.5026360000000  0.4712260000000  0.6145220000000 1.0
C      1  0.5659590000000  0.5273780000000  0.4061220000000 1.0
C      1  0.4310310000000  0.4532560000000  0.4244140000000 1.0
C      1  0.5225200000000  0.5275260000000  0.4794130000000 1.0
C      1  0.4862900000000  0.4222970000000  0.5265520000000 1.0
C      1  0.4634700000000  0.4300120000000  0.5416560000000 1.0
C      1  0.4748870000000  0.4789430000000  0.5246370000000 1.0
C      1  0.5155310000000  0.4303850000000  0.4179530000000 1.0
C      1  0.4661160000000  0.5482360000000  0.3933960000000 1.0
C      1  0.5011300000000  0.6120940000000  0.5076810000000 1.0
C      1  0.4311900000000  0.5883850000000  0.4948140000000 1.0
C      1  0.4749570000000  0.5976310000000  0.5526080000000 1.0
C      1  0.5524040000000  0.5007180000000  0.5402550000000 1.0
C      1  0.4951540000000  0.4264760000000  0.5899460000000 1.0
C      1  0.5110890000000  0.6058430000000  0.4333040000000 1.0
C      1  0.5539110000000  0.5183060000000  0.5604860000000 1.0
C      1  0.5911510000000  0.5692120000000  0.5154970000000 1.0
C      1  0.5005740000000  0.4386000000000  0.4671730000000 1.0
C      1  0.5424280000000  0.4189070000000  0.5664600000000 1.0
C      1  0.4785930000000  0.5410740000000  0.6064810000000 1.0
C      1  0.4492100000000  0.5427860000000  0.4209230000000 1.0
C      1  0.5436570000000  0.5833950000000  0.5533520000000 1.0
C      1  0.5933070000000  0.5306650000000  0.4472290000000 1.0
C      1  0.5207650000000  0.3935340000000  0.5272460000000 1.0
C      1  0.4645500000000  0.5312420000000  0.5395210000000 1.0
C      1  0.4759430000000  0.4422150000000  0.4249750000000 1.0
C      1  0.4494880000000  0.4313980000000  0.4314120000000 1.0
C      1  0.5060190000000  0.5800130000000  0.4790650000000 1.0
C      1  0.4979550000000  0.5992580000000  0.5341650000000 1.0
C      1  0.5147210000000  0.5585620000000  0.5126100000000 1.0
C      1  0.5757670000000  0.5487910000000  0.5470890000000 1.0
C      1  0.4058820000000  0.4857150000000  0.4983000000000 1.0
C      1  0.4009600000000  0.4873210000000  0.4492980000000 1.0
C      1  0.4874180000000  0.5884030000000  0.4405200000000 1.0
C      1  0.4699430000000  0.4902280000000  0.4364390000000 1.0
C      1  0.5602860000000  0.5435390000000  0.5223520000000 1.0
C      1  0.3893190000000  0.4666260000000  0.5129850000000 1.0
C      1  0.4385660000000  0.4216240000000  0.5267880000000 1.0
C      1  0.4666700000000  0.4826190000000  0.3976310000000 1.0
C      1  0.6031480000000  0.4829940000000  0.4847390000000 1.0
C      1  0.4202780000000  0.5737010000000  0.5164110000000 1.0
C      1  0.4993250000000  0.5567870000000  0.4330180000000 1.0
C      1  0.4747040000000  0.6089990000000  0.4962580000000 1.0
C      1  0.5131500000000  0.3924880000000  0.4797890000000 1.0
C      1  0.4329940000000  0.4703670000000  0.5891040000000 1.0
C      1  0.4069940000000  0.5066800000000  0.4276420000000 1.0
C      1  0.5852960000000  0.4425140000000  0.5485640000000 1.0
C      1  0.3904400000000  0.4747790000000  0.5411730000000 1.0
C      1  0.4945270000000  0.5708180000000  0.5279020000000 1.0
C      1  0.5891530000000  0.5029090000000  0.4391760000000 1.0
C      1  0.5209890000000  0.4040250000000  0.5545500000000 1.0
C      1  0.5688950000000  0.4062740000000  0.4594850000000 1.0
C      1  0.4677330000000  0.5592630000000  0.5282190000000 1.0
C      1  0.4781260000000  0.4958710000000  0.4770320000000 1.0
C      1  0.4313210000000  0.5682690000000  0.4586410000000 1.0
C      1  0.5443630000000  0.4286570000000  0.4212110000000 1.0
C      1  0.5354410000000  0.4000320000000  0.5004740000000 1.0
C      1  0.5347780000000  0.5420670000000  0.5577140000000 1.0
C      1  0.4616710000000  0.4733360000000  0.4712030000000 1.0
C      1  0.4753540000000  0.5329500000000  0.4326060000000 1.0
C      1  0.4387570000000  0.5210930000000  0.4967910000000 1.0
C      1  0.5416280000000  0.5199940000000  0.4611990000000 1.0
C      1  0.4804220000000  0.4870720000000  0.6015810000000 1.0
C      1  0.4099590000000  0.5005640000000  0.5665720000000 1.0
C      1  0.4975340000000  0.4657270000000  0.5092780000000 1.0
C      1  0.5214020000000  0.5791770000000  0.5721460000000 1.0
C      1  0.5610670000000  0.5102780000000  0.4824440000000 1.0
C      1  0.5727780000000  0.5021170000000  0.4141680000000 1.0
C      1  0.5137410000000  0.4878280000000  0.5696520000000 1.0
C      1  0.5992390000000  0.4639380000000  0.5380470000000 1.0
C      1  0.5448310000000  0.4657080000000  0.4723760000000 1.0
C      1  0.6096710000000  0.5490630000000  0.5268500000000 1.0
C      1  0.4696580000000  0.4628910000000  0.5537890000000 1.0
C      1  0.4784410000000  0.5900320000000  0.4739460000000 1.0
C      1  0.4049570000000  0.4519630000000  0.5537610000000 1.0
C      1  0.5130950000000  0.4818790000000  0.3841740000000 1.0
C      1  0.4415840000000  0.5188230000000  0.4664210000000 1.0
C      1  0.4105020000000  0.5292440000000  0.5036510000000 1.0
C      1  0.4947420000000  0.4078190000000  0.5718830000000 1.0
C      1  0.4413870000000  0.4242390000000  0.5796860000000 1.0
C      1  0.5313600000000  0.4808060000000  0.6121310000000 1.0
C      1  0.5919600000000  0.4821090000000  0.5614460000000 1.0
C      1  0.6015970000000  0.5368790000000  0.5523860000000 1.0
C      1  0.4439850000000  0.4967900000000  0.4453120000000 1.0
C      1  0.5536070000000  0.4397350000000  0.5249100000000 1.0
C      1  0.5863930000000  0.4534930000000  0.4456100000000 1.0
C      1  0.5098490000000  0.4449260000000  0.6032450000000 1.0
C      1  0.5928710000000  0.5629400000000  0.4871230000000 1.0
C      1  0.4324480000000  0.4963930000000  0.5464990000000 1.0
C      1  0.4726000000000  0.5670110000000  0.5903830000000 1.0
C      1  0.4371740000000  0.4113410000000  0.4995390000000 1.0
C      1  0.5479160000000  0.5461920000000  0.4504750000000 1.0
C      1  0.4627880000000  0.5896810000000  0.4227330000000 1.0
C      1  0.5464040000000  0.4071440000000  0.4398150000000 1.0
C      1  0.4208310000000  0.4455570000000  0.5784230000000 1.0
C      1  0.4913160000000  0.5836110000000  0.5726730000000 1.0
C      1  0.5291980000000  0.5565300000000  0.5948290000000 1.0
C      1  0.5092900000000  0.5216970000000  0.3878900000000 1.0
C      1  0.4955160000000  0.5463350000000  0.3847320000000 1.0
C      1  0.4648400000000  0.4120090000000  0.5672060000000 1.0
C      1  0.4469940000000  0.5593690000000  0.5848030000000 1.0
C      1  0.6006560000000  0.5072990000000  0.5502190000000 1.0
C      1  0.5062130000000  0.4205910000000  0.4445840000000 1.0
C      1  0.4532030000000  0.5854000000000  0.5362420000000 1.0
C      1  0.5119270000000  0.5016200000000  0.4082050000000 1.0
C      1  0.4400030000000  0.5254010000000  0.5488950000000 1.0
C      1  0.5038140000000  0.4840740000000  0.4864820000000 1.0
C      1  0.6142500000000  0.5116250000000  0.4852490000000 1.0
C      1  0.5554980000000  0.4842460000000  0.4907810000000 1.0
C      1  0.5723260000000  0.4844120000000  0.5845940000000 1.0
C      1  0.4402140000000  0.4742310000000  0.4056150000000 1.0
C      1  0.3966340000000  0.5008540000000  0.4749290000000 1.0
C      1  0.4928000000000  0.4402400000000  0.4014640000000 1.0
C      1  0.5975370000000  0.4641040000000  0.5062300000000 1.0
C      1  0.3967420000000  0.4379820000000  0.5099020000000 1.0
C      1  0.5851400000000  0.4270670000000  0.4918190000000 1.0
C      1  0.5070690000000  0.5505830000000  0.4858700000000 1.0
C      1  0.5342310000000  0.5869780000000  0.4315540000000 1.0
C      1  0.4513080000000  0.4552210000000  0.4908620000000 1.0
C      1  0.4802980000000  0.5404890000000  0.4839370000000 1.0
C      1  0.4375550000000  0.5170720000000  0.6008570000000 1.0
C      1  0.5712090000000  0.5812500000000  0.4788320000000 1.0
C      1  0.4018130000000  0.5511800000000  0.5157030000000 1.0
C      1  0.4852380000000  0.4667230000000  0.4398780000000 1.0
C      1  0.4428030000000  0.5704690000000  0.4321500000000 1.0
C      1  0.6170380000000  0.5237970000000  0.5117280000000 1.0
C      1  0.4122340000000  0.4317870000000  0.5339660000000 1.0
C      1  0.4184760000000  0.5433280000000  0.5585080000000 1.0
C      1  0.4460900000000  0.4763140000000  0.5638190000000 1.0
C      1  0.4191730000000  0.4954890000000  0.5941530000000 1.0
C      1  0.5875220000000  0.4296550000000  0.4614950000000 1.0
C      1  0.4127810000000  0.4257800000000  0.4893720000000 1.0
C      1  0.5209480000000  0.3972580000000  0.4519800000000 1.0
C      1  0.4691170000000  0.5744480000000  0.3999410000000 1.0
C      1  0.4797200000000  0.5058050000000  0.4138980000000 1.0
C      1  0.5628170000000  0.5784090000000  0.5238240000000 1.0
C      1  0.4186340000000  0.5327530000000  0.4303060000000 1.0
C      1  0.4133270000000  0.4604440000000  0.4463070000000 1.0
C      1  0.5653410000000  0.5131990000000  0.5877250000000 1.0
C      1  0.5229070000000  0.5985420000000  0.4930060000000 1.0
C      1  0.5279890000000  0.4952760000000  0.4396480000000 1.0
C      1  0.4577250000000  0.5479320000000  0.4992260000000 1.0
C      1  0.5639950000000  0.4057100000000  0.4877790000000 1.0
C      1  0.5045870000000  0.4402010000000  0.5175920000000 1.0
C      1  0.4235060000000  0.4397490000000  0.4660730000000 1.0
C      1  0.5063500000000  0.5469050000000  0.6079980000000 1.0
C      1  0.4881800000000  0.4658070000000  0.3878320000000 1.0
C      1  0.5237150000000  0.4485640000000  0.4830740000000 1.0
C      1  0.4661030000000  0.5138460000000  0.6047740000000 1.0
C      1  0.4736750000000  0.4462620000000  0.4737290000000 1.0
C      1  0.5649020000000  0.5550010000000  0.4093520000000 1.0
C      1  0.5939290000000  0.5083140000000  0.5215030000000 1.0
C      1  0.4518350000000  0.4743000000000  0.5096910000000 1.0
C      1  0.4319980000000  0.4926580000000  0.5119600000000 1.0
C      1  0.5033680000000  0.5101610000000  0.5478160000000 1.0
C      1  0.5183200000000  0.5155200000000  0.5247670000000 1.0
C      1  0.5292700000000  0.4644520000000  0.5612020000000 1.0
C      1  0.5529610000000  0.4670440000000  0.5970160000000 1.0
C      1  0.5579630000000  0.5619090000000  0.5649870000000 1.0
C      1  0.4932290000000  0.3950690000000  0.5173220000000 1.0
C      1  0.4801660000000  0.5080620000000  0.5329530000000 1.0
C      1  0.5423020000000  0.4618990000000  0.5368130000000 1.0
C      1  0.3885890000000  0.5051200000000  0.5478790000000 1.0
C      1  0.4502680000000  0.5719830000000  0.4792730000000 1.0
C      1  0.4502170000000  0.6022910000000  0.5125350000000 1.0
C      1  0.5628060000000  0.4541500000000  0.4243270000000 1.0
C      1  0.5482300000000  0.4740440000000  0.4443990000000 1.0
C      1  0.4854870000000  0.3943270000000  0.4884250000000 1.0
C      1  0.5135610000000  0.5581310000000  0.4065730000000 1.0
END
