TITL C-884132-5695-235 32.3908337995524 125000 -13805.1547626981 0 0 94 (C1) n - 1
REM
REM in /home/nfs/bkarasulu/CARBON/AIRSS/Generating-Clusters/ReaxFF-fromJPCA2015/Units_Real/with-SteepDescent/Only-C1/SD-CG/Try1-3A/FIRE-CG
REM
REM
REM
REM
REM
REM ./C.cell (11c1c37f851c82e70ff6c80c92926a4b)
REM
REM compiler GCC version 9.2.1 20190827 (Red Hat 9.2.1-1)
REM options -cpp -mtune=generic -march=x86-64 -g -O0 -fpre-include=/usr/include/finclude/math-vector-fortran.h
REM seed 253052133 671452179 1613249581 -422585521 -1663909795 1868411509 269144339 919667870 519453862 2030994398 266309117 -367017469 383090401 1102375495 -622974545 621364095 1715241079 -1379400016 534927386 -1734528522 -679438763 650971331 -1728490125 -1405086081 429417815 -597253644 307527903 554822533 1365415451 -1159316304 210190947 251989624 227285501
REM
CELL 1.54180   50.00000   50.00000   50.00000   90.00000   90.00000   90.00000
LATT -1
SFAC C  
C      1  0.5639410000000  0.5102660000000  0.4548330000000 1.0
C      1  0.4215660000000  0.5342380000000  0.5299030000000 1.0
C      1  0.4243380000000  0.4782550000000  0.4937810000000 1.0
C      1  0.5360100000000  0.5399120000000  0.5599210000000 1.0
C      1  0.4743280000000  0.4796970000000  0.4333270000000 1.0
C      1  0.4226450000000  0.4675010000000  0.4670600000000 1.0
C      1  0.5444060000000  0.5101850000000  0.4783230000000 1.0
C      1  0.5877500000000  0.5055700000000  0.5810260000000 1.0
C      1  0.4806210000000  0.4161350000000  0.5494550000000 1.0
C      1  0.5632320000000  0.4712200000000  0.5522940000000 1.0
C      1  0.4478640000000  0.5181780000000  0.5278640000000 1.0
C      1  0.5268390000000  0.5332560000000  0.4760890000000 1.0
C      1  0.4970270000000  0.5264280000000  0.5183970000000 1.0
C      1  0.4785280000000  0.5726240000000  0.4544170000000 1.0
C      1  0.4317030000000  0.4334930000000  0.4326730000000 1.0
C      1  0.4708500000000  0.5635330000000  0.5216930000000 1.0
C      1  0.4144520000000  0.4925340000000  0.4563250000000 1.0
C      1  0.5159080000000  0.5031080000000  0.5811220000000 1.0
C      1  0.5450660000000  0.5758900000000  0.4961050000000 1.0
C      1  0.5173740000000  0.4795050000000  0.5366260000000 1.0
C      1  0.5043520000000  0.5438170000000  0.5609280000000 1.0
C      1  0.5411510000000  0.5166810000000  0.5749560000000 1.0
C      1  0.5040660000000  0.4762310000000  0.4398010000000 1.0
C      1  0.5070560000000  0.4778080000000  0.4721730000000 1.0
C      1  0.4904930000000  0.5663290000000  0.5448420000000 1.0
C      1  0.5307270000000  0.5561980000000  0.4568240000000 1.0
C      1  0.5498080000000  0.5500420000000  0.5362900000000 1.0
C      1  0.5770910000000  0.4883430000000  0.4919280000000 1.0
C      1  0.4561180000000  0.5546160000000  0.4641230000000 1.0
C      1  0.4524810000000  0.5739330000000  0.4850890000000 1.0
C      1  0.5154460000000  0.4173320000000  0.4922710000000 1.0
C      1  0.4892920000000  0.5813400000000  0.5059900000000 1.0
C      1  0.5541040000000  0.4441430000000  0.5421590000000 1.0
C      1  0.4469950000000  0.4765010000000  0.5586670000000 1.0
C      1  0.5013080000000  0.5230480000000  0.4671100000000 1.0
C      1  0.5594090000000  0.4644100000000  0.4472740000000 1.0
C      1  0.5248960000000  0.4960620000000  0.4297460000000 1.0
C      1  0.5525650000000  0.4901460000000  0.4356020000000 1.0
C      1  0.4165470000000  0.5312160000000  0.4822970000000 1.0
C      1  0.5660090000000  0.4417450000000  0.4913910000000 1.0
C      1  0.5649200000000  0.4959810000000  0.5754600000000 1.0
C      1  0.4957030000000  0.5806700000000  0.4774410000000 1.0
C      1  0.4917120000000  0.4627390000000  0.5795770000000 1.0
C      1  0.4483960000000  0.4934120000000  0.5036540000000 1.0
C      1  0.5776480000000  0.5468380000000  0.4690850000000 1.0
C      1  0.5762530000000  0.5079120000000  0.5133740000000 1.0
C      1  0.4749390000000  0.5291060000000  0.4800040000000 1.0
C      1  0.4662500000000  0.4541150000000  0.4420230000000 1.0
C      1  0.4678340000000  0.4725370000000  0.5088100000000 1.0
C      1  0.5383170000000  0.4238270000000  0.5271310000000 1.0
C      1  0.4869790000000  0.5549850000000  0.4315070000000 1.0
C      1  0.4880220000000  0.4365450000000  0.4525810000000 1.0
C      1  0.4097020000000  0.5027250000000  0.4835170000000 1.0
C      1  0.5406040000000  0.4416610000000  0.4411940000000 1.0
C      1  0.5681890000000  0.5565360000000  0.4947290000000 1.0
C      1  0.5303210000000  0.4850270000000  0.4872100000000 1.0
C      1  0.5366140000000  0.5734950000000  0.5232410000000 1.0
C      1  0.5252930000000  0.5787510000000  0.4743210000000 1.0
C      1  0.5724650000000  0.4653160000000  0.4749770000000 1.0
C      1  0.4466010000000  0.4543160000000  0.5386290000000 1.0
C      1  0.4722560000000  0.5346140000000  0.5112150000000 1.0
C      1  0.5082480000000  0.5806590000000  0.5278290000000 1.0
C      1  0.5159790000000  0.5483360000000  0.4330400000000 1.0
C      1  0.4898060000000  0.4272400000000  0.4803420000000 1.0
C      1  0.5134210000000  0.4771090000000  0.5663300000000 1.0
C      1  0.4811370000000  0.4801120000000  0.4841960000000 1.0
C      1  0.4203940000000  0.5509450000000  0.5058750000000 1.0
C      1  0.4594980000000  0.5054070000000  0.4292240000000 1.0
C      1  0.4946710000000  0.4387690000000  0.5635300000000 1.0
C      1  0.4305310000000  0.5355420000000  0.4579470000000 1.0
C      1  0.4661010000000  0.4776990000000  0.5814690000000 1.0
C      1  0.5141840000000  0.5058770000000  0.5253060000000 1.0
C      1  0.4689690000000  0.4267660000000  0.5010140000000 1.0
C      1  0.5113650000000  0.5199650000000  0.4390950000000 1.0
C      1  0.4684680000000  0.5073300000000  0.5787390000000 1.0
C      1  0.4500970000000  0.4491310000000  0.5094250000000 1.0
C      1  0.4992640000000  0.5217870000000  0.5428480000000 1.0
C      1  0.4386290000000  0.4490930000000  0.4526340000000 1.0
C      1  0.5115880000000  0.4452050000000  0.4380610000000 1.0
C      1  0.5342460000000  0.4723100000000  0.5142970000000 1.0
C      1  0.4636460000000  0.5020390000000  0.4809140000000 1.0
C      1  0.4722840000000  0.5306140000000  0.4281310000000 1.0
C      1  0.4934540000000  0.5217900000000  0.5821160000000 1.0
C      1  0.5441010000000  0.4234040000000  0.4981740000000 1.0
C      1  0.5700050000000  0.4899470000000  0.5342440000000 1.0
C      1  0.4816290000000  0.4094270000000  0.5211020000000 1.0
C      1  0.4498680000000  0.5053590000000  0.5548390000000 1.0
C      1  0.4736590000000  0.4440840000000  0.5432560000000 1.0
C      1  0.5669860000000  0.5375790000000  0.5163120000000 1.0
C      1  0.4415360000000  0.5719690000000  0.5097570000000 1.0
C      1  0.5588590000000  0.4561720000000  0.5158390000000 1.0
C      1  0.4327360000000  0.5117210000000  0.4428010000000 1.0
C      1  0.5112350000000  0.4108510000000  0.5203520000000 1.0
C      1  0.5800270000000  0.5331870000000  0.4505880000000 1.0
END
