TITL C-884140-4336-171 1.33500114071001 125000 -25084.9088543332 0 0 167 (C1) n - 1
REM
REM in /home/nfs/bkarasulu/CARBON/AIRSS/Generating-Clusters/ReaxFF-fromJPCA2015/Units_Real/with-SteepDescent/Only-C1/SD-CG/Try1-3A/FIRE-CG
REM
REM
REM
REM
REM
REM ./C.cell (11c1c37f851c82e70ff6c80c92926a4b)
REM
REM compiler GCC version 9.2.1 20190827 (Red Hat 9.2.1-1)
REM options -cpp -mtune=generic -march=x86-64 -g -O0 -fpre-include=/usr/include/finclude/math-vector-fortran.h
REM seed -1482017109 -1463210540 -60248817 -1245920979 -761618815 100293082 -1031858751 -1272619688 -804121997 464323478 -731251496 747257701 -1197574648 -1616817878 -1581355955 675203700 297646899 243668376 -1162584642 -142064990 888677579 -1961342785 1923579995 -1714381315 -75115220 40618987 1096798955 1315142836 -382433282 1200050770 922833749 -421634661 970687589
REM
CELL 1.54180   50.00000   50.00000   50.00000   90.00000   90.00000   90.00000
LATT -1
SFAC C  
C      1  0.5990880000000  0.5375480000000  0.4919960000000 1.0
C      1  0.5205970000000  0.4725450000000  0.6061360000000 1.0
C      1  0.4563180000000  0.3936870000000  0.5780690000000 1.0
C      1  0.4249230000000  0.5260010000000  0.5522980000000 1.0
C      1  0.4927830000000  0.5508590000000  0.5590970000000 1.0
C      1  0.4659210000000  0.5444130000000  0.4311350000000 1.0
C      1  0.4819660000000  0.6009630000000  0.5410710000000 1.0
C      1  0.4871690000000  0.5971180000000  0.5130970000000 1.0
C      1  0.4881470000000  0.4346400000000  0.6063960000000 1.0
C      1  0.3955930000000  0.5199820000000  0.4714630000000 1.0
C      1  0.4948220000000  0.4311950000000  0.4267890000000 1.0
C      1  0.4723560000000  0.5179310000000  0.5924030000000 1.0
C      1  0.5557760000000  0.5330290000000  0.4189030000000 1.0
C      1  0.4450290000000  0.5086340000000  0.4943130000000 1.0
C      1  0.4559270000000  0.4958700000000  0.4524750000000 1.0
C      1  0.5228850000000  0.4129340000000  0.4844560000000 1.0
C      1  0.4967970000000  0.4098930000000  0.4466590000000 1.0
C      1  0.4602000000000  0.4529450000000  0.5405230000000 1.0
C      1  0.5695360000000  0.4355800000000  0.4603660000000 1.0
C      1  0.4916750000000  0.4881900000000  0.5511820000000 1.0
C      1  0.5406220000000  0.5955000000000  0.4974390000000 1.0
C      1  0.5331780000000  0.4571870000000  0.4552520000000 1.0
C      1  0.5244800000000  0.4055180000000  0.4554620000000 1.0
C      1  0.5666620000000  0.5029670000000  0.5173390000000 1.0
C      1  0.4890080000000  0.4886490000000  0.4955950000000 1.0
C      1  0.5279260000000  0.5248140000000  0.5094150000000 1.0
C      1  0.4328530000000  0.5260930000000  0.5826360000000 1.0
C      1  0.5997770000000  0.5530650000000  0.5172450000000 1.0
C      1  0.5235450000000  0.4332810000000  0.5703730000000 1.0
C      1  0.5844410000000  0.5596810000000  0.4606460000000 1.0
C      1  0.5657250000000  0.5446780000000  0.5489660000000 1.0
C      1  0.4802820000000  0.4767750000000  0.4505060000000 1.0
C      1  0.4186570000000  0.5823920000000  0.5154580000000 1.0
C      1  0.4514380000000  0.4074650000000  0.4856880000000 1.0
C      1  0.4633080000000  0.4465540000000  0.5114770000000 1.0
C      1  0.4993920000000  0.4549910000000  0.6107570000000 1.0
C      1  0.4061420000000  0.4882320000000  0.4732870000000 1.0
C      1  0.5822050000000  0.4809930000000  0.4697350000000 1.0
C      1  0.5395210000000  0.5587280000000  0.5654550000000 1.0
C      1  0.5364380000000  0.4559130000000  0.5885600000000 1.0
C      1  0.4797860000000  0.4728230000000  0.3909480000000 1.0
C      1  0.5008770000000  0.6047100000000  0.4707070000000 1.0
C      1  0.5169300000000  0.4415030000000  0.4114470000000 1.0
C      1  0.5143120000000  0.5930050000000  0.4338350000000 1.0
C      1  0.5793130000000  0.4611810000000  0.4499420000000 1.0
C      1  0.4321490000000  0.5999050000000  0.4665700000000 1.0
C      1  0.5183530000000  0.4895600000000  0.5427140000000 1.0
C      1  0.4319430000000  0.4821140000000  0.5668040000000 1.0
C      1  0.4362590000000  0.4863920000000  0.4781800000000 1.0
C      1  0.5572760000000  0.4744860000000  0.5808430000000 1.0
C      1  0.5056990000000  0.3917840000000  0.5019220000000 1.0
C      1  0.4430810000000  0.5654020000000  0.4326730000000 1.0
C      1  0.4826200000000  0.5239110000000  0.4085550000000 1.0
C      1  0.4686350000000  0.5010950000000  0.5384450000000 1.0
C      1  0.5178150000000  0.5662830000000  0.4262780000000 1.0
C      1  0.5226060000000  0.5019700000000  0.5991600000000 1.0
C      1  0.5775670000000  0.5227550000000  0.4302730000000 1.0
C      1  0.4704200000000  0.4063620000000  0.4627850000000 1.0
C      1  0.5535570000000  0.5828770000000  0.5207490000000 1.0
C      1  0.5160630000000  0.5611910000000  0.4904010000000 1.0
C      1  0.5893900000000  0.5109900000000  0.5015520000000 1.0
C      1  0.5975450000000  0.4840620000000  0.4481420000000 1.0
C      1  0.4373750000000  0.5942490000000  0.4952160000000 1.0
C      1  0.5110390000000  0.6039870000000  0.4979070000000 1.0
C      1  0.4008840000000  0.5415560000000  0.5363490000000 1.0
C      1  0.4145990000000  0.4968230000000  0.5502270000000 1.0
C      1  0.5007350000000  0.5280050000000  0.4566640000000 1.0
C      1  0.5349100000000  0.5078010000000  0.5535780000000 1.0
C      1  0.5254480000000  0.3915930000000  0.5449310000000 1.0
C      1  0.4308220000000  0.4584660000000  0.4153250000000 1.0
C      1  0.5892230000000  0.5276020000000  0.5580300000000 1.0
C      1  0.5144260000000  0.4498320000000  0.5171540000000 1.0
C      1  0.4152470000000  0.4830070000000  0.4212020000000 1.0
C      1  0.5639680000000  0.4170510000000  0.5106050000000 1.0
C      1  0.4578770000000  0.5853290000000  0.5536700000000 1.0
C      1  0.4853060000000  0.4601450000000  0.5538560000000 1.0
C      1  0.6127640000000  0.4939270000000  0.5071500000000 1.0
C      1  0.5487810000000  0.5955750000000  0.4698230000000 1.0
C      1  0.5492820000000  0.5035550000000  0.4690120000000 1.0
C      1  0.4061580000000  0.4527670000000  0.5133700000000 1.0
C      1  0.5953720000000  0.4985650000000  0.5552400000000 1.0
C      1  0.4962960000000  0.3907270000000  0.5470980000000 1.0
C      1  0.5383470000000  0.5431070000000  0.4894190000000 1.0
C      1  0.5271640000000  0.5028670000000  0.4898600000000 1.0
C      1  0.5634540000000  0.4243700000000  0.5400740000000 1.0
C      1  0.4819950000000  0.3978810000000  0.5734230000000 1.0
C      1  0.4900520000000  0.5617940000000  0.4251990000000 1.0
C      1  0.3967690000000  0.5444180000000  0.4569060000000 1.0
C      1  0.4524670000000  0.5244520000000  0.5402120000000 1.0
C      1  0.5255490000000  0.5985990000000  0.5716890000000 1.0
C      1  0.6016780000000  0.5383570000000  0.4622200000000 1.0
C      1  0.5190410000000  0.4452210000000  0.4774390000000 1.0
C      1  0.4970980000000  0.5544100000000  0.4698240000000 1.0
C      1  0.4288770000000  0.4181310000000  0.5194650000000 1.0
C      1  0.5409710000000  0.4134790000000  0.5557460000000 1.0
C      1  0.5046580000000  0.5222680000000  0.4278350000000 1.0
C      1  0.5312330000000  0.4713600000000  0.5259560000000 1.0
C      1  0.4235540000000  0.4488820000000  0.4430540000000 1.0
C      1  0.5401290000000  0.4414670000000  0.4305230000000 1.0
C      1  0.4677780000000  0.5006990000000  0.5103110000000 1.0
C      1  0.5815840000000  0.4718310000000  0.5632980000000 1.0
C      1  0.5737540000000  0.4484410000000  0.5511600000000 1.0
C      1  0.4281630000000  0.4257480000000  0.4917080000000 1.0
C      1  0.5444270000000  0.5014920000000  0.5803680000000 1.0
C      1  0.5294930000000  0.3851340000000  0.5164060000000 1.0
C      1  0.4805090000000  0.5808880000000  0.4662440000000 1.0
C      1  0.5988150000000  0.5132660000000  0.4427080000000 1.0
C      1  0.5626940000000  0.5748390000000  0.4538800000000 1.0
C      1  0.4456250000000  0.4488040000000  0.4624830000000 1.0
C      1  0.4371830000000  0.5832990000000  0.5356750000000 1.0
C      1  0.4061380000000  0.4721900000000  0.4471500000000 1.0
C      1  0.4587790000000  0.4583360000000  0.4069710000000 1.0
C      1  0.4477650000000  0.5015560000000  0.5859370000000 1.0
C      1  0.3930370000000  0.5444020000000  0.4865950000000 1.0
C      1  0.4789950000000  0.4996540000000  0.3980370000000 1.0
C      1  0.5326770000000  0.5729430000000  0.5387850000000 1.0
C      1  0.6152450000000  0.5044130000000  0.5346900000000 1.0
C      1  0.5460850000000  0.5325010000000  0.4640120000000 1.0
C      1  0.5581130000000  0.4765720000000  0.5164650000000 1.0
C      1  0.5026720000000  0.5215980000000  0.5919170000000 1.0
C      1  0.4253980000000  0.5280870000000  0.4269810000000 1.0
C      1  0.4365720000000  0.5030660000000  0.4268010000000 1.0
C      1  0.4913310000000  0.4547210000000  0.4715490000000 1.0
C      1  0.6095880000000  0.5341870000000  0.5379620000000 1.0
C      1  0.5255960000000  0.6078490000000  0.4549690000000 1.0
C      1  0.5781760000000  0.4587590000000  0.5050920000000 1.0
C      1  0.5752420000000  0.5641640000000  0.5284890000000 1.0
C      1  0.4778510000000  0.4569920000000  0.4295920000000 1.0
C      1  0.4845410000000  0.3949200000000  0.5212890000000 1.0
C      1  0.4994960000000  0.4205240000000  0.5877320000000 1.0
C      1  0.6005780000000  0.4720730000000  0.4926830000000 1.0
C      1  0.5452040000000  0.5515270000000  0.4401490000000 1.0
C      1  0.4698380000000  0.4348810000000  0.4624150000000 1.0
C      1  0.5399950000000  0.4842100000000  0.4485770000000 1.0
C      1  0.4900170000000  0.4596450000000  0.5020540000000 1.0
C      1  0.5075490000000  0.4438460000000  0.5446900000000 1.0
C      1  0.5726570000000  0.4342940000000  0.4899750000000 1.0
C      1  0.4581330000000  0.5252200000000  0.4548320000000 1.0
C      1  0.3947700000000  0.4918080000000  0.5271750000000 1.0
C      1  0.5091430000000  0.4653440000000  0.3963800000000 1.0
C      1  0.5450640000000  0.4008320000000  0.4998220000000 1.0
C      1  0.4683110000000  0.5411940000000  0.5236110000000 1.0
C      1  0.5024800000000  0.5018980000000  0.4733160000000 1.0
C      1  0.5428700000000  0.4903110000000  0.4215510000000 1.0
C      1  0.4606180000000  0.5526980000000  0.4985600000000 1.0
C      1  0.4409540000000  0.4531320000000  0.4905200000000 1.0
C      1  0.4679510000000  0.5623710000000  0.5696990000000 1.0
C      1  0.5143510000000  0.5440270000000  0.5769780000000 1.0
C      1  0.4162340000000  0.5527710000000  0.4343800000000 1.0
C      1  0.3971970000000  0.4757810000000  0.5018380000000 1.0
C      1  0.5470740000000  0.5848570000000  0.5835820000000 1.0
C      1  0.4015770000000  0.5573030000000  0.5122350000000 1.0
C      1  0.5486510000000  0.5208560000000  0.5318100000000 1.0
C      1  0.4611570000000  0.4128780000000  0.5135550000000 1.0
C      1  0.5132390000000  0.5627220000000  0.5196300000000 1.0
C      1  0.4534440000000  0.5850050000000  0.4509590000000 1.0
C      1  0.4665750000000  0.5813420000000  0.4954090000000 1.0
C      1  0.4565180000000  0.5427540000000  0.5887250000000 1.0
C      1  0.4510510000000  0.5330110000000  0.4810270000000 1.0
C      1  0.4972530000000  0.5411610000000  0.5307500000000 1.0
C      1  0.5313790000000  0.5141840000000  0.4111750000000 1.0
C      1  0.4178590000000  0.4397020000000  0.5359000000000 1.0
C      1  0.3903340000000  0.5194080000000  0.5250590000000 1.0
C      1  0.5290380000000  0.4854960000000  0.3987980000000 1.0
C      1  0.4355310000000  0.4553650000000  0.5548480000000 1.0
C      1  0.5490030000000  0.4188370000000  0.4460580000000 1.0
C      1  0.5042300000000  0.6019680000000  0.5577210000000 1.0
END
