TITL C-884142-5251-216 -2.55844011964591 125000 -10609.5668046436 0 0 73 (C1) n - 1
REM
REM in /home/nfs/bkarasulu/CARBON/AIRSS/Generating-Clusters/ReaxFF-fromJPCA2015/Units_Real/with-SteepDescent/Only-C1/SD-CG/Try1-3A/FIRE-CG
REM
REM
REM
REM
REM
REM ./C.cell (11c1c37f851c82e70ff6c80c92926a4b)
REM
REM compiler GCC version 9.2.1 20190827 (Red Hat 9.2.1-1)
REM options -cpp -mtune=generic -march=x86-64 -g -O0 -fpre-include=/usr/include/finclude/math-vector-fortran.h
REM seed -797657143 -443985598 1804488553 -188627758 -2080658484 -737012887 -1478643575 -1888844094 1034170462 1469505108 1017375757 663253967 1040623065 381240567 1006626467 1559011836 -558106181 -404246978 -544284176 -460704861 1602540811 -1581616813 -497282207 438759602 -441748384 -2134994830 -1495837249 -318370535 -612725153 -808669533 122476579 -1010261123 1645083943
REM
CELL 1.54180   50.00000   50.00000   50.00000   90.00000   90.00000   90.00000
LATT -1
SFAC C  
C      1  0.5771560000000  0.5157240000000  0.4698670000000 1.0
C      1  0.5414590000000  0.5428900000000  0.4521420000000 1.0
C      1  0.4628250000000  0.4635270000000  0.5477610000000 1.0
C      1  0.5679750000000  0.4585960000000  0.4923830000000 1.0
C      1  0.5167880000000  0.4466710000000  0.4425950000000 1.0
C      1  0.4463490000000  0.5617070000000  0.4790690000000 1.0
C      1  0.5225280000000  0.5481950000000  0.4914390000000 1.0
C      1  0.5162130000000  0.5008330000000  0.4357100000000 1.0
C      1  0.5352220000000  0.4302420000000  0.4596440000000 1.0
C      1  0.5609090000000  0.4809590000000  0.5426390000000 1.0
C      1  0.5115500000000  0.4216240000000  0.4775400000000 1.0
C      1  0.5429830000000  0.4409890000000  0.5341770000000 1.0
C      1  0.4608510000000  0.5227930000000  0.4705300000000 1.0
C      1  0.4869340000000  0.4912630000000  0.4901630000000 1.0
C      1  0.4929030000000  0.4420740000000  0.4871940000000 1.0
C      1  0.5336450000000  0.5274270000000  0.5728990000000 1.0
C      1  0.4302930000000  0.4591140000000  0.4879240000000 1.0
C      1  0.5654610000000  0.4869050000000  0.4746440000000 1.0
C      1  0.4900230000000  0.4709380000000  0.4717840000000 1.0
C      1  0.4983860000000  0.5406070000000  0.5038110000000 1.0
C      1  0.5612710000000  0.4583680000000  0.5207840000000 1.0
C      1  0.5314200000000  0.5721380000000  0.4803350000000 1.0
C      1  0.4637160000000  0.5010310000000  0.4357840000000 1.0
C      1  0.4661470000000  0.4900040000000  0.5589120000000 1.0
C      1  0.5253470000000  0.4999010000000  0.4976860000000 1.0
C      1  0.4654390000000  0.5495180000000  0.5553040000000 1.0
C      1  0.4830630000000  0.5334080000000  0.4537510000000 1.0
C      1  0.5093570000000  0.4391480000000  0.5571650000000 1.0
C      1  0.5167810000000  0.4764220000000  0.4539600000000 1.0
C      1  0.5275610000000  0.5157390000000  0.5209560000000 1.0
C      1  0.5205900000000  0.5641240000000  0.4546840000000 1.0
C      1  0.4341790000000  0.4390880000000  0.5101010000000 1.0
C      1  0.4845090000000  0.5671250000000  0.5069420000000 1.0
C      1  0.4901580000000  0.5137240000000  0.4330450000000 1.0
C      1  0.5111970000000  0.4388150000000  0.5284270000000 1.0
C      1  0.4363170000000  0.4867760000000  0.4946220000000 1.0
C      1  0.5201660000000  0.5011630000000  0.5710010000000 1.0
C      1  0.4612800000000  0.4469790000000  0.4450480000000 1.0
C      1  0.5498270000000  0.5535470000000  0.4966860000000 1.0
C      1  0.4485190000000  0.5614580000000  0.5351610000000 1.0
C      1  0.4751900000000  0.4297540000000  0.5073230000000 1.0
C      1  0.4912180000000  0.5606810000000  0.4577050000000 1.0
C      1  0.4609360000000  0.5001730000000  0.4869440000000 1.0
C      1  0.5432480000000  0.5417820000000  0.5296160000000 1.0
C      1  0.5230020000000  0.5620650000000  0.5429040000000 1.0
C      1  0.4505910000000  0.4224280000000  0.4918470000000 1.0
C      1  0.4989290000000  0.5183950000000  0.5237010000000 1.0
C      1  0.4275370000000  0.5011330000000  0.5200330000000 1.0
C      1  0.5033380000000  0.5735970000000  0.5263760000000 1.0
C      1  0.4574970000000  0.4429200000000  0.5288120000000 1.0
C      1  0.5648770000000  0.5019890000000  0.4479210000000 1.0
C      1  0.5408050000000  0.5160480000000  0.4384540000000 1.0
C      1  0.4427870000000  0.5207610000000  0.4475010000000 1.0
C      1  0.4441390000000  0.4403580000000  0.4692220000000 1.0
C      1  0.4891290000000  0.4412900000000  0.4406610000000 1.0
C      1  0.5572170000000  0.5325690000000  0.5546910000000 1.0
C      1  0.4737590000000  0.5710740000000  0.4789900000000 1.0
C      1  0.5349180000000  0.4863200000000  0.4774360000000 1.0
C      1  0.4362060000000  0.5545710000000  0.5073780000000 1.0
C      1  0.5393860000000  0.4795270000000  0.5628200000000 1.0
C      1  0.5142980000000  0.5479870000000  0.5674360000000 1.0
C      1  0.4875770000000  0.5350200000000  0.5684370000000 1.0
C      1  0.4456920000000  0.5004420000000  0.5423010000000 1.0
C      1  0.4298910000000  0.5293450000000  0.5161250000000 1.0
C      1  0.5625930000000  0.5402910000000  0.4721650000000 1.0
C      1  0.5354760000000  0.4497830000000  0.5620190000000 1.0
C      1  0.5639630000000  0.5081210000000  0.5435690000000 1.0
C      1  0.4680930000000  0.4753340000000  0.4492920000000 1.0
C      1  0.5004430000000  0.4657450000000  0.5278380000000 1.0
C      1  0.4350010000000  0.5491800000000  0.4536450000000 1.0
C      1  0.5530860000000  0.4432410000000  0.4760670000000 1.0
C      1  0.4916820000000  0.5065300000000  0.5683020000000 1.0
C      1  0.4901970000000  0.4899900000000  0.5182020000000 1.0
END
