TITL C-883741-3679-82 105.011081723329 125000 -29564.8583349351 0 0 198 (C1) n - 1
REM
REM in /home/nfs/bkarasulu/CARBON/AIRSS/Generating-Clusters/ReaxFF-fromJPCA2015/Units_Real/with-SteepDescent/Only-C1/SD-CG/Try1-3A/FIRE-CG
REM
REM
REM
REM
REM
REM ./C.cell (11c1c37f851c82e70ff6c80c92926a4b)
REM
REM compiler GCC version 9.2.1 20190827 (Red Hat 9.2.1-1)
REM options -cpp -mtune=generic -march=x86-64 -g -O0 -fpre-include=/usr/include/finclude/math-vector-fortran.h
REM seed -1376802741 1600904856 -1097418755 -818634380 148098401 -714536704 -1330835193 2069023745 -1837078352 282978292 655833292 -833563309 1356508155 -289422916 -1025763525 -1402950164 -1713760277 -79134718 242226530 -421596785 -89874426 1222868782 158367303 -603544750 1286863303 -2092641804 798579477 -1486698881 445870819 1460132474 -1054324513 1065756112 -384264328
REM
CELL 1.54180   50.00000   50.00000   50.00000   90.00000   90.00000   90.00000
LATT -1
SFAC C  
C      1  0.5565860000000  0.4554270000000  0.4104290000000 1.0
C      1  0.5193290000000  0.4596300000000  0.4922420000000 1.0
C      1  0.4980260000000  0.5399610000000  0.4930700000000 1.0
C      1  0.4143290000000  0.4710640000000  0.5683050000000 1.0
C      1  0.4483110000000  0.4855140000000  0.5546560000000 1.0
C      1  0.4286740000000  0.5750590000000  0.5125970000000 1.0
C      1  0.5675280000000  0.4283060000000  0.5624050000000 1.0
C      1  0.5193740000000  0.5687680000000  0.4527940000000 1.0
C      1  0.4061150000000  0.4579290000000  0.4417280000000 1.0
C      1  0.5489300000000  0.5391320000000  0.5420620000000 1.0
C      1  0.5855870000000  0.4333190000000  0.5218300000000 1.0
C      1  0.5924520000000  0.4753570000000  0.5539590000000 1.0
C      1  0.5476460000000  0.5633680000000  0.4533400000000 1.0
C      1  0.5533430000000  0.5588050000000  0.5685340000000 1.0
C      1  0.5277060000000  0.4723020000000  0.5582660000000 1.0
C      1  0.4653290000000  0.5615910000000  0.4590480000000 1.0
C      1  0.6024510000000  0.5326910000000  0.5647190000000 1.0
C      1  0.4400180000000  0.4936810000000  0.5295810000000 1.0
C      1  0.5697740000000  0.5206940000000  0.5334910000000 1.0
C      1  0.4286750000000  0.4152510000000  0.5289660000000 1.0
C      1  0.4913610000000  0.5863660000000  0.4856820000000 1.0
C      1  0.5623550000000  0.4665120000000  0.4769600000000 1.0
C      1  0.3947880000000  0.4839860000000  0.4500220000000 1.0
C      1  0.4349240000000  0.4189340000000  0.5584890000000 1.0
C      1  0.5488020000000  0.4369860000000  0.5821930000000 1.0
C      1  0.5271330000000  0.5354720000000  0.4994750000000 1.0
C      1  0.5008420000000  0.4192390000000  0.4751250000000 1.0
C      1  0.3840280000000  0.5428050000000  0.5203290000000 1.0
C      1  0.4979130000000  0.5102700000000  0.4604940000000 1.0
C      1  0.5709030000000  0.5123000000000  0.4377760000000 1.0
C      1  0.5335310000000  0.4924070000000  0.6041510000000 1.0
C      1  0.6003060000000  0.5230160000000  0.5355710000000 1.0
C      1  0.5486540000000  0.4747820000000  0.4269570000000 1.0
C      1  0.5286230000000  0.4485010000000  0.4040610000000 1.0
C      1  0.4576870000000  0.4225450000000  0.5769580000000 1.0
C      1  0.4746380000000  0.5178550000000  0.4481590000000 1.0
C      1  0.5583340000000  0.4805030000000  0.5938310000000 1.0
C      1  0.4796640000000  0.5810710000000  0.4236860000000 1.0
C      1  0.4457350000000  0.5076940000000  0.4049620000000 1.0
C      1  0.6071100000000  0.4916680000000  0.5356600000000 1.0
C      1  0.4196670000000  0.4249970000000  0.4883530000000 1.0
C      1  0.5432630000000  0.4699560000000  0.4548040000000 1.0
C      1  0.6070140000000  0.4764520000000  0.4595270000000 1.0
C      1  0.5207870000000  0.5086620000000  0.4455720000000 1.0
C      1  0.5075600000000  0.4612960000000  0.5420860000000 1.0
C      1  0.5766580000000  0.4415720000000  0.4756440000000 1.0
C      1  0.4476440000000  0.5106780000000  0.4557080000000 1.0
C      1  0.5754510000000  0.5338360000000  0.4838840000000 1.0
C      1  0.5568970000000  0.5354820000000  0.5878340000000 1.0
C      1  0.4734630000000  0.4934800000000  0.6043450000000 1.0
C      1  0.4185460000000  0.4757410000000  0.4889280000000 1.0
C      1  0.4967010000000  0.4369850000000  0.5293330000000 1.0
C      1  0.5641990000000  0.4130580000000  0.5222530000000 1.0
C      1  0.4316070000000  0.5507910000000  0.4369740000000 1.0
C      1  0.5792890000000  0.4427880000000  0.4266680000000 1.0
C      1  0.6138950000000  0.4646050000000  0.4883910000000 1.0
C      1  0.4406960000000  0.4791460000000  0.4020380000000 1.0
C      1  0.5004410000000  0.4473990000000  0.5926240000000 1.0
C      1  0.4620310000000  0.5875080000000  0.5431410000000 1.0
C      1  0.3895320000000  0.5018730000000  0.5291470000000 1.0
C      1  0.5198870000000  0.3974580000000  0.5213700000000 1.0
C      1  0.5467860000000  0.5128020000000  0.3973700000000 1.0
C      1  0.5500260000000  0.4636280000000  0.5740110000000 1.0
C      1  0.5610480000000  0.5463200000000  0.4303640000000 1.0
C      1  0.5054060000000  0.4360050000000  0.4988840000000 1.0
C      1  0.5676520000000  0.5924840000000  0.5302710000000 1.0
C      1  0.4435180000000  0.4127020000000  0.5038140000000 1.0
C      1  0.4257310000000  0.5772400000000  0.4829720000000 1.0
C      1  0.4712600000000  0.4663170000000  0.4380350000000 1.0
C      1  0.4870440000000  0.5973330000000  0.5554730000000 1.0
C      1  0.4928780000000  0.3898140000000  0.5157110000000 1.0
C      1  0.5960550000000  0.4989850000000  0.4960850000000 1.0
C      1  0.4706430000000  0.5019290000000  0.5607420000000 1.0
C      1  0.5184840000000  0.5027360000000  0.3928690000000 1.0
C      1  0.4358230000000  0.4636330000000  0.4688010000000 1.0
C      1  0.5099850000000  0.5119110000000  0.4201980000000 1.0
C      1  0.4750760000000  0.3913520000000  0.5375320000000 1.0
C      1  0.5544880000000  0.4047780000000  0.4518410000000 1.0
C      1  0.4570170000000  0.4568640000000  0.5050330000000 1.0
C      1  0.4667540000000  0.3961320000000  0.4970640000000 1.0
C      1  0.4794150000000  0.5427140000000  0.5518420000000 1.0
C      1  0.5123800000000  0.4880310000000  0.5040050000000 1.0
C      1  0.5483910000000  0.5278980000000  0.4783450000000 1.0
C      1  0.3808830000000  0.5350930000000  0.4941510000000 1.0
C      1  0.4987760000000  0.5883730000000  0.5125440000000 1.0
C      1  0.4266130000000  0.4593020000000  0.4204830000000 1.0
C      1  0.4691340000000  0.4476050000000  0.5290700000000 1.0
C      1  0.5582710000000  0.5006960000000  0.5172230000000 1.0
C      1  0.5178790000000  0.4593110000000  0.4629770000000 1.0
C      1  0.4406750000000  0.5578230000000  0.5832840000000 1.0
C      1  0.5214410000000  0.4279830000000  0.5820250000000 1.0
C      1  0.5157290000000  0.3917330000000  0.4721850000000 1.0
C      1  0.3863040000000  0.5279430000000  0.5436350000000 1.0
C      1  0.5630000000000  0.4957140000000  0.4151650000000 1.0
C      1  0.5403840000000  0.6028950000000  0.4713640000000 1.0
C      1  0.5340900000000  0.4135350000000  0.4347210000000 1.0
C      1  0.4953780000000  0.5608560000000  0.4716620000000 1.0
C      1  0.5317410000000  0.6131790000000  0.4953920000000 1.0
C      1  0.5105350000000  0.4733790000000  0.6030380000000 1.0
C      1  0.5060330000000  0.5284520000000  0.5900200000000 1.0
C      1  0.5309730000000  0.5075920000000  0.5159080000000 1.0
C      1  0.4703030000000  0.5219920000000  0.3965660000000 1.0
C      1  0.4337810000000  0.4730080000000  0.5121420000000 1.0
C      1  0.4057540000000  0.4283590000000  0.5147820000000 1.0
C      1  0.5446210000000  0.3921250000000  0.4767580000000 1.0
C      1  0.5182710000000  0.5977820000000  0.4455620000000 1.0
C      1  0.4589680000000  0.5603090000000  0.4309500000000 1.0
C      1  0.5156250000000  0.4240730000000  0.4178130000000 1.0
C      1  0.5854730000000  0.4463000000000  0.5478220000000 1.0
C      1  0.4298040000000  0.4835040000000  0.5896710000000 1.0
C      1  0.4189760000000  0.4403350000000  0.4630760000000 1.0
C      1  0.5736740000000  0.5782240000000  0.5541230000000 1.0
C      1  0.5816710000000  0.5201010000000  0.5813080000000 1.0
C      1  0.4948590000000  0.6113340000000  0.5308930000000 1.0
C      1  0.4916990000000  0.3790220000000  0.4679540000000 1.0
C      1  0.4508790000000  0.5227480000000  0.4928350000000 1.0
C      1  0.4800440000000  0.4167120000000  0.4540960000000 1.0
C      1  0.4159590000000  0.5593800000000  0.4613620000000 1.0
C      1  0.4723610000000  0.4725460000000  0.4853190000000 1.0
C      1  0.4958850000000  0.5269270000000  0.5362560000000 1.0
C      1  0.6165710000000  0.4849300000000  0.5091010000000 1.0
C      1  0.5152770000000  0.5467340000000  0.3965630000000 1.0
C      1  0.5191130000000  0.4985250000000  0.5651850000000 1.0
C      1  0.4565600000000  0.5391870000000  0.5339850000000 1.0
C      1  0.4977790000000  0.5259050000000  0.3847680000000 1.0
C      1  0.4653530000000  0.4333610000000  0.4074310000000 1.0
C      1  0.5428410000000  0.5397370000000  0.4049260000000 1.0
C      1  0.6149130000000  0.5526440000000  0.4835000000000 1.0
C      1  0.5802590000000  0.5507510000000  0.5055250000000 1.0
C      1  0.4626960000000  0.5451090000000  0.5965930000000 1.0
C      1  0.5943330000000  0.4626530000000  0.4396970000000 1.0
C      1  0.5331860000000  0.5218580000000  0.5972350000000 1.0
C      1  0.4841020000000  0.5211470000000  0.4222340000000 1.0
C      1  0.4715060000000  0.4006590000000  0.5646920000000 1.0
C      1  0.5622940000000  0.5738470000000  0.5054100000000 1.0
C      1  0.4849850000000  0.4721570000000  0.4085070000000 1.0
C      1  0.3947820000000  0.4875790000000  0.4797690000000 1.0
C      1  0.4492160000000  0.4430780000000  0.4291380000000 1.0
C      1  0.4019080000000  0.5079140000000  0.4340310000000 1.0
C      1  0.5227680000000  0.4084400000000  0.5605890000000 1.0
C      1  0.5237130000000  0.5185810000000  0.5438170000000 1.0
C      1  0.4299870000000  0.5122360000000  0.5938300000000 1.0
C      1  0.4953980000000  0.5106890000000  0.4867210000000 1.0
C      1  0.5380200000000  0.5565900000000  0.5170610000000 1.0
C      1  0.5797510000000  0.4900720000000  0.5770970000000 1.0
C      1  0.4567690000000  0.4710620000000  0.5977150000000 1.0
C      1  0.4297590000000  0.4477950000000  0.5592880000000 1.0
C      1  0.5953980000000  0.5023200000000  0.4519990000000 1.0
C      1  0.5435530000000  0.4005060000000  0.5053100000000 1.0
C      1  0.4693620000000  0.5008410000000  0.4888860000000 1.0
C      1  0.4192070000000  0.5687290000000  0.5408030000000 1.0
C      1  0.4886660000000  0.4631090000000  0.4622470000000 1.0
C      1  0.5249470000000  0.5929180000000  0.4142040000000 1.0
C      1  0.4950240000000  0.4100580000000  0.5502050000000 1.0
C      1  0.5944260000000  0.5694420000000  0.4632190000000 1.0
C      1  0.4935230000000  0.5034510000000  0.5812790000000 1.0
C      1  0.3908690000000  0.5261010000000  0.4504190000000 1.0
C      1  0.4873950000000  0.6002950000000  0.4439390000000 1.0
C      1  0.4628710000000  0.4608100000000  0.3935810000000 1.0
C      1  0.5012850000000  0.5795360000000  0.5750020000000 1.0
C      1  0.4206630000000  0.5371550000000  0.5802180000000 1.0
C      1  0.5605860000000  0.5814970000000  0.4738360000000 1.0
C      1  0.3848550000000  0.5059990000000  0.5004020000000 1.0
C      1  0.4566620000000  0.5176790000000  0.6050550000000 1.0
C      1  0.4551570000000  0.4577910000000  0.5520050000000 1.0
C      1  0.5282720000000  0.5926580000000  0.5480590000000 1.0
C      1  0.3941560000000  0.4529520000000  0.5271520000000 1.0
C      1  0.4738400000000  0.6027630000000  0.4696250000000 1.0
C      1  0.5047570000000  0.5739790000000  0.4070160000000 1.0
C      1  0.3891220000000  0.5476240000000  0.4670330000000 1.0
C      1  0.5220580000000  0.6216300000000  0.5202350000000 1.0
C      1  0.5977010000000  0.5179230000000  0.4759840000000 1.0
C      1  0.6083440000000  0.5467240000000  0.5113320000000 1.0
C      1  0.5495940000000  0.4104810000000  0.5471040000000 1.0
C      1  0.4398650000000  0.5762200000000  0.5591460000000 1.0
C      1  0.4951090000000  0.4808350000000  0.5259140000000 1.0
C      1  0.5980120000000  0.4416770000000  0.4961600000000 1.0
C      1  0.5871910000000  0.5606190000000  0.4354720000000 1.0
C      1  0.4705170000000  0.4456670000000  0.5901810000000 1.0
C      1  0.5118160000000  0.4711040000000  0.3986150000000 1.0
C      1  0.5295850000000  0.5792700000000  0.5738690000000 1.0
C      1  0.4399020000000  0.5194660000000  0.5196750000000 1.0
C      1  0.5761270000000  0.4258450000000  0.4506190000000 1.0
C      1  0.4888660000000  0.5506210000000  0.5819810000000 1.0
C      1  0.4669560000000  0.3927410000000  0.4677520000000 1.0
C      1  0.4859220000000  0.4220760000000  0.4252460000000 1.0
C      1  0.4498350000000  0.5852830000000  0.4681680000000 1.0
C      1  0.4669550000000  0.5475470000000  0.5065460000000 1.0
C      1  0.5712480000000  0.4858790000000  0.4974040000000 1.0
C      1  0.4069790000000  0.5457830000000  0.5555280000000 1.0
C      1  0.5457670000000  0.6127590000000  0.5350250000000 1.0
C      1  0.5471290000000  0.5129670000000  0.4549090000000 1.0
C      1  0.5186030000000  0.5745710000000  0.5269260000000 1.0
C      1  0.4575120000000  0.5760580000000  0.5154300000000 1.0
C      1  0.3959070000000  0.4766310000000  0.5434690000000 1.0
C      1  0.4309440000000  0.5206190000000  0.4298650000000 1.0
C      1  0.4786070000000  0.5030340000000  0.5333100000000 1.0
C      1  0.4494620000000  0.4821330000000  0.4516430000000 1.0
END
