TITL C-884139-6216-353 -36.0424693392556 125000 -8466.43913888804 0 0 58 (C1) n - 1
REM
REM in /home/nfs/bkarasulu/CARBON/AIRSS/Generating-Clusters/ReaxFF-fromJPCA2015/Units_Real/with-SteepDescent/Only-C1/SD-CG/Try1-3A/FIRE-CG
REM
REM
REM
REM
REM
REM ./C.cell (11c1c37f851c82e70ff6c80c92926a4b)
REM
REM compiler GCC version 9.2.1 20190827 (Red Hat 9.2.1-1)
REM options -cpp -mtune=generic -march=x86-64 -g -O0 -fpre-include=/usr/include/finclude/math-vector-fortran.h
REM seed -655038424 -829471875 -29073911 -383849609 1770030664 1913826423 1083981913 2064171787 1094892984 -1539058199 939347221 1184030339 -1015596104 -1430731828 1928520797 -654873658 -989270457 2010160405 499792741 -1360493033 -186324093 1508837859 542653441 2118410806 1751705266 -1963253864 756988729 1039157681 1288611315 -1004057276 -452400020 -1960308112 -216446297
REM
CELL 1.54180   50.00000   50.00000   50.00000   90.00000   90.00000   90.00000
LATT -1
SFAC C  
C      1  0.5570910000000  0.4832720000000  0.5395660000000 1.0
C      1  0.4684430000000  0.5368300000000  0.4414820000000 1.0
C      1  0.5179550000000  0.5818500000000  0.5167110000000 1.0
C      1  0.5564860000000  0.5214030000000  0.4563920000000 1.0
C      1  0.5207490000000  0.4717790000000  0.5717430000000 1.0
C      1  0.4709920000000  0.4674580000000  0.5606830000000 1.0
C      1  0.5327200000000  0.5272080000000  0.5151000000000 1.0
C      1  0.5021740000000  0.5161790000000  0.5571350000000 1.0
C      1  0.4692080000000  0.4393170000000  0.4747360000000 1.0
C      1  0.5180570000000  0.5018290000000  0.5162280000000 1.0
C      1  0.5329940000000  0.5495150000000  0.4951760000000 1.0
C      1  0.4935600000000  0.4293620000000  0.4864160000000 1.0
C      1  0.4981060000000  0.4553550000000  0.5620700000000 1.0
C      1  0.5164740000000  0.5005870000000  0.5751180000000 1.0
C      1  0.5379140000000  0.4521140000000  0.4769330000000 1.0
C      1  0.4786610000000  0.4670310000000  0.4613290000000 1.0
C      1  0.4828480000000  0.4819400000000  0.4867150000000 1.0
C      1  0.4827810000000  0.5225960000000  0.5099930000000 1.0
C      1  0.4344410000000  0.4718300000000  0.4721280000000 1.0
C      1  0.5504540000000  0.4947940000000  0.4463870000000 1.0
C      1  0.5048200000000  0.4404450000000  0.5367070000000 1.0
C      1  0.4757790000000  0.5110650000000  0.4313770000000 1.0
C      1  0.4703130000000  0.4659490000000  0.5078470000000 1.0
C      1  0.4367340000000  0.4943710000000  0.5393710000000 1.0
C      1  0.5775080000000  0.4956910000000  0.5216460000000 1.0
C      1  0.5312050000000  0.4516040000000  0.5345820000000 1.0
C      1  0.4245490000000  0.5197780000000  0.5349850000000 1.0
C      1  0.4378750000000  0.5440910000000  0.5272110000000 1.0
C      1  0.5459060000000  0.5329180000000  0.5417880000000 1.0
C      1  0.4486270000000  0.4524110000000  0.4899940000000 1.0
C      1  0.4860850000000  0.5747680000000  0.4741730000000 1.0
C      1  0.4613430000000  0.5677060000000  0.4830030000000 1.0
C      1  0.5163710000000  0.4382960000000  0.4669410000000 1.0
C      1  0.4592690000000  0.5130340000000  0.4585320000000 1.0
C      1  0.4648240000000  0.4840630000000  0.5363920000000 1.0
C      1  0.4225770000000  0.4841090000000  0.4943770000000 1.0
C      1  0.4885980000000  0.4402490000000  0.5125450000000 1.0
C      1  0.4150980000000  0.4952340000000  0.5183760000000 1.0
C      1  0.5444670000000  0.4635710000000  0.5570310000000 1.0
C      1  0.5038830000000  0.5043770000000  0.4371250000000 1.0
C      1  0.4871740000000  0.5582340000000  0.4502360000000 1.0
C      1  0.5065960000000  0.5176420000000  0.4630270000000 1.0
C      1  0.5085560000000  0.4602740000000  0.4495460000000 1.0
C      1  0.5355070000000  0.4770980000000  0.5196410000000 1.0
C      1  0.5116840000000  0.5719510000000  0.4944700000000 1.0
C      1  0.5740930000000  0.4859050000000  0.4931410000000 1.0
C      1  0.5236970000000  0.4826350000000  0.4397480000000 1.0
C      1  0.5699460000000  0.5210030000000  0.5321890000000 1.0
C      1  0.4836180000000  0.5101900000000  0.4835630000000 1.0
C      1  0.4430970000000  0.5570160000000  0.5002090000000 1.0
C      1  0.5133780000000  0.5439920000000  0.4532590000000 1.0
C      1  0.4649280000000  0.5444500000000  0.5175270000000 1.0
C      1  0.4933250000000  0.5061920000000  0.5313060000000 1.0
C      1  0.5395340000000  0.5439580000000  0.4670620000000 1.0
C      1  0.5715790000000  0.4986710000000  0.4671110000000 1.0
C      1  0.5275940000000  0.5247350000000  0.5636280000000 1.0
C      1  0.5535860000000  0.4657470000000  0.4946540000000 1.0
C      1  0.4541690000000  0.4843260000000  0.4536410000000 1.0
END
