TITL C-884127-5181-215 3.0298185133172 125000 -13853.378843081 0 0 94 (C1) n - 1
REM
REM in /home/nfs/bkarasulu/CARBON/AIRSS/Generating-Clusters/ReaxFF-fromJPCA2015/Units_Real/with-SteepDescent/Only-C1/SD-CG/Try1-3A/FIRE-CG
REM
REM
REM
REM
REM
REM ./C.cell (11c1c37f851c82e70ff6c80c92926a4b)
REM
REM compiler GCC version 9.2.1 20190827 (Red Hat 9.2.1-1)
REM options -cpp -mtune=generic -march=x86-64 -g -O0 -fpre-include=/usr/include/finclude/math-vector-fortran.h
REM seed 2090884819 -1785841725 2024332383 1715943557 1965098641 -573145914 620169564 -1618852718 -1512713049 -1895522448 -773513787 -1020829991 1392860650 -892376891 1201738400 -1279354828 -1921180244 1007694357 -1662343789 -1553531613 1691353567 -1849393893 -1032532579 -169748608 1020955186 27187031 -1075507536 -1262815619 1345463125 301663433 -298286939 852931787 -332904804
REM
CELL 1.54180   50.00000   50.00000   50.00000   90.00000   90.00000   90.00000
LATT -1
SFAC C  
C      1  0.4267230000000  0.4807490000000  0.5254220000000 1.0
C      1  0.5741470000000  0.4746290000000  0.4903290000000 1.0
C      1  0.5577690000000  0.4900060000000  0.4319690000000 1.0
C      1  0.4492860000000  0.5625130000000  0.5175390000000 1.0
C      1  0.4324910000000  0.4455960000000  0.4675370000000 1.0
C      1  0.4529180000000  0.5075310000000  0.4263590000000 1.0
C      1  0.5668010000000  0.4978540000000  0.5330870000000 1.0
C      1  0.4778010000000  0.4869810000000  0.5339810000000 1.0
C      1  0.5620950000000  0.5010060000000  0.5015650000000 1.0
C      1  0.4883040000000  0.4786680000000  0.4410560000000 1.0
C      1  0.4792360000000  0.4946010000000  0.5071330000000 1.0
C      1  0.4696190000000  0.5631670000000  0.4682700000000 1.0
C      1  0.5296280000000  0.4523840000000  0.4343070000000 1.0
C      1  0.4722970000000  0.5702610000000  0.5348550000000 1.0
C      1  0.5306940000000  0.5120040000000  0.4920330000000 1.0
C      1  0.4466770000000  0.4882670000000  0.4736860000000 1.0
C      1  0.5148920000000  0.4947110000000  0.5844290000000 1.0
C      1  0.4280520000000  0.4447730000000  0.4943810000000 1.0
C      1  0.5145510000000  0.5653800000000  0.5595070000000 1.0
C      1  0.5328980000000  0.4396440000000  0.5328290000000 1.0
C      1  0.4922340000000  0.4436940000000  0.4759870000000 1.0
C      1  0.5197170000000  0.4897040000000  0.4767890000000 1.0
C      1  0.5724540000000  0.5235640000000  0.5446320000000 1.0
C      1  0.5252880000000  0.5101870000000  0.5413480000000 1.0
C      1  0.4506200000000  0.5716780000000  0.4893650000000 1.0
C      1  0.4644010000000  0.4453580000000  0.5646620000000 1.0
C      1  0.5214620000000  0.5310980000000  0.4432450000000 1.0
C      1  0.4515970000000  0.4390870000000  0.5387130000000 1.0
C      1  0.4907120000000  0.4569460000000  0.5311270000000 1.0
C      1  0.4710460000000  0.5902720000000  0.4798230000000 1.0
C      1  0.4919750000000  0.5178170000000  0.4974520000000 1.0
C      1  0.5700940000000  0.4580600000000  0.4666540000000 1.0
C      1  0.5558440000000  0.4759520000000  0.5494500000000 1.0
C      1  0.5321920000000  0.4744940000000  0.5680640000000 1.0
C      1  0.5317530000000  0.5087080000000  0.4044570000000 1.0
C      1  0.5079110000000  0.5233840000000  0.5843290000000 1.0
C      1  0.5735510000000  0.4509010000000  0.5078170000000 1.0
C      1  0.5027080000000  0.5286540000000  0.5380760000000 1.0
C      1  0.4541550000000  0.4534090000000  0.4453730000000 1.0
C      1  0.5162120000000  0.4590850000000  0.5157460000000 1.0
C      1  0.5041750000000  0.5031440000000  0.4548020000000 1.0
C      1  0.4396220000000  0.5215650000000  0.5445700000000 1.0
C      1  0.5268240000000  0.4312650000000  0.4552110000000 1.0
C      1  0.4169350000000  0.5192840000000  0.4684180000000 1.0
C      1  0.4961350000000  0.4106380000000  0.5133970000000 1.0
C      1  0.5003270000000  0.5601290000000  0.4723240000000 1.0
C      1  0.4173690000000  0.5256000000000  0.4989930000000 1.0
C      1  0.5555050000000  0.5160470000000  0.4236380000000 1.0
C      1  0.4171550000000  0.4907820000000  0.4755430000000 1.0
C      1  0.5570340000000  0.4642580000000  0.4398940000000 1.0
C      1  0.4975110000000  0.5714440000000  0.5161740000000 1.0
C      1  0.5840150000000  0.5372340000000  0.5197880000000 1.0
C      1  0.4576090000000  0.5138670000000  0.4676370000000 1.0
C      1  0.4933750000000  0.4422640000000  0.5580410000000 1.0
C      1  0.4785620000000  0.4368790000000  0.4499090000000 1.0
C      1  0.5639910000000  0.5427090000000  0.4736030000000 1.0
C      1  0.4981970000000  0.5850420000000  0.4882630000000 1.0
C      1  0.4602820000000  0.5272700000000  0.5623590000000 1.0
C      1  0.4468230000000  0.4934330000000  0.5412420000000 1.0
C      1  0.4827490000000  0.5363170000000  0.4280800000000 1.0
C      1  0.5013370000000  0.5526780000000  0.4420500000000 1.0
C      1  0.5601170000000  0.4516070000000  0.5336730000000 1.0
C      1  0.5373320000000  0.4227620000000  0.4818120000000 1.0
C      1  0.5061620000000  0.4957970000000  0.4074740000000 1.0
C      1  0.5641960000000  0.4346690000000  0.4839280000000 1.0
C      1  0.5221700000000  0.5760480000000  0.5339960000000 1.0
C      1  0.4730540000000  0.4336850000000  0.5183100000000 1.0
C      1  0.5456030000000  0.5593940000000  0.4901990000000 1.0
C      1  0.4982070000000  0.5023050000000  0.5460980000000 1.0
C      1  0.5273070000000  0.5421170000000  0.5732940000000 1.0
C      1  0.5448120000000  0.5250820000000  0.5568400000000 1.0
C      1  0.5769960000000  0.5253780000000  0.4934600000000 1.0
C      1  0.4811980000000  0.5375650000000  0.5766520000000 1.0
C      1  0.4713930000000  0.4681780000000  0.5800170000000 1.0
C      1  0.4895160000000  0.4862220000000  0.5859540000000 1.0
C      1  0.4639640000000  0.4756010000000  0.4923220000000 1.0
C      1  0.5245990000000  0.5398320000000  0.4873320000000 1.0
C      1  0.4852070000000  0.5187600000000  0.4709220000000 1.0
C      1  0.5497230000000  0.5338860000000  0.4480800000000 1.0
C      1  0.5687110000000  0.5597050000000  0.5254780000000 1.0
C      1  0.4790500000000  0.5137630000000  0.4139350000000 1.0
C      1  0.4128880000000  0.4972030000000  0.5041170000000 1.0
C      1  0.5224270000000  0.4180150000000  0.5087430000000 1.0
C      1  0.4919390000000  0.5400770000000  0.5146960000000 1.0
C      1  0.5464650000000  0.5743920000000  0.5177050000000 1.0
C      1  0.5214420000000  0.4490840000000  0.5612980000000 1.0
C      1  0.4306140000000  0.4512780000000  0.5228080000000 1.0
C      1  0.4381430000000  0.5229370000000  0.4480070000000 1.0
C      1  0.5134680000000  0.4632070000000  0.4870910000000 1.0
C      1  0.4602400000000  0.4796300000000  0.4334440000000 1.0
C      1  0.5082670000000  0.4692580000000  0.4222580000000 1.0
C      1  0.4847880000000  0.5626800000000  0.5603040000000 1.0
C      1  0.4683580000000  0.4466590000000  0.4926610000000 1.0
C      1  0.4333090000000  0.5386020000000  0.5197690000000 1.0
END
