TITL C-884138-6203-20 1997647.74150823 125000 -17810.1289965482 0 0 122 (C1) n - 1
REM
REM in /home/nfs/bkarasulu/CARBON/AIRSS/Generating-Clusters/ReaxFF-fromJPCA2015/Units_Real/with-SteepDescent/Only-C1/SD-CG/Try1-3A/FIRE-CG
REM
REM
REM
REM
REM
REM ./C.cell (11c1c37f851c82e70ff6c80c92926a4b)
REM
REM compiler GCC version 9.2.1 20190827 (Red Hat 9.2.1-1)
REM options -cpp -mtune=generic -march=x86-64 -g -O0 -fpre-include=/usr/include/finclude/math-vector-fortran.h
REM seed 951780307 1703164645 47447374 -1904146577 1377710105 -422027022 1161471830 1530837406 1144116840 399791817 -1161943 476298426 -1882346682 475673772 1179608220 1673467555 -1366325610 1933613926 -82152953 -652501360 -2125506895 1793606250 -445609493 -689974496 1556747882 1504038695 295086241 -1985072898 -1950776591 930012779 1362814443 -1292982098 68374759
REM
CELL 1.54180   50.00000   50.00000   50.00000   90.00000   90.00000   90.00000
LATT -1
SFAC C  
C      1  0.4089720000000  0.4503070000000  0.5161790000000 1.0
C      1  0.4253350000000  0.5175120000000  0.4580120000000 1.0
C      1  0.4658240000000  0.3972140000000  0.5155670000000 1.0
C      1  0.6098680000000  0.5174700000000  0.5197660000000 1.0
C      1  0.4705560000000  0.4354460000000  0.5541750000000 1.0
C      1  0.5367150000000  0.5450620000000  0.5602590000000 1.0
C      1  0.5451340000000  0.5353060000000  0.4253010000000 1.0
C      1  0.4743140000000  0.4775240000000  0.4578430000000 1.0
C      1  0.5836340000000  0.4858620000000  0.4640820000000 1.0
C      1  0.5276100000000  0.4867180000000  0.4136300000000 1.0
C      1  0.5666890000000  0.5539150000000  0.4864510000000 1.0
C      1  0.5773290000000  0.5360540000000  0.4658440000000 1.0
C      1  0.5370750000000  0.4603690000000  0.5745900000000 1.0
C      1  0.4476320000000  0.4879910000000  0.6036630000000 1.0
C      1  0.5419000000000  0.4689750000000  0.5072980000000 1.0
C      1  0.5184250000000  0.4127690000000  0.5187220000000 1.0
C      1  0.4993750000000  0.5801950000000  0.4496940000000 1.0
C      1  0.4619430000000  0.4989780000000  0.5088900000000 1.0
C      1  0.4226130000000  0.4795330000000  0.4777550000000 1.0
C      1  0.5025790000000  0.4475230000000  0.4290970000000 1.0
C      1  0.4394040000000  0.5915710000000  0.5072600000000 1.0
C      1  0.4658490000000  0.5173220000000  0.5312490000000 1.0
C      1  0.5661200000000  0.5238430000000  0.4412290000000 1.0
C      1  0.5030450000000  0.5645180000000  0.4255660000000 1.0
C      1  0.4663830000000  0.5121710000000  0.5597950000000 1.0
C      1  0.5992120000000  0.5167360000000  0.5453560000000 1.0
C      1  0.4248660000000  0.4927960000000  0.5427680000000 1.0
C      1  0.4233160000000  0.5089280000000  0.4854100000000 1.0
C      1  0.4904440000000  0.5778100000000  0.5087170000000 1.0
C      1  0.4944030000000  0.4129640000000  0.4825190000000 1.0
C      1  0.4617660000000  0.5350160000000  0.4307440000000 1.0
C      1  0.4293400000000  0.4833560000000  0.5820930000000 1.0
C      1  0.4432490000000  0.5542280000000  0.5434670000000 1.0
C      1  0.5065980000000  0.5208170000000  0.3972990000000 1.0
C      1  0.5050190000000  0.5260460000000  0.4570600000000 1.0
C      1  0.5981210000000  0.5005730000000  0.5014580000000 1.0
C      1  0.4929370000000  0.5206350000000  0.5956930000000 1.0
C      1  0.5643210000000  0.4397560000000  0.4713580000000 1.0
C      1  0.4760110000000  0.4844790000000  0.4301590000000 1.0
C      1  0.4710480000000  0.5163720000000  0.4867230000000 1.0
C      1  0.4421460000000  0.5411720000000  0.4516780000000 1.0
C      1  0.5587630000000  0.4747010000000  0.5890230000000 1.0
C      1  0.5128960000000  0.6032520000000  0.5479090000000 1.0
C      1  0.5026500000000  0.5330980000000  0.5363830000000 1.0
C      1  0.5438920000000  0.4393500000000  0.5552440000000 1.0
C      1  0.5322530000000  0.5153510000000  0.4068960000000 1.0
C      1  0.4908780000000  0.5381740000000  0.4348010000000 1.0
C      1  0.4242800000000  0.5463980000000  0.5163580000000 1.0
C      1  0.5359850000000  0.5718680000000  0.5137860000000 1.0
C      1  0.4975530000000  0.4548200000000  0.5169920000000 1.0
C      1  0.5271160000000  0.5768600000000  0.4566870000000 1.0
C      1  0.4609430000000  0.5088000000000  0.4146280000000 1.0
C      1  0.5192920000000  0.4507850000000  0.5001050000000 1.0
C      1  0.5145700000000  0.5916120000000  0.5242260000000 1.0
C      1  0.5024120000000  0.4837930000000  0.5241810000000 1.0
C      1  0.4917250000000  0.5516620000000  0.5128320000000 1.0
C      1  0.5720660000000  0.4948630000000  0.4401340000000 1.0
C      1  0.4296960000000  0.4648620000000  0.5022000000000 1.0
C      1  0.4726130000000  0.5046970000000  0.6082050000000 1.0
C      1  0.4794220000000  0.5411950000000  0.4951720000000 1.0
C      1  0.5902390000000  0.4734790000000  0.5065630000000 1.0
C      1  0.4312300000000  0.5653660000000  0.4947430000000 1.0
C      1  0.5820190000000  0.4701000000000  0.5345780000000 1.0
C      1  0.4871950000000  0.4841800000000  0.5543720000000 1.0
C      1  0.4234260000000  0.4945110000000  0.4372230000000 1.0
C      1  0.5219020000000  0.4229340000000  0.5451130000000 1.0
C      1  0.5316300000000  0.4418460000000  0.4264780000000 1.0
C      1  0.4903390000000  0.5022160000000  0.4721500000000 1.0
C      1  0.5811510000000  0.4621470000000  0.4805910000000 1.0
C      1  0.4295210000000  0.4996640000000  0.4098180000000 1.0
C      1  0.5014650000000  0.4749490000000  0.4200500000000 1.0
C      1  0.5397550000000  0.5191120000000  0.5744180000000 1.0
C      1  0.5048470000000  0.4959450000000  0.4961350000000 1.0
C      1  0.4681880000000  0.5840040000000  0.4647070000000 1.0
C      1  0.4734020000000  0.4538040000000  0.5023450000000 1.0
C      1  0.4557090000000  0.4695110000000  0.5152010000000 1.0
C      1  0.4399320000000  0.4962700000000  0.5646160000000 1.0
C      1  0.5285210000000  0.5330690000000  0.4719570000000 1.0
C      1  0.5007540000000  0.4476350000000  0.5874030000000 1.0
C      1  0.5202710000000  0.4285730000000  0.4814280000000 1.0
C      1  0.4830690000000  0.5933070000000  0.4874960000000 1.0
C      1  0.4567050000000  0.6027220000000  0.4868650000000 1.0
C      1  0.4684790000000  0.4632420000000  0.5448300000000 1.0
C      1  0.4476670000000  0.4454160000000  0.4442150000000 1.0
C      1  0.5630740000000  0.5004450000000  0.5735300000000 1.0
C      1  0.4292330000000  0.4678950000000  0.4514960000000 1.0
C      1  0.5311080000000  0.4899110000000  0.4874540000000 1.0
C      1  0.5676160000000  0.4447270000000  0.5385600000000 1.0
C      1  0.5321540000000  0.5613990000000  0.4313600000000 1.0
C      1  0.4450740000000  0.5783470000000  0.5318350000000 1.0
C      1  0.4748020000000  0.4534790000000  0.4742860000000 1.0
C      1  0.5544950000000  0.4454650000000  0.4443280000000 1.0
C      1  0.5810660000000  0.5101500000000  0.4800170000000 1.0
C      1  0.4676560000000  0.4247800000000  0.4748380000000 1.0
C      1  0.5315720000000  0.4871250000000  0.5304740000000 1.0
C      1  0.3917280000000  0.5015200000000  0.5193900000000 1.0
C      1  0.4393740000000  0.5092670000000  0.5218600000000 1.0
C      1  0.4752430000000  0.4365560000000  0.4364720000000 1.0
C      1  0.4244030000000  0.4254260000000  0.5128640000000 1.0
C      1  0.5162750000000  0.5055090000000  0.5860070000000 1.0
C      1  0.5271780000000  0.5158830000000  0.5298210000000 1.0
C      1  0.5461690000000  0.5119110000000  0.4803480000000 1.0
C      1  0.5077720000000  0.5495760000000  0.5602680000000 1.0
C      1  0.5962500000000  0.5398800000000  0.5283310000000 1.0
C      1  0.5082450000000  0.4782840000000  0.5757600000000 1.0
C      1  0.4060980000000  0.5249730000000  0.5063560000000 1.0
C      1  0.5480350000000  0.4235390000000  0.4917130000000 1.0
C      1  0.5817480000000  0.4942890000000  0.5514780000000 1.0
C      1  0.5491590000000  0.5564480000000  0.5338100000000 1.0
C      1  0.5717350000000  0.5497870000000  0.5157650000000 1.0
C      1  0.4853490000000  0.5442560000000  0.5785760000000 1.0
C      1  0.5573040000000  0.4423460000000  0.5117430000000 1.0
C      1  0.5618830000000  0.4693770000000  0.4278970000000 1.0
C      1  0.4984090000000  0.4290250000000  0.5653230000000 1.0
C      1  0.4600550000000  0.5413800000000  0.5648240000000 1.0
C      1  0.4022300000000  0.4771720000000  0.5313680000000 1.0
C      1  0.4960520000000  0.3988920000000  0.5076960000000 1.0
C      1  0.5417140000000  0.4633420000000  0.4109580000000 1.0
C      1  0.4469070000000  0.5627420000000  0.4696700000000 1.0
C      1  0.4814130000000  0.5217610000000  0.3974910000000 1.0
C      1  0.4495470000000  0.4147530000000  0.4992770000000 1.0
C      1  0.5383270000000  0.5624110000000  0.4832760000000 1.0
END
