TITL C-884129-4740-265 -5.20287407836028 125000 -18079.294951923 0 0 119 (C1) n - 1
REM
REM in /home/nfs/bkarasulu/CARBON/AIRSS/Generating-Clusters/ReaxFF-fromJPCA2015/Units_Real/with-SteepDescent/Only-C1/SD-CG/Try1-3A/FIRE-CG
REM
REM
REM
REM
REM
REM ./C.cell (11c1c37f851c82e70ff6c80c92926a4b)
REM
REM compiler GCC version 9.2.1 20190827 (Red Hat 9.2.1-1)
REM options -cpp -mtune=generic -march=x86-64 -g -O0 -fpre-include=/usr/include/finclude/math-vector-fortran.h
REM seed -1744701359 1767094410 1215899618 -2101449941 2033752045 980922109 1583730452 -891934246 1111392096 321311346 -1619508736 1015071607 2066834698 -1664148396 -608976037 -1673076281 1083181384 1212021030 -1834518634 97455603 -550412854 2032911402 1276312281 -1535964440 -759493624 -55833653 -1312619615 -1255613490 1372123645 1621134624 13633280 -861680372 1317766418
REM
CELL 1.54180   50.00000   50.00000   50.00000   90.00000   90.00000   90.00000
LATT -1
SFAC C  
C      1  0.4379240000000  0.4555990000000  0.5586970000000 1.0
C      1  0.5153850000000  0.4883930000000  0.4903900000000 1.0
C      1  0.5470070000000  0.5175730000000  0.5072380000000 1.0
C      1  0.5249800000000  0.5290690000000  0.5207000000000 1.0
C      1  0.5122040000000  0.5273890000000  0.3937540000000 1.0
C      1  0.4595540000000  0.4835690000000  0.5931890000000 1.0
C      1  0.5802350000000  0.4636460000000  0.5606590000000 1.0
C      1  0.5050580000000  0.5103040000000  0.5298330000000 1.0
C      1  0.4195440000000  0.5266540000000  0.4719870000000 1.0
C      1  0.5069140000000  0.5785530000000  0.5627780000000 1.0
C      1  0.5377680000000  0.4911200000000  0.4393640000000 1.0
C      1  0.4813660000000  0.4656600000000  0.5863580000000 1.0
C      1  0.5587500000000  0.4619650000000  0.5793140000000 1.0
C      1  0.5089560000000  0.4727120000000  0.5905010000000 1.0
C      1  0.5507010000000  0.5601540000000  0.5422530000000 1.0
C      1  0.4756330000000  0.4446490000000  0.5681290000000 1.0
C      1  0.5972710000000  0.4873430000000  0.5519530000000 1.0
C      1  0.5327490000000  0.5894720000000  0.4713530000000 1.0
C      1  0.4724780000000  0.5472520000000  0.4225920000000 1.0
C      1  0.4602000000000  0.4978180000000  0.4240590000000 1.0
C      1  0.4908010000000  0.5183450000000  0.5989620000000 1.0
C      1  0.4631860000000  0.5101080000000  0.5982630000000 1.0
C      1  0.5408130000000  0.4657500000000  0.4250660000000 1.0
C      1  0.5017120000000  0.5907660000000  0.5369830000000 1.0
C      1  0.5160150000000  0.4808070000000  0.5375180000000 1.0
C      1  0.5931510000000  0.4979380000000  0.5247800000000 1.0
C      1  0.5220750000000  0.5597950000000  0.4268910000000 1.0
C      1  0.4617000000000  0.5001570000000  0.5401130000000 1.0
C      1  0.5330630000000  0.5652370000000  0.5652400000000 1.0
C      1  0.5278530000000  0.5452890000000  0.5857990000000 1.0
C      1  0.5025530000000  0.5209400000000  0.4583280000000 1.0
C      1  0.4974430000000  0.4616460000000  0.4138610000000 1.0
C      1  0.4803130000000  0.4736500000000  0.4629860000000 1.0
C      1  0.5097600000000  0.4039810000000  0.5178420000000 1.0
C      1  0.5430590000000  0.4840340000000  0.5464780000000 1.0
C      1  0.4167750000000  0.4552570000000  0.5230340000000 1.0
C      1  0.4760300000000  0.4335960000000  0.4375340000000 1.0
C      1  0.5257120000000  0.5012630000000  0.3927160000000 1.0
C      1  0.5872800000000  0.4626080000000  0.4602260000000 1.0
C      1  0.5306050000000  0.4252590000000  0.5111730000000 1.0
C      1  0.5239380000000  0.5951840000000  0.5177180000000 1.0
C      1  0.5038930000000  0.4559820000000  0.5305470000000 1.0
C      1  0.5986090000000  0.4956630000000  0.4826930000000 1.0
C      1  0.4894730000000  0.4505030000000  0.5045270000000 1.0
C      1  0.5451080000000  0.5418490000000  0.4255810000000 1.0
C      1  0.5654160000000  0.4505660000000  0.4763920000000 1.0
C      1  0.4688790000000  0.5436030000000  0.5559880000000 1.0
C      1  0.4883040000000  0.5825000000000  0.4796170000000 1.0
C      1  0.5526090000000  0.5741840000000  0.4886490000000 1.0
C      1  0.5406710000000  0.5000980000000  0.4869390000000 1.0
C      1  0.5221720000000  0.4735380000000  0.4033410000000 1.0
C      1  0.5506690000000  0.5107600000000  0.5595640000000 1.0
C      1  0.4670440000000  0.4895530000000  0.5142470000000 1.0
C      1  0.4280420000000  0.4813290000000  0.4586740000000 1.0
C      1  0.4418710000000  0.4399140000000  0.5062520000000 1.0
C      1  0.4429060000000  0.5023020000000  0.5800280000000 1.0
C      1  0.4187640000000  0.4723080000000  0.5470620000000 1.0
C      1  0.4781300000000  0.4222850000000  0.4904280000000 1.0
C      1  0.4941520000000  0.5026680000000  0.5028190000000 1.0
C      1  0.5318730000000  0.4408860000000  0.4376130000000 1.0
C      1  0.5404690000000  0.5249410000000  0.4017880000000 1.0
C      1  0.5258740000000  0.4351250000000  0.5599760000000 1.0
C      1  0.4241920000000  0.4523440000000  0.4567930000000 1.0
C      1  0.5016450000000  0.5522790000000  0.4831900000000 1.0
C      1  0.4858970000000  0.4828050000000  0.4351310000000 1.0
C      1  0.5718410000000  0.5189160000000  0.5207080000000 1.0
C      1  0.4573940000000  0.4466180000000  0.4187360000000 1.0
C      1  0.4542140000000  0.5257340000000  0.4305730000000 1.0
C      1  0.4899450000000  0.5862680000000  0.4496650000000 1.0
C      1  0.5558730000000  0.5535680000000  0.4708070000000 1.0
C      1  0.5039000000000  0.4373850000000  0.4283570000000 1.0
C      1  0.4651090000000  0.4264290000000  0.4647250000000 1.0
C      1  0.4403710000000  0.4367830000000  0.4756790000000 1.0
C      1  0.4595290000000  0.5741440000000  0.4875800000000 1.0
C      1  0.4496310000000  0.5639470000000  0.4622040000000 1.0
C      1  0.4966050000000  0.4337430000000  0.5513850000000 1.0
C      1  0.4677470000000  0.5704430000000  0.4398940000000 1.0
C      1  0.5312950000000  0.4543300000000  0.5820820000000 1.0
C      1  0.5181210000000  0.5814790000000  0.4461500000000 1.0
C      1  0.5033160000000  0.4643990000000  0.4812970000000 1.0
C      1  0.5922330000000  0.4544470000000  0.4883030000000 1.0
C      1  0.5134800000000  0.5977870000000  0.4907890000000 1.0
C      1  0.4896790000000  0.5260740000000  0.4816510000000 1.0
C      1  0.4304790000000  0.5256690000000  0.5310580000000 1.0
C      1  0.4597330000000  0.4508450000000  0.5459850000000 1.0
C      1  0.5629040000000  0.5328090000000  0.5444380000000 1.0
C      1  0.5558680000000  0.5036110000000  0.4603480000000 1.0
C      1  0.5132000000000  0.5008060000000  0.5940960000000 1.0
C      1  0.4841160000000  0.4108910000000  0.5300940000000 1.0
C      1  0.4853910000000  0.5611250000000  0.5730000000000 1.0
C      1  0.4610010000000  0.4160930000000  0.5125360000000 1.0
C      1  0.5093570000000  0.5514680000000  0.5108840000000 1.0
C      1  0.4300710000000  0.4522590000000  0.4278480000000 1.0
C      1  0.5437930000000  0.4343780000000  0.4638670000000 1.0
C      1  0.4075520000000  0.5009130000000  0.4673350000000 1.0
C      1  0.4349110000000  0.5021100000000  0.5510490000000 1.0
C      1  0.4264790000000  0.5163940000000  0.5027150000000 1.0
C      1  0.4039490000000  0.4750420000000  0.5092600000000 1.0
C      1  0.5850370000000  0.4919250000000  0.4585950000000 1.0
C      1  0.5597600000000  0.4601630000000  0.5385610000000 1.0
C      1  0.5259700000000  0.4392200000000  0.4857590000000 1.0
C      1  0.4600150000000  0.5663280000000  0.5151640000000 1.0
C      1  0.6028810000000  0.4780520000000  0.5030960000000 1.0
C      1  0.4551030000000  0.4856570000000  0.4709990000000 1.0
C      1  0.3997220000000  0.4986650000000  0.4957260000000 1.0
C      1  0.4882440000000  0.5684760000000  0.5238000000000 1.0
C      1  0.4458910000000  0.4745070000000  0.4152790000000 1.0
C      1  0.4492990000000  0.4993220000000  0.4952710000000 1.0
C      1  0.5574690000000  0.5348900000000  0.4513970000000 1.0
C      1  0.5429520000000  0.4361920000000  0.5364960000000 1.0
C      1  0.4639930000000  0.4588020000000  0.5164630000000 1.0
C      1  0.5110080000000  0.5026560000000  0.4397050000000 1.0
C      1  0.4807540000000  0.5186450000000  0.5476640000000 1.0
C      1  0.4994770000000  0.5453410000000  0.5929990000000 1.0
C      1  0.5465830000000  0.5764720000000  0.5183760000000 1.0
C      1  0.5000530000000  0.5464250000000  0.4124210000000 1.0
C      1  0.4471240000000  0.5480140000000  0.5356070000000 1.0
C      1  0.5354610000000  0.5171930000000  0.5830540000000 1.0
C      1  0.4389450000000  0.5376580000000  0.4540180000000 1.0
END
