TITL C-884141-4321-178 14.4815150116889 125000 -15624.0326266662 0 0 106 (C1) n - 1
REM
REM in /home/nfs/bkarasulu/CARBON/AIRSS/Generating-Clusters/ReaxFF-fromJPCA2015/Units_Real/with-SteepDescent/Only-C1/SD-CG/Try1-3A/FIRE-CG
REM
REM
REM
REM
REM
REM ./C.cell (11c1c37f851c82e70ff6c80c92926a4b)
REM
REM compiler GCC version 9.2.1 20190827 (Red Hat 9.2.1-1)
REM options -cpp -mtune=generic -march=x86-64 -g -O0 -fpre-include=/usr/include/finclude/math-vector-fortran.h
REM seed -1348503067 -59675312 -1846258398 681023216 -1755659069 774663729 -324659343 -768554889 39049294 1411909095 -1972544568 -2130840978 -1359642641 -853542530 652794686 -979477546 -188836022 830463327 -1255573181 1591859937 -740299486 1796959534 -1390549239 1944578192 756741440 -230337111 1312696769 1632508341 -1778888544 -1686967372 1548165782 -881947517 678264278
REM
CELL 1.54180   50.00000   50.00000   50.00000   90.00000   90.00000   90.00000
LATT -1
SFAC C  
C      1  0.5103570000000  0.5093690000000  0.5470570000000 1.0
C      1  0.4091330000000  0.4797190000000  0.4741730000000 1.0
C      1  0.5654900000000  0.5168160000000  0.5695830000000 1.0
C      1  0.5361910000000  0.4806930000000  0.4122290000000 1.0
C      1  0.5695490000000  0.5279010000000  0.5419560000000 1.0
C      1  0.4654000000000  0.4445930000000  0.4432100000000 1.0
C      1  0.5385810000000  0.5116660000000  0.5171900000000 1.0
C      1  0.5065320000000  0.4401710000000  0.4472430000000 1.0
C      1  0.4509100000000  0.5156410000000  0.4982280000000 1.0
C      1  0.5351330000000  0.5211360000000  0.4446420000000 1.0
C      1  0.4352470000000  0.5449830000000  0.4563280000000 1.0
C      1  0.5057780000000  0.4034780000000  0.4971360000000 1.0
C      1  0.4656130000000  0.5223670000000  0.5218030000000 1.0
C      1  0.5743830000000  0.4449250000000  0.5088210000000 1.0
C      1  0.5139920000000  0.5132860000000  0.5026220000000 1.0
C      1  0.5023870000000  0.5307670000000  0.5720270000000 1.0
C      1  0.5113640000000  0.4596730000000  0.5124660000000 1.0
C      1  0.5468850000000  0.4265770000000  0.4680700000000 1.0
C      1  0.4091350000000  0.5377950000000  0.5057430000000 1.0
C      1  0.4696040000000  0.4971530000000  0.5679820000000 1.0
C      1  0.5390430000000  0.5688110000000  0.5553860000000 1.0
C      1  0.5768740000000  0.5457360000000  0.4973000000000 1.0
C      1  0.5589310000000  0.4890640000000  0.5673130000000 1.0
C      1  0.4410980000000  0.4446340000000  0.4897030000000 1.0
C      1  0.5278440000000  0.5615080000000  0.5271050000000 1.0
C      1  0.4937570000000  0.5046480000000  0.5852360000000 1.0
C      1  0.5697790000000  0.4793360000000  0.5416980000000 1.0
C      1  0.5107550000000  0.4965320000000  0.4095700000000 1.0
C      1  0.5439950000000  0.5346010000000  0.5299520000000 1.0
C      1  0.4959190000000  0.5403910000000  0.4212420000000 1.0
C      1  0.5683800000000  0.4441050000000  0.4820520000000 1.0
C      1  0.5098590000000  0.4209190000000  0.5473850000000 1.0
C      1  0.5001110000000  0.5643800000000  0.4367270000000 1.0
C      1  0.4717930000000  0.5204420000000  0.4236060000000 1.0
C      1  0.4597470000000  0.4871240000000  0.4635840000000 1.0
C      1  0.5593940000000  0.5653860000000  0.4842010000000 1.0
C      1  0.4095690000000  0.4685500000000  0.5026570000000 1.0
C      1  0.5269680000000  0.4680420000000  0.4885880000000 1.0
C      1  0.5243980000000  0.5710270000000  0.4528430000000 1.0
C      1  0.5744130000000  0.4505220000000  0.5360440000000 1.0
C      1  0.5355180000000  0.4419740000000  0.4456120000000 1.0
C      1  0.4834720000000  0.4912040000000  0.4160670000000 1.0
C      1  0.5389230000000  0.4709330000000  0.4400190000000 1.0
C      1  0.5378910000000  0.5758160000000  0.4996790000000 1.0
C      1  0.5057640000000  0.4578340000000  0.4713790000000 1.0
C      1  0.5064490000000  0.4785100000000  0.5844440000000 1.0
C      1  0.4450220000000  0.4551180000000  0.5435530000000 1.0
C      1  0.5722990000000  0.4954140000000  0.4905750000000 1.0
C      1  0.5812880000000  0.5511790000000  0.5276370000000 1.0
C      1  0.4719640000000  0.4659490000000  0.4229810000000 1.0
C      1  0.4043690000000  0.4925390000000  0.5198650000000 1.0
C      1  0.5587790000000  0.4972900000000  0.4148300000000 1.0
C      1  0.4719600000000  0.4132700000000  0.5210330000000 1.0
C      1  0.4905560000000  0.4492890000000  0.4939190000000 1.0
C      1  0.4659960000000  0.4935310000000  0.4920890000000 1.0
C      1  0.4759750000000  0.5435000000000  0.5622280000000 1.0
C      1  0.5500360000000  0.5352850000000  0.5885110000000 1.0
C      1  0.5252260000000  0.4385220000000  0.5292460000000 1.0
C      1  0.4592600000000  0.5226550000000  0.5514070000000 1.0
C      1  0.5752830000000  0.5165830000000  0.4235520000000 1.0
C      1  0.4296100000000  0.4512010000000  0.5125410000000 1.0
C      1  0.4901860000000  0.5251760000000  0.4712100000000 1.0
C      1  0.4478500000000  0.5583090000000  0.5237380000000 1.0
C      1  0.4897170000000  0.4914900000000  0.5413650000000 1.0
C      1  0.3922030000000  0.5139060000000  0.5037140000000 1.0
C      1  0.4869900000000  0.4421760000000  0.4273400000000 1.0
C      1  0.4731060000000  0.5617160000000  0.5399980000000 1.0
C      1  0.4755790000000  0.4806510000000  0.5175040000000 1.0
C      1  0.4957940000000  0.5990930000000  0.4893950000000 1.0
C      1  0.4807700000000  0.5736530000000  0.4960070000000 1.0
C      1  0.4715530000000  0.5118240000000  0.4531080000000 1.0
C      1  0.4282760000000  0.5362500000000  0.5274970000000 1.0
C      1  0.4846690000000  0.4583880000000  0.5768090000000 1.0
C      1  0.4494460000000  0.4831010000000  0.5317720000000 1.0
C      1  0.4515860000000  0.5714270000000  0.4977410000000 1.0
C      1  0.4862470000000  0.4339120000000  0.5608370000000 1.0
C      1  0.4261170000000  0.5269590000000  0.4820800000000 1.0
C      1  0.5275760000000  0.4133410000000  0.4834250000000 1.0
C      1  0.4897850000000  0.5540150000000  0.4759000000000 1.0
C      1  0.5649910000000  0.5683340000000  0.5439470000000 1.0
C      1  0.4507880000000  0.5669880000000  0.4682750000000 1.0
C      1  0.4984230000000  0.5534220000000  0.5278910000000 1.0
C      1  0.4785960000000  0.4215210000000  0.4923790000000 1.0
C      1  0.5503860000000  0.5592750000000  0.4562220000000 1.0
C      1  0.5626910000000  0.5314880000000  0.4517740000000 1.0
C      1  0.4278930000000  0.5041750000000  0.5319370000000 1.0
C      1  0.4022670000000  0.5081500000000  0.4770560000000 1.0
C      1  0.5187500000000  0.5234480000000  0.4193410000000 1.0
C      1  0.5737550000000  0.5228500000000  0.4803840000000 1.0
C      1  0.4591750000000  0.4353150000000  0.4711290000000 1.0
C      1  0.4773990000000  0.5699120000000  0.4548680000000 1.0
C      1  0.5106470000000  0.5046050000000  0.4764110000000 1.0
C      1  0.4433050000000  0.5335030000000  0.4314170000000 1.0
C      1  0.5280940000000  0.5497090000000  0.5756180000000 1.0
C      1  0.5489240000000  0.4374680000000  0.5473310000000 1.0
C      1  0.4641930000000  0.4319320000000  0.5425040000000 1.0
C      1  0.4986520000000  0.4034340000000  0.5258680000000 1.0
C      1  0.5302570000000  0.4949270000000  0.4563800000000 1.0
C      1  0.4590360000000  0.4689480000000  0.5688670000000 1.0
C      1  0.5213730000000  0.5870310000000  0.4789770000000 1.0
C      1  0.5332340000000  0.4498460000000  0.5675540000000 1.0
C      1  0.4324110000000  0.4769790000000  0.4561760000000 1.0
C      1  0.4928910000000  0.5297980000000  0.5150070000000 1.0
C      1  0.5359700000000  0.4740140000000  0.5810040000000 1.0
C      1  0.5562860000000  0.4712990000000  0.4825000000000 1.0
C      1  0.5622340000000  0.4941760000000  0.5178760000000 1.0
END
