TITL C-884133-6611-69 9.76840753010927 125000 -22799.1474502062 0 0 153 (C1) n - 1
REM
REM in /home/nfs/bkarasulu/CARBON/AIRSS/Generating-Clusters/ReaxFF-fromJPCA2015/Units_Real/with-SteepDescent/Only-C1/SD-CG/Try1-3A/FIRE-CG
REM
REM
REM
REM
REM
REM ./C.cell (11c1c37f851c82e70ff6c80c92926a4b)
REM
REM compiler GCC version 9.2.1 20190827 (Red Hat 9.2.1-1)
REM options -cpp -mtune=generic -march=x86-64 -g -O0 -fpre-include=/usr/include/finclude/math-vector-fortran.h
REM seed -65751443 -632072474 893137832 1332302330 -1165706542 2143964228 -2140881923 36263408 -962389679 -80475012 -1844156403 479159240 -818851230 2144793163 69458188 674547529 -1930847408 -1189916332 -1199223269 1089661939 2095114887 818076697 798798033 897406117 536073852 1752679623 623059572 -367367780 1358221751 1233243019 -1991143441 1232956395 -515392054
REM
CELL 1.54180   50.00000   50.00000   50.00000   90.00000   90.00000   90.00000
LATT -1
SFAC C  
C      1  0.5630590000000  0.5262010000000  0.5504810000000 1.0
C      1  0.5583570000000  0.4936150000000  0.5630460000000 1.0
C      1  0.5083520000000  0.5397040000000  0.4120530000000 1.0
C      1  0.4110170000000  0.5480900000000  0.4486710000000 1.0
C      1  0.5481180000000  0.4728500000000  0.4105530000000 1.0
C      1  0.5810540000000  0.5167320000000  0.4320940000000 1.0
C      1  0.4369600000000  0.4636450000000  0.4400430000000 1.0
C      1  0.4027750000000  0.5127770000000  0.5155240000000 1.0
C      1  0.5801020000000  0.4717040000000  0.5621270000000 1.0
C      1  0.3959730000000  0.4848080000000  0.5194090000000 1.0
C      1  0.4789110000000  0.4519400000000  0.4442990000000 1.0
C      1  0.5668200000000  0.4604360000000  0.4286690000000 1.0
C      1  0.4401920000000  0.5416480000000  0.5010390000000 1.0
C      1  0.5712020000000  0.5260840000000  0.4988120000000 1.0
C      1  0.5279590000000  0.4660100000000  0.5984390000000 1.0
C      1  0.4556150000000  0.4945830000000  0.5987740000000 1.0
C      1  0.4622880000000  0.4336890000000  0.4646580000000 1.0
C      1  0.4857780000000  0.4922090000000  0.4748410000000 1.0
C      1  0.4312930000000  0.5067040000000  0.5609180000000 1.0
C      1  0.4585550000000  0.4584010000000  0.5749850000000 1.0
C      1  0.5514000000000  0.4145800000000  0.5326230000000 1.0
C      1  0.4854150000000  0.4991580000000  0.4031960000000 1.0
C      1  0.4793400000000  0.5405670000000  0.4748760000000 1.0
C      1  0.5536760000000  0.5891450000000  0.5005100000000 1.0
C      1  0.4555950000000  0.4961410000000  0.4740930000000 1.0
C      1  0.6182610000000  0.4747300000000  0.4542770000000 1.0
C      1  0.4362050000000  0.4755710000000  0.5885350000000 1.0
C      1  0.4355230000000  0.5763330000000  0.5469770000000 1.0
C      1  0.4211750000000  0.4525110000000  0.5314990000000 1.0
C      1  0.5216030000000  0.4557440000000  0.4846810000000 1.0
C      1  0.4672220000000  0.5211600000000  0.4070710000000 1.0
C      1  0.4851190000000  0.3948780000000  0.4935620000000 1.0
C      1  0.4592710000000  0.3993100000000  0.5038470000000 1.0
C      1  0.5238570000000  0.4036740000000  0.5319600000000 1.0
C      1  0.5732860000000  0.5370400000000  0.5258290000000 1.0
C      1  0.4576410000000  0.4167020000000  0.5424010000000 1.0
C      1  0.5012100000000  0.4520180000000  0.3968180000000 1.0
C      1  0.4628030000000  0.5405720000000  0.5874600000000 1.0
C      1  0.4643370000000  0.5826530000000  0.5536600000000 1.0
C      1  0.5893650000000  0.4353910000000  0.5006800000000 1.0
C      1  0.5117470000000  0.5096290000000  0.4163770000000 1.0
C      1  0.5189210000000  0.5027180000000  0.5173190000000 1.0
C      1  0.5260090000000  0.4959940000000  0.5969910000000 1.0
C      1  0.5421920000000  0.4994430000000  0.5040270000000 1.0
C      1  0.5032890000000  0.4505010000000  0.5930620000000 1.0
C      1  0.5253780000000  0.4058770000000  0.4562730000000 1.0
C      1  0.5053700000000  0.5777270000000  0.4697160000000 1.0
C      1  0.5131930000000  0.3972010000000  0.5055030000000 1.0
C      1  0.5032690000000  0.5123130000000  0.5871630000000 1.0
C      1  0.5947640000000  0.5649520000000  0.4982760000000 1.0
C      1  0.5599660000000  0.5850070000000  0.5289230000000 1.0
C      1  0.5959530000000  0.4676050000000  0.5382890000000 1.0
C      1  0.4978030000000  0.4843320000000  0.5253890000000 1.0
C      1  0.5586500000000  0.5237650000000  0.4142260000000 1.0
C      1  0.4717920000000  0.5802630000000  0.5089020000000 1.0
C      1  0.5215340000000  0.5582020000000  0.4558890000000 1.0
C      1  0.4383840000000  0.4736910000000  0.5210150000000 1.0
C      1  0.4731110000000  0.4993970000000  0.5314180000000 1.0
C      1  0.4821150000000  0.4455660000000  0.5092060000000 1.0
C      1  0.4842760000000  0.4294870000000  0.5343720000000 1.0
C      1  0.5070700000000  0.4732280000000  0.5527640000000 1.0
C      1  0.5302400000000  0.4077680000000  0.4845860000000 1.0
C      1  0.5930140000000  0.4773190000000  0.4588300000000 1.0
C      1  0.5300500000000  0.4609870000000  0.4574780000000 1.0
C      1  0.5078850000000  0.5478810000000  0.5146140000000 1.0
C      1  0.4757340000000  0.5164360000000  0.5984340000000 1.0
C      1  0.4485620000000  0.5225540000000  0.4308490000000 1.0
C      1  0.5448910000000  0.4376320000000  0.5183540000000 1.0
C      1  0.4806390000000  0.5475250000000  0.4086490000000 1.0
C      1  0.4884220000000  0.4662900000000  0.5735340000000 1.0
C      1  0.4147870000000  0.4843720000000  0.5688990000000 1.0
C      1  0.3967820000000  0.4655310000000  0.4949070000000 1.0
C      1  0.5041280000000  0.4669360000000  0.4446710000000 1.0
C      1  0.4187620000000  0.5704310000000  0.5230460000000 1.0
C      1  0.5103720000000  0.5436720000000  0.5435120000000 1.0
C      1  0.5492400000000  0.5379100000000  0.5716710000000 1.0
C      1  0.5362670000000  0.5832430000000  0.5467190000000 1.0
C      1  0.5050860000000  0.5620420000000  0.5663540000000 1.0
C      1  0.5808260000000  0.5277240000000  0.4592290000000 1.0
C      1  0.4832880000000  0.6137210000000  0.4704210000000 1.0
C      1  0.4122110000000  0.5386900000000  0.5096650000000 1.0
C      1  0.4271470000000  0.5423880000000  0.4275420000000 1.0
C      1  0.4794070000000  0.4707640000000  0.4027930000000 1.0
C      1  0.5399930000000  0.5016380000000  0.4096310000000 1.0
C      1  0.5474730000000  0.5179870000000  0.4835860000000 1.0
C      1  0.4293960000000  0.5857890000000  0.5033160000000 1.0
C      1  0.4133270000000  0.4817390000000  0.4785390000000 1.0
C      1  0.5823060000000  0.5662290000000  0.5246420000000 1.0
C      1  0.5697260000000  0.5004110000000  0.4542570000000 1.0
C      1  0.5084310000000  0.4209230000000  0.5498780000000 1.0
C      1  0.5032200000000  0.5203000000000  0.5592650000000 1.0
C      1  0.4761740000000  0.5641250000000  0.5738860000000 1.0
C      1  0.4532930000000  0.4367600000000  0.5604590000000 1.0
C      1  0.5135800000000  0.5941380000000  0.5304480000000 1.0
C      1  0.5919310000000  0.4395150000000  0.5288830000000 1.0
C      1  0.5087670000000  0.4960770000000  0.4492150000000 1.0
C      1  0.5407800000000  0.5436850000000  0.4714490000000 1.0
C      1  0.5649220000000  0.5518840000000  0.4589110000000 1.0
C      1  0.4612450000000  0.4583940000000  0.4230990000000 1.0
C      1  0.5485670000000  0.4635560000000  0.5283350000000 1.0
C      1  0.4326930000000  0.5486490000000  0.5550630000000 1.0
C      1  0.4679150000000  0.5413920000000  0.4488950000000 1.0
C      1  0.5293080000000  0.4532640000000  0.3985550000000 1.0
C      1  0.5257930000000  0.5997370000000  0.5042260000000 1.0
C      1  0.4495310000000  0.5970870000000  0.4907770000000 1.0
C      1  0.5733510000000  0.4262350000000  0.5475480000000 1.0
C      1  0.4034070000000  0.4716080000000  0.5449850000000 1.0
C      1  0.4384170000000  0.4095010000000  0.5191490000000 1.0
C      1  0.4385040000000  0.4937270000000  0.4460010000000 1.0
C      1  0.4603640000000  0.5435570000000  0.5432260000000 1.0
C      1  0.4592480000000  0.4468060000000  0.4916190000000 1.0
C      1  0.5910010000000  0.4877010000000  0.5173290000000 1.0
C      1  0.4566570000000  0.6029460000000  0.4624320000000 1.0
C      1  0.4777660000000  0.4062530000000  0.4673560000000 1.0
C      1  0.6103620000000  0.5383130000000  0.4975170000000 1.0
C      1  0.4267320000000  0.5691070000000  0.4361740000000 1.0
C      1  0.4384340000000  0.5205590000000  0.4825590000000 1.0
C      1  0.4516750000000  0.5835710000000  0.4400930000000 1.0
C      1  0.4903920000000  0.5177260000000  0.4845390000000 1.0
C      1  0.4972740000000  0.4679760000000  0.4953430000000 1.0
C      1  0.4371320000000  0.5310590000000  0.5776890000000 1.0
C      1  0.5484030000000  0.5109800000000  0.5861110000000 1.0
C      1  0.5361510000000  0.4750900000000  0.5516690000000 1.0
C      1  0.5690260000000  0.4456400000000  0.5691150000000 1.0
C      1  0.4186570000000  0.4305800000000  0.5113810000000 1.0
C      1  0.4989240000000  0.4056130000000  0.4478600000000 1.0
C      1  0.5186510000000  0.4310880000000  0.5760720000000 1.0
C      1  0.4129250000000  0.5269760000000  0.4693660000000 1.0
C      1  0.5436390000000  0.4446840000000  0.5845880000000 1.0
C      1  0.4727020000000  0.5646990000000  0.4323910000000 1.0
C      1  0.5340510000000  0.5647380000000  0.5699530000000 1.0
C      1  0.4462870000000  0.4955230000000  0.5370040000000 1.0
C      1  0.5163550000000  0.4325980000000  0.4117580000000 1.0
C      1  0.5543620000000  0.5489690000000  0.4284080000000 1.0
C      1  0.4120900000000  0.4410760000000  0.4847600000000 1.0
C      1  0.5717950000000  0.5732400000000  0.4837520000000 1.0
C      1  0.5356910000000  0.4342270000000  0.4939140000000 1.0
C      1  0.4764480000000  0.5204980000000  0.5488070000000 1.0
C      1  0.4604180000000  0.5542380000000  0.5172300000000 1.0
C      1  0.5859750000000  0.4333780000000  0.4737040000000 1.0
C      1  0.5109160000000  0.6049930000000  0.4788590000000 1.0
C      1  0.5271080000000  0.5571680000000  0.4262600000000 1.0
C      1  0.5074190000000  0.5232480000000  0.5045910000000 1.0
C      1  0.4437390000000  0.4734830000000  0.4917380000000 1.0
C      1  0.4841780000000  0.5916630000000  0.5340070000000 1.0
C      1  0.4313070000000  0.4435190000000  0.4607180000000 1.0
C      1  0.5853290000000  0.4501270000000  0.4465370000000 1.0
C      1  0.5365980000000  0.4899940000000  0.4571270000000 1.0
C      1  0.4922350000000  0.5622420000000  0.4927320000000 1.0
C      1  0.6081410000000  0.5108250000000  0.5080520000000 1.0
C      1  0.5628800000000  0.4832190000000  0.5124110000000 1.0
C      1  0.5177270000000  0.4269520000000  0.4396620000000 1.0
C      1  0.4115760000000  0.5003870000000  0.4567440000000 1.0
END
