TITL C-883731-9874-36 8514508.15181154 125000 -23550.050048828 0 0 159 (C1) n - 1
REM
REM in /home/nfs/bkarasulu/CARBON/AIRSS/Generating-Clusters/ReaxFF-fromJPCA2015/Units_Real/with-SteepDescent/Only-C1/SD-CG/Try1-3A/FIRE-CG
REM
REM
REM
REM
REM
REM ./C.cell (11c1c37f851c82e70ff6c80c92926a4b)
REM
REM compiler GCC version 9.2.1 20190827 (Red Hat 9.2.1-1)
REM options -cpp -mtune=generic -march=x86-64 -g -O0 -fpre-include=/usr/include/finclude/math-vector-fortran.h
REM seed -412162820 1783243876 -1314458808 1334469191 -375894550 -229250055 -2080897055 147247515 873534103 -539529207 -1057668194 -1554639880 285824492 -36716161 -1205719454 -1588203982 980584022 -2007611328 1193546669 -2054223462 1166772319 1892851258 -1405088757 -894779503 -89465178 1887643326 -1949727513 -7352697 -389366608 -262117579 -273214762 -1158749508 -417522294
REM
CELL 1.54180   50.00000   50.00000   50.00000   90.00000   90.00000   90.00000
LATT -1
SFAC C  
C      1  0.5531840000000  0.5719180000000  0.4556010000000 1.0
C      1  0.5858670000000  0.5738900000000  0.4940040000000 1.0
C      1  0.4384550000000  0.4683100000000  0.4924440000000 1.0
C      1  0.5374770000000  0.5785430000000  0.5014590000000 1.0
C      1  0.4655170000000  0.4025230000000  0.5082870000000 1.0
C      1  0.4807500000000  0.5588260000000  0.5756730000000 1.0
C      1  0.5873200000000  0.5277670000000  0.5744490000000 1.0
C      1  0.5286040000000  0.4377020000000  0.4217090000000 1.0
C      1  0.4273830000000  0.4893590000000  0.5804030000000 1.0
C      1  0.5203410000000  0.5591090000000  0.5432630000000 1.0
C      1  0.3995670000000  0.5346660000000  0.4705640000000 1.0
C      1  0.4457100000000  0.5440320000000  0.5445200000000 1.0
C      1  0.5505920000000  0.4598940000000  0.4995550000000 1.0
C      1  0.4608380000000  0.4519780000000  0.5372550000000 1.0
C      1  0.5375470000000  0.4819320000000  0.4870140000000 1.0
C      1  0.5453050000000  0.5097270000000  0.6090780000000 1.0
C      1  0.4129080000000  0.4520960000000  0.5425340000000 1.0
C      1  0.4507790000000  0.4141300000000  0.5567370000000 1.0
C      1  0.4970850000000  0.4026100000000  0.5455920000000 1.0
C      1  0.5539400000000  0.5518800000000  0.5445970000000 1.0
C      1  0.4486070000000  0.4519640000000  0.4720750000000 1.0
C      1  0.4773720000000  0.4438150000000  0.5955920000000 1.0
C      1  0.5304570000000  0.5298240000000  0.5047560000000 1.0
C      1  0.4565410000000  0.4712100000000  0.4234250000000 1.0
C      1  0.5022340000000  0.4420670000000  0.5803260000000 1.0
C      1  0.5166640000000  0.4814230000000  0.4085500000000 1.0
C      1  0.5012950000000  0.5419020000000  0.5621560000000 1.0
C      1  0.5273210000000  0.5078220000000  0.5211690000000 1.0
C      1  0.4763360000000  0.4493160000000  0.4699130000000 1.0
C      1  0.5076320000000  0.5872940000000  0.5409770000000 1.0
C      1  0.5134030000000  0.5458400000000  0.4508320000000 1.0
C      1  0.5913560000000  0.5401690000000  0.4598160000000 1.0
C      1  0.5056650000000  0.4258560000000  0.5306060000000 1.0
C      1  0.5807150000000  0.5035290000000  0.4395480000000 1.0
C      1  0.5512390000000  0.5006460000000  0.5346880000000 1.0
C      1  0.3978760000000  0.5388170000000  0.4995440000000 1.0
C      1  0.5443340000000  0.5669720000000  0.4257880000000 1.0
C      1  0.4359940000000  0.5501300000000  0.4455180000000 1.0
C      1  0.4558700000000  0.4889460000000  0.5893640000000 1.0
C      1  0.5210340000000  0.6021700000000  0.4947940000000 1.0
C      1  0.5406460000000  0.5917790000000  0.4763500000000 1.0
C      1  0.4461570000000  0.4875160000000  0.3982470000000 1.0
C      1  0.4445460000000  0.5371460000000  0.4166590000000 1.0
C      1  0.5445990000000  0.5008600000000  0.5648460000000 1.0
C      1  0.5714250000000  0.4209630000000  0.5326960000000 1.0
C      1  0.5718520000000  0.4113180000000  0.4813000000000 1.0
C      1  0.4966720000000  0.4082820000000  0.4632340000000 1.0
C      1  0.5669230000000  0.5274780000000  0.5365130000000 1.0
C      1  0.5486820000000  0.4998400000000  0.4712450000000 1.0
C      1  0.4492920000000  0.5749180000000  0.4351330000000 1.0
C      1  0.4274610000000  0.4688100000000  0.4315520000000 1.0
C      1  0.5247620000000  0.3991180000000  0.4713720000000 1.0
C      1  0.4879330000000  0.4468450000000  0.5297070000000 1.0
C      1  0.5871640000000  0.4337110000000  0.4758260000000 1.0
C      1  0.4179510000000  0.4266700000000  0.4653870000000 1.0
C      1  0.4512630000000  0.5259080000000  0.5653840000000 1.0
C      1  0.5482340000000  0.4120790000000  0.4612320000000 1.0
C      1  0.4577260000000  0.5911390000000  0.5476680000000 1.0
C      1  0.5934430000000  0.4387650000000  0.5423890000000 1.0
C      1  0.4998640000000  0.5960730000000  0.5146380000000 1.0
C      1  0.4973590000000  0.4971450000000  0.4517170000000 1.0
C      1  0.6025970000000  0.4653250000000  0.5430520000000 1.0
C      1  0.4704130000000  0.5958850000000  0.4759750000000 1.0
C      1  0.4650130000000  0.5513570000000  0.5162810000000 1.0
C      1  0.4378720000000  0.4114890000000  0.5112120000000 1.0
C      1  0.5143320000000  0.5665480000000  0.4266350000000 1.0
C      1  0.5059780000000  0.4661320000000  0.5353020000000 1.0
C      1  0.5235320000000  0.4924850000000  0.4338550000000 1.0
C      1  0.4731440000000  0.5848610000000  0.5054210000000 1.0
C      1  0.4886610000000  0.5967630000000  0.4566170000000 1.0
C      1  0.4696300000000  0.3994430000000  0.5374460000000 1.0
C      1  0.4233250000000  0.5828700000000  0.4749390000000 1.0
C      1  0.4580290000000  0.4864430000000  0.5132050000000 1.0
C      1  0.4037810000000  0.4719380000000  0.5216350000000 1.0
C      1  0.5046880000000  0.4541530000000  0.4118470000000 1.0
C      1  0.4120640000000  0.5590350000000  0.4610180000000 1.0
C      1  0.5552650000000  0.4445160000000  0.4123220000000 1.0
C      1  0.5453890000000  0.5267120000000  0.4801290000000 1.0
C      1  0.4906360000000  0.5856490000000  0.5855250000000 1.0
C      1  0.6030020000000  0.5199270000000  0.4804340000000 1.0
C      1  0.4910590000000  0.5270620000000  0.4045270000000 1.0
C      1  0.6001390000000  0.4978180000000  0.4611970000000 1.0
C      1  0.4167070000000  0.5320950000000  0.5453750000000 1.0
C      1  0.5941400000000  0.5190040000000  0.5461390000000 1.0
C      1  0.5602920000000  0.5148020000000  0.5839390000000 1.0
C      1  0.5285520000000  0.4433430000000  0.4897580000000 1.0
C      1  0.4292730000000  0.4467370000000  0.4514720000000 1.0
C      1  0.4800250000000  0.4484860000000  0.4247060000000 1.0
C      1  0.5372290000000  0.5256760000000  0.4050990000000 1.0
C      1  0.4288370000000  0.5080410000000  0.4102900000000 1.0
C      1  0.4036870000000  0.5221990000000  0.5219150000000 1.0
C      1  0.5194920000000  0.3947490000000  0.5901350000000 1.0
C      1  0.4587960000000  0.4807150000000  0.5406360000000 1.0
C      1  0.5011990000000  0.4802850000000  0.6099100000000 1.0
C      1  0.4253120000000  0.5858680000000  0.5041080000000 1.0
C      1  0.5386120000000  0.5472250000000  0.4609100000000 1.0
C      1  0.4740010000000  0.4734070000000  0.6056520000000 1.0
C      1  0.5170040000000  0.4931720000000  0.5713430000000 1.0
C      1  0.4849120000000  0.4142320000000  0.4889150000000 1.0
C      1  0.5612200000000  0.4067790000000  0.5090100000000 1.0
C      1  0.5154870000000  0.5100650000000  0.3968410000000 1.0
C      1  0.5524060000000  0.4896600000000  0.4443630000000 1.0
C      1  0.5640360000000  0.4476550000000  0.5437850000000 1.0
C      1  0.4145000000000  0.4983400000000  0.5147670000000 1.0
C      1  0.5157540000000  0.4670330000000  0.4815720000000 1.0
C      1  0.4185330000000  0.5575250000000  0.5085390000000 1.0
C      1  0.5393550000000  0.4386220000000  0.4512320000000 1.0
C      1  0.4308850000000  0.4947290000000  0.4846870000000 1.0
C      1  0.4064840000000  0.4643810000000  0.4934420000000 1.0
C      1  0.5568740000000  0.5425310000000  0.4160950000000 1.0
C      1  0.4972320000000  0.5138900000000  0.5654810000000 1.0
C      1  0.5246190000000  0.5551680000000  0.5140340000000 1.0
C      1  0.4248910000000  0.4170170000000  0.4873960000000 1.0
C      1  0.4144790000000  0.4953410000000  0.4330100000000 1.0
C      1  0.4833270000000  0.5319940000000  0.5038770000000 1.0
C      1  0.4430500000000  0.5438450000000  0.4992650000000 1.0
C      1  0.4001240000000  0.4879510000000  0.4774360000000 1.0
C      1  0.5986290000000  0.4727030000000  0.4770560000000 1.0
C      1  0.5051860000000  0.4918290000000  0.5219630000000 1.0
C      1  0.4242940000000  0.5165920000000  0.5683580000000 1.0
C      1  0.4523830000000  0.5340140000000  0.4715300000000 1.0
C      1  0.4489690000000  0.5944910000000  0.5199150000000 1.0
C      1  0.5345010000000  0.3988080000000  0.4992680000000 1.0
C      1  0.5555950000000  0.4548970000000  0.5741420000000 1.0
C      1  0.4554980000000  0.5658020000000  0.5605650000000 1.0
C      1  0.4649770000000  0.4980760000000  0.4420760000000 1.0
C      1  0.5881620000000  0.4530680000000  0.4578100000000 1.0
C      1  0.4681700000000  0.5015960000000  0.5649550000000 1.0
C      1  0.4816220000000  0.5378080000000  0.4748080000000 1.0
C      1  0.4680680000000  0.5190230000000  0.4207140000000 1.0
C      1  0.5798710000000  0.5310240000000  0.4342640000000 1.0
C      1  0.4984720000000  0.5247830000000  0.4590280000000 1.0
C      1  0.5137010000000  0.4212420000000  0.5034860000000 1.0
C      1  0.4912610000000  0.5557870000000  0.4083230000000 1.0
C      1  0.5752530000000  0.5715870000000  0.5479250000000 1.0
C      1  0.4466130000000  0.5921500000000  0.4593860000000 1.0
C      1  0.4486260000000  0.5068990000000  0.4652190000000 1.0
C      1  0.4835910000000  0.4308220000000  0.4479500000000 1.0
C      1  0.5103940000000  0.4647820000000  0.5639500000000 1.0
C      1  0.5892110000000  0.4822650000000  0.5043310000000 1.0
C      1  0.4635130000000  0.5619290000000  0.4131950000000 1.0
C      1  0.5296200000000  0.4838730000000  0.6106770000000 1.0
C      1  0.4818980000000  0.5029050000000  0.5093520000000 1.0
C      1  0.4365170000000  0.4316950000000  0.5363960000000 1.0
C      1  0.5824040000000  0.5663370000000  0.4681820000000 1.0
C      1  0.4858750000000  0.5975410000000  0.5580690000000 1.0
C      1  0.4628210000000  0.4284040000000  0.5774290000000 1.0
C      1  0.4184360000000  0.4699270000000  0.5619020000000 1.0
C      1  0.5878680000000  0.5549920000000  0.5670340000000 1.0
C      1  0.6056590000000  0.4922270000000  0.5408240000000 1.0
C      1  0.5983750000000  0.5090990000000  0.5064310000000 1.0
C      1  0.5466060000000  0.4641550000000  0.5920510000000 1.0
C      1  0.5651450000000  0.4725360000000  0.5214700000000 1.0
C      1  0.4925150000000  0.4735490000000  0.4702310000000 1.0
C      1  0.5072760000000  0.5975670000000  0.4366510000000 1.0
C      1  0.4005280000000  0.5077880000000  0.4564420000000 1.0
C      1  0.5608770000000  0.4572940000000  0.4418780000000 1.0
C      1  0.5079890000000  0.4110080000000  0.5732340000000 1.0
C      1  0.5880920000000  0.5811850000000  0.5205550000000 1.0
END
