TITL C-883738-3659-268 12.3570674205842 125000 -22293.243607915 0 0 150 (C1) n - 1
REM
REM in /home/nfs/bkarasulu/CARBON/AIRSS/Generating-Clusters/ReaxFF-fromJPCA2015/Units_Real/with-SteepDescent/Only-C1/SD-CG/Try1-3A/FIRE-CG
REM
REM
REM
REM
REM
REM ./C.cell (11c1c37f851c82e70ff6c80c92926a4b)
REM
REM compiler GCC version 9.2.1 20190827 (Red Hat 9.2.1-1)
REM options -cpp -mtune=generic -march=x86-64 -g -O0 -fpre-include=/usr/include/finclude/math-vector-fortran.h
REM seed -221610081 2084005890 566580271 -1146764870 -955726508 -310920530 -1473283377 -334167697 2027296568 120536067 643935205 -344949577 -773561351 345751680 -155455385 1037663525 -1828410442 -1870054131 1286808403 -546024117 1386241856 -1457774599 977320085 151428805 504801425 -1795755793 211133759 -487665461 -258279108 665325041 1346927938 -1398350087 -243093055
REM
CELL 1.54180   50.00000   50.00000   50.00000   90.00000   90.00000   90.00000
LATT -1
SFAC C  
C      1  0.5743890000000  0.5492110000000  0.4393730000000 1.0
C      1  0.5798620000000  0.5078180000000  0.4525820000000 1.0
C      1  0.5481480000000  0.4812060000000  0.4683900000000 1.0
C      1  0.4240170000000  0.5645050000000  0.5509410000000 1.0
C      1  0.4944370000000  0.4435980000000  0.4987070000000 1.0
C      1  0.5955540000000  0.4740580000000  0.5321910000000 1.0
C      1  0.4432970000000  0.5306880000000  0.4921510000000 1.0
C      1  0.4441350000000  0.5666020000000  0.5736350000000 1.0
C      1  0.4835110000000  0.5819440000000  0.5298870000000 1.0
C      1  0.5482640000000  0.4933330000000  0.4166650000000 1.0
C      1  0.5538260000000  0.5835330000000  0.5471790000000 1.0
C      1  0.5812210000000  0.5345860000000  0.5133620000000 1.0
C      1  0.4211750000000  0.5364460000000  0.5381530000000 1.0
C      1  0.4188270000000  0.4619820000000  0.5305970000000 1.0
C      1  0.4931510000000  0.5352930000000  0.5453220000000 1.0
C      1  0.5684840000000  0.5599030000000  0.5570610000000 1.0
C      1  0.5413970000000  0.5254190000000  0.5689950000000 1.0
C      1  0.4665190000000  0.5163830000000  0.5889980000000 1.0
C      1  0.5643080000000  0.5156900000000  0.4998340000000 1.0
C      1  0.5051210000000  0.5867830000000  0.5483750000000 1.0
C      1  0.5408240000000  0.5875820000000  0.4491820000000 1.0
C      1  0.4691270000000  0.4319840000000  0.4879070000000 1.0
C      1  0.5124600000000  0.5021440000000  0.5275810000000 1.0
C      1  0.4595770000000  0.4190660000000  0.4493410000000 1.0
C      1  0.5335480000000  0.4455060000000  0.5214110000000 1.0
C      1  0.5228890000000  0.4427190000000  0.4945180000000 1.0
C      1  0.5522870000000  0.5089520000000  0.4605570000000 1.0
C      1  0.4731660000000  0.4016150000000  0.5141280000000 1.0
C      1  0.5874870000000  0.5457800000000  0.4667290000000 1.0
C      1  0.4284950000000  0.4984250000000  0.5693970000000 1.0
C      1  0.4734200000000  0.5699110000000  0.5826860000000 1.0
C      1  0.5679780000000  0.5287120000000  0.4205270000000 1.0
C      1  0.4571550000000  0.5559040000000  0.4231780000000 1.0
C      1  0.5918050000000  0.4470890000000  0.5233750000000 1.0
C      1  0.4385560000000  0.5368040000000  0.4364140000000 1.0
C      1  0.4331130000000  0.4444320000000  0.5519610000000 1.0
C      1  0.4678410000000  0.5470610000000  0.4908710000000 1.0
C      1  0.4452880000000  0.4905020000000  0.5882860000000 1.0
C      1  0.5508560000000  0.4516580000000  0.5654220000000 1.0
C      1  0.5129170000000  0.5909550000000  0.4594070000000 1.0
C      1  0.5343240000000  0.5166040000000  0.5403960000000 1.0
C      1  0.5281130000000  0.4880030000000  0.5988660000000 1.0
C      1  0.4649860000000  0.5747570000000  0.4882870000000 1.0
C      1  0.4099820000000  0.4891290000000  0.5277640000000 1.0
C      1  0.4701870000000  0.4075430000000  0.4750450000000 1.0
C      1  0.5089740000000  0.4308210000000  0.4293170000000 1.0
C      1  0.5494830000000  0.5646190000000  0.4315800000000 1.0
C      1  0.5138900000000  0.5313380000000  0.5986710000000 1.0
C      1  0.4489370000000  0.5804860000000  0.4660360000000 1.0
C      1  0.5214690000000  0.4037430000000  0.5240680000000 1.0
C      1  0.5139140000000  0.4626510000000  0.5374340000000 1.0
C      1  0.4648290000000  0.5779130000000  0.4416150000000 1.0
C      1  0.4364230000000  0.4185740000000  0.5423900000000 1.0
C      1  0.5077250000000  0.4323120000000  0.5755800000000 1.0
C      1  0.5445740000000  0.5277010000000  0.4813260000000 1.0
C      1  0.4563710000000  0.5139990000000  0.4409660000000 1.0
C      1  0.5066400000000  0.4820060000000  0.4861670000000 1.0
C      1  0.4125550000000  0.5075210000000  0.5501470000000 1.0
C      1  0.5203020000000  0.5500800000000  0.5822810000000 1.0
C      1  0.5299750000000  0.5951570000000  0.5348660000000 1.0
C      1  0.5692600000000  0.5318110000000  0.5648790000000 1.0
C      1  0.5277230000000  0.5422300000000  0.5245210000000 1.0
C      1  0.5184950000000  0.3979500000000  0.4711990000000 1.0
C      1  0.4200430000000  0.4473810000000  0.5055660000000 1.0
C      1  0.4729240000000  0.5562940000000  0.5396860000000 1.0
C      1  0.4198450000000  0.4889140000000  0.4478530000000 1.0
C      1  0.5589460000000  0.4591040000000  0.4516390000000 1.0
C      1  0.4905770000000  0.5189760000000  0.5205450000000 1.0
C      1  0.5037670000000  0.4726050000000  0.4425200000000 1.0
C      1  0.4776530000000  0.4698010000000  0.4545480000000 1.0
C      1  0.4945250000000  0.5371850000000  0.4848700000000 1.0
C      1  0.4936100000000  0.5787940000000  0.4418390000000 1.0
C      1  0.4602680000000  0.4427510000000  0.5652800000000 1.0
C      1  0.4847370000000  0.5150780000000  0.4445150000000 1.0
C      1  0.5974690000000  0.4988170000000  0.5394160000000 1.0
C      1  0.4653270000000  0.4487670000000  0.4141250000000 1.0
C      1  0.4805710000000  0.5138770000000  0.5623720000000 1.0
C      1  0.5049870000000  0.4713320000000  0.3963680000000 1.0
C      1  0.4204990000000  0.5758320000000  0.5252960000000 1.0
C      1  0.5893390000000  0.4478000000000  0.4823420000000 1.0
C      1  0.4898930000000  0.4583120000000  0.5224830000000 1.0
C      1  0.5112300000000  0.5926940000000  0.4889220000000 1.0
C      1  0.5205170000000  0.4746220000000  0.4655400000000 1.0
C      1  0.4852680000000  0.5889020000000  0.5015240000000 1.0
C      1  0.4120520000000  0.5049070000000  0.5013440000000 1.0
C      1  0.5537840000000  0.4884550000000  0.5083020000000 1.0
C      1  0.5468110000000  0.4667970000000  0.4234500000000 1.0
C      1  0.5015390000000  0.5337120000000  0.4588330000000 1.0
C      1  0.5016130000000  0.5708460000000  0.5730370000000 1.0
C      1  0.5255630000000  0.4180920000000  0.4500230000000 1.0
C      1  0.5587180000000  0.4789110000000  0.5627720000000 1.0
C      1  0.4568110000000  0.4669870000000  0.4353580000000 1.0
C      1  0.4855420000000  0.4263850000000  0.5585590000000 1.0
C      1  0.4394960000000  0.5017090000000  0.4910620000000 1.0
C      1  0.5029630000000  0.4984290000000  0.4289540000000 1.0
C      1  0.4428140000000  0.4281390000000  0.5020140000000 1.0
C      1  0.5305790000000  0.5467890000000  0.4200500000000 1.0
C      1  0.4589590000000  0.4633080000000  0.5863430000000 1.0
C      1  0.4586530000000  0.4820850000000  0.5001070000000 1.0
C      1  0.5570360000000  0.5835870000000  0.4711410000000 1.0
C      1  0.4928550000000  0.4090670000000  0.5334130000000 1.0
C      1  0.5877330000000  0.5257710000000  0.5417960000000 1.0
C      1  0.4790890000000  0.4793880000000  0.4806310000000 1.0
C      1  0.4652280000000  0.4941850000000  0.5479580000000 1.0
C      1  0.4802920000000  0.5161140000000  0.3977450000000 1.0
C      1  0.5581400000000  0.4934200000000  0.5365460000000 1.0
C      1  0.5215870000000  0.5392740000000  0.4951810000000 1.0
C      1  0.5881560000000  0.4644550000000  0.4604620000000 1.0
C      1  0.5809260000000  0.5567070000000  0.4931690000000 1.0
C      1  0.4620650000000  0.4940350000000  0.3998250000000 1.0
C      1  0.6003050000000  0.4913830000000  0.4595440000000 1.0
C      1  0.6007540000000  0.5198880000000  0.4662170000000 1.0
C      1  0.4176330000000  0.4591750000000  0.4559960000000 1.0
C      1  0.5358910000000  0.4277420000000  0.5671830000000 1.0
C      1  0.4033370000000  0.4550950000000  0.4816740000000 1.0
C      1  0.5398550000000  0.4218070000000  0.5379780000000 1.0
C      1  0.5337930000000  0.4002840000000  0.4975600000000 1.0
C      1  0.4234080000000  0.5674300000000  0.4717000000000 1.0
C      1  0.5432520000000  0.5208150000000  0.4084780000000 1.0
C      1  0.4187060000000  0.5735450000000  0.4991130000000 1.0
C      1  0.5346790000000  0.5918010000000  0.5062070000000 1.0
C      1  0.5562310000000  0.4171210000000  0.4889140000000 1.0
C      1  0.4446640000000  0.4918470000000  0.4272100000000 1.0
C      1  0.5506820000000  0.5580360000000  0.5331250000000 1.0
C      1  0.5102250000000  0.5073330000000  0.6122790000000 1.0
C      1  0.4180390000000  0.5411970000000  0.4569150000000 1.0
C      1  0.4799020000000  0.4279920000000  0.4280600000000 1.0
C      1  0.4665420000000  0.4741050000000  0.5266450000000 1.0
C      1  0.5069190000000  0.5005190000000  0.4003360000000 1.0
C      1  0.4806830000000  0.4715850000000  0.6027100000000 1.0
C      1  0.4507590000000  0.5380850000000  0.5345880000000 1.0
C      1  0.4573360000000  0.5478630000000  0.5905970000000 1.0
C      1  0.5237960000000  0.4885150000000  0.5071110000000 1.0
C      1  0.4139260000000  0.5131430000000  0.4602080000000 1.0
C      1  0.4624340000000  0.5134970000000  0.5267550000000 1.0
C      1  0.5092950000000  0.4624250000000  0.5917990000000 1.0
C      1  0.4179500000000  0.5331040000000  0.5068410000000 1.0
C      1  0.5625260000000  0.5816390000000  0.4965160000000 1.0
C      1  0.4445390000000  0.4038570000000  0.5194740000000 1.0
C      1  0.5023590000000  0.5505730000000  0.4314620000000 1.0
C      1  0.5479250000000  0.4999970000000  0.5817350000000 1.0
C      1  0.4793370000000  0.5420520000000  0.4113790000000 1.0
C      1  0.4357280000000  0.4359760000000  0.4514050000000 1.0
C      1  0.5216170000000  0.4530640000000  0.4129000000000 1.0
C      1  0.4814370000000  0.4995950000000  0.6093940000000 1.0
C      1  0.5127410000000  0.4717440000000  0.5645200000000 1.0
C      1  0.5820600000000  0.4287280000000  0.4998640000000 1.0
C      1  0.5418680000000  0.4350480000000  0.4691400000000 1.0
C      1  0.4927720000000  0.4012830000000  0.4674600000000 1.0
C      1  0.4755360000000  0.4689930000000  0.3950040000000 1.0
END
