TITL C-883738-3659-64 1.51554121692674 125000 -1852.64007227631 0 0 14 (C1) n - 1
REM
REM in /home/nfs/bkarasulu/CARBON/AIRSS/Generating-Clusters/ReaxFF-fromJPCA2015/Units_Real/with-SteepDescent/Only-C1/SD-CG/Try1-3A/FIRE-CG
REM
REM
REM
REM
REM
REM ./C.cell (11c1c37f851c82e70ff6c80c92926a4b)
REM
REM compiler GCC version 9.2.1 20190827 (Red Hat 9.2.1-1)
REM options -cpp -mtune=generic -march=x86-64 -g -O0 -fpre-include=/usr/include/finclude/math-vector-fortran.h
REM seed 2116875343 -1652920417 -1808402484 249221815 1326378694 1472326683 236340215 1582770936 517365817 -2017127000 1576104390 -1005187954 -1338566331 1270375776 1107972081 -1378312827 -292524325 -1894780469 -1006252690 -205503469 217992625 1157355520 1176517398 128742310 1494242655 -1862417879 -1072350488 -2024374598 -1964842141 -1939375649 -1149393244 2083337358 1544564940
REM
CELL 1.54180   50.00000   50.00000   50.00000   90.00000   90.00000   90.00000
LATT -1
SFAC C  
C      1  0.5010080000000  0.4724420000000  0.5220050000000 1.0
C      1  0.4983990000000  0.5088680000000  0.4646490000000 1.0
C      1  0.5539100000000  0.5061750000000  0.5202400000000 1.0
C      1  0.5452460000000  0.5247410000000  0.4938770000000 1.0
C      1  0.5393540000000  0.4836440000000  0.5343440000000 1.0
C      1  0.4519250000000  0.5004700000000  0.4901850000000 1.0
C      1  0.4086440000000  0.5224340000000  0.5035670000000 1.0
C      1  0.5742170000000  0.5047870000000  0.5352040000000 1.0
C      1  0.4902800000000  0.5025910000000  0.4420660000000 1.0
C      1  0.4298270000000  0.5116840000000  0.4970170000000 1.0
C      1  0.5211090000000  0.4694330000000  0.5374900000000 1.0
C      1  0.4849490000000  0.4798950000000  0.5032210000000 1.0
C      1  0.4760310000000  0.4909340000000  0.4793980000000 1.0
C      1  0.5251000000000  0.5219030000000  0.4767360000000 1.0
END
