TITL C-884133-6611-315 79.131688549028 125000 -19776.1539684971 0 0 135 (C1) n - 1
REM
REM in /home/nfs/bkarasulu/CARBON/AIRSS/Generating-Clusters/ReaxFF-fromJPCA2015/Units_Real/with-SteepDescent/Only-C1/SD-CG/Try1-3A/FIRE-CG
REM
REM
REM
REM
REM
REM ./C.cell (11c1c37f851c82e70ff6c80c92926a4b)
REM
REM compiler GCC version 9.2.1 20190827 (Red Hat 9.2.1-1)
REM options -cpp -mtune=generic -march=x86-64 -g -O0 -fpre-include=/usr/include/finclude/math-vector-fortran.h
REM seed -713016098 763070318 222441587 -476083346 1099756428 1902787991 -1109338876 -320331154 773131299 -1859152816 -921727815 1260608919 1310333305 -1192308128 736729447 1780306935 1601124088 1283382107 -340409154 -1180778536 2025513324 -267200977 -358472835 1328603985 -472978090 -1278154818 1734646431 1674766873 1929273100 -203211979 -2066745511 2085151310 1378678214
REM
CELL 1.54180   50.00000   50.00000   50.00000   90.00000   90.00000   90.00000
LATT -1
SFAC C  
C      1  0.4767770000000  0.5405050000000  0.5150570000000 1.0
C      1  0.5910340000000  0.4624930000000  0.5197070000000 1.0
C      1  0.5219390000000  0.4280000000000  0.4290260000000 1.0
C      1  0.5192820000000  0.4399310000000  0.4679270000000 1.0
C      1  0.5629010000000  0.5722500000000  0.4886520000000 1.0
C      1  0.4843300000000  0.4761290000000  0.4595670000000 1.0
C      1  0.5106080000000  0.4109470000000  0.4575400000000 1.0
C      1  0.4705090000000  0.5304040000000  0.4009940000000 1.0
C      1  0.4533030000000  0.4854020000000  0.4970780000000 1.0
C      1  0.5016270000000  0.5332670000000  0.5909940000000 1.0
C      1  0.5341970000000  0.5515000000000  0.4208520000000 1.0
C      1  0.5041130000000  0.5588300000000  0.4273600000000 1.0
C      1  0.5644610000000  0.5088070000000  0.4343180000000 1.0
C      1  0.4812220000000  0.5791030000000  0.5473630000000 1.0
C      1  0.5350120000000  0.4932350000000  0.5904890000000 1.0
C      1  0.5040380000000  0.4937180000000  0.4135140000000 1.0
C      1  0.4614240000000  0.4813030000000  0.5822080000000 1.0
C      1  0.5309670000000  0.4698720000000  0.4921860000000 1.0
C      1  0.4796400000000  0.5168980000000  0.5556860000000 1.0
C      1  0.4143830000000  0.4929720000000  0.5334360000000 1.0
C      1  0.5407050000000  0.4564180000000  0.5354600000000 1.0
C      1  0.4193780000000  0.5423770000000  0.5202820000000 1.0
C      1  0.4695450000000  0.4359720000000  0.5574170000000 1.0
C      1  0.4447030000000  0.5785590000000  0.5044940000000 1.0
C      1  0.5816630000000  0.4700490000000  0.4603580000000 1.0
C      1  0.4224850000000  0.5393010000000  0.4794210000000 1.0
C      1  0.4493780000000  0.5129040000000  0.4488400000000 1.0
C      1  0.4533970000000  0.5665120000000  0.5511280000000 1.0
C      1  0.5761870000000  0.4423690000000  0.5039300000000 1.0
C      1  0.4131030000000  0.4734920000000  0.4617110000000 1.0
C      1  0.4810750000000  0.5531430000000  0.4699690000000 1.0
C      1  0.4406870000000  0.4191100000000  0.5194370000000 1.0
C      1  0.5166330000000  0.4104480000000  0.5611480000000 1.0
C      1  0.4774600000000  0.5488640000000  0.4239010000000 1.0
C      1  0.4999200000000  0.5704190000000  0.4531020000000 1.0
C      1  0.5181940000000  0.5908840000000  0.4647840000000 1.0
C      1  0.5189580000000  0.5170050000000  0.5157620000000 1.0
C      1  0.4345640000000  0.5667980000000  0.5289430000000 1.0
C      1  0.5764830000000  0.5298470000000  0.5178290000000 1.0
C      1  0.4358180000000  0.5595630000000  0.4618520000000 1.0
C      1  0.4623570000000  0.4163590000000  0.5355660000000 1.0
C      1  0.5059480000000  0.6098220000000  0.4840090000000 1.0
C      1  0.4178270000000  0.4322940000000  0.5209690000000 1.0
C      1  0.5074470000000  0.5218700000000  0.5526440000000 1.0
C      1  0.4162080000000  0.5208220000000  0.5406740000000 1.0
C      1  0.4795820000000  0.4113660000000  0.4602560000000 1.0
C      1  0.5964250000000  0.5093300000000  0.5235610000000 1.0
C      1  0.5735720000000  0.4459080000000  0.4746970000000 1.0
C      1  0.5391960000000  0.4078460000000  0.5076960000000 1.0
C      1  0.4562620000000  0.5953330000000  0.4678360000000 1.0
C      1  0.5233530000000  0.5412790000000  0.5179520000000 1.0
C      1  0.5650940000000  0.5518450000000  0.5356250000000 1.0
C      1  0.5535030000000  0.4314350000000  0.5179480000000 1.0
C      1  0.5253900000000  0.5101850000000  0.4563270000000 1.0
C      1  0.5264980000000  0.5844870000000  0.5281250000000 1.0
C      1  0.5346710000000  0.5746070000000  0.4828920000000 1.0
C      1  0.4970000000000  0.4301940000000  0.5753480000000 1.0
C      1  0.5076760000000  0.5050030000000  0.5954370000000 1.0
C      1  0.4238990000000  0.4508150000000  0.4764940000000 1.0
C      1  0.4500580000000  0.5465930000000  0.5720250000000 1.0
C      1  0.4414880000000  0.4734080000000  0.4693190000000 1.0
C      1  0.5617380000000  0.5224630000000  0.4940660000000 1.0
C      1  0.5851510000000  0.4699030000000  0.5471730000000 1.0
C      1  0.5185870000000  0.5478290000000  0.5660580000000 1.0
C      1  0.5935090000000  0.5111240000000  0.4651390000000 1.0
C      1  0.5016820000000  0.4414920000000  0.4132930000000 1.0
C      1  0.4496140000000  0.5091310000000  0.5107480000000 1.0
C      1  0.5249320000000  0.5001400000000  0.5448880000000 1.0
C      1  0.6009190000000  0.4872440000000  0.4762880000000 1.0
C      1  0.4195250000000  0.4442800000000  0.5426360000000 1.0
C      1  0.5182900000000  0.5137480000000  0.4281390000000 1.0
C      1  0.5495200000000  0.4771840000000  0.5123580000000 1.0
C      1  0.5436740000000  0.4463400000000  0.4334680000000 1.0
C      1  0.4887930000000  0.5247890000000  0.4747350000000 1.0
C      1  0.5368810000000  0.5111620000000  0.4975680000000 1.0
C      1  0.5326260000000  0.4824730000000  0.4617920000000 1.0
C      1  0.5186550000000  0.5657020000000  0.5063950000000 1.0
C      1  0.5858960000000  0.5130130000000  0.5701600000000 1.0
C      1  0.5391290000000  0.5263620000000  0.4746450000000 1.0
C      1  0.5799860000000  0.5294920000000  0.4510730000000 1.0
C      1  0.5090870000000  0.5726340000000  0.5509970000000 1.0
C      1  0.5100710000000  0.4664150000000  0.4523120000000 1.0
C      1  0.5153460000000  0.4737700000000  0.5364120000000 1.0
C      1  0.5143080000000  0.4458590000000  0.4963680000000 1.0
C      1  0.4702210000000  0.4660800000000  0.5067110000000 1.0
C      1  0.4635040000000  0.5222020000000  0.5325100000000 1.0
C      1  0.5444170000000  0.5236150000000  0.4183170000000 1.0
C      1  0.4432540000000  0.5213720000000  0.3977470000000 1.0
C      1  0.4617930000000  0.4443720000000  0.4881890000000 1.0
C      1  0.4680430000000  0.4157220000000  0.4871500000000 1.0
C      1  0.4587310000000  0.5451510000000  0.4484950000000 1.0
C      1  0.4642490000000  0.4555040000000  0.4612850000000 1.0
C      1  0.4786300000000  0.5012520000000  0.4057360000000 1.0
C      1  0.5974560000000  0.4962370000000  0.5505250000000 1.0
C      1  0.5514200000000  0.5588220000000  0.4416340000000 1.0
C      1  0.6008710000000  0.4863360000000  0.5061840000000 1.0
C      1  0.4064880000000  0.4947480000000  0.4801010000000 1.0
C      1  0.4852490000000  0.5892830000000  0.5204370000000 1.0
C      1  0.5576140000000  0.5726340000000  0.5175320000000 1.0
C      1  0.5355370000000  0.4650920000000  0.5865150000000 1.0
C      1  0.4722520000000  0.5664130000000  0.5014060000000 1.0
C      1  0.4805390000000  0.4096860000000  0.5135160000000 1.0
C      1  0.4659320000000  0.4294820000000  0.4431620000000 1.0
C      1  0.5495940000000  0.5489680000000  0.5616430000000 1.0
C      1  0.5505190000000  0.4370020000000  0.4593830000000 1.0
C      1  0.4254520000000  0.4700510000000  0.5513290000000 1.0
C      1  0.4345710000000  0.5307010000000  0.5019190000000 1.0
C      1  0.4116310000000  0.4535110000000  0.5028200000000 1.0
C      1  0.4751120000000  0.5033890000000  0.4604230000000 1.0
C      1  0.4341740000000  0.5822840000000  0.4777060000000 1.0
C      1  0.4502940000000  0.4618690000000  0.5644230000000 1.0
C      1  0.4910060000000  0.4813050000000  0.5907720000000 1.0
C      1  0.4714400000000  0.4407810000000  0.4169280000000 1.0
C      1  0.5296430000000  0.4032590000000  0.5377400000000 1.0
C      1  0.5598240000000  0.4806820000000  0.4437390000000 1.0
C      1  0.4881030000000  0.4697360000000  0.5300650000000 1.0
C      1  0.4516120000000  0.4953150000000  0.4189960000000 1.0
C      1  0.5086310000000  0.6045780000000  0.5133420000000 1.0
C      1  0.5577550000000  0.4672780000000  0.5592140000000 1.0
C      1  0.4895100000000  0.4446330000000  0.5389010000000 1.0
C      1  0.4924720000000  0.5192020000000  0.5030600000000 1.0
C      1  0.4432030000000  0.5048610000000  0.5804750000000 1.0
C      1  0.5675620000000  0.5320960000000  0.5742040000000 1.0
C      1  0.5261240000000  0.4033390000000  0.4823140000000 1.0
C      1  0.4805260000000  0.6059230000000  0.4724310000000 1.0
C      1  0.5005950000000  0.4308620000000  0.5169670000000 1.0
C      1  0.4075090000000  0.4825090000000  0.5072960000000 1.0
C      1  0.5077080000000  0.4578310000000  0.5874120000000 1.0
C      1  0.4752920000000  0.5324560000000  0.5796250000000 1.0
C      1  0.4230730000000  0.5135770000000  0.4647620000000 1.0
C      1  0.5690170000000  0.5578770000000  0.4622350000000 1.0
C      1  0.4283500000000  0.5261630000000  0.5674390000000 1.0
C      1  0.4573320000000  0.4665780000000  0.4147650000000 1.0
C      1  0.5500840000000  0.4967310000000  0.5646510000000 1.0
C      1  0.5126130000000  0.4677010000000  0.4200350000000 1.0
END
