TITL C-884130-5973-85 -2.07692920277582 125000 -15856.4839675628 0 0 108 (C1) n - 1
REM
REM in /home/nfs/bkarasulu/CARBON/AIRSS/Generating-Clusters/ReaxFF-fromJPCA2015/Units_Real/with-SteepDescent/Only-C1/SD-CG/Try1-3A/FIRE-CG
REM
REM
REM
REM
REM
REM ./C.cell (11c1c37f851c82e70ff6c80c92926a4b)
REM
REM compiler GCC version 9.2.1 20190827 (Red Hat 9.2.1-1)
REM options -cpp -mtune=generic -march=x86-64 -g -O0 -fpre-include=/usr/include/finclude/math-vector-fortran.h
REM seed 1751801797 38465860 -1267816691 1896302220 -1187893616 -656307627 906100955 -257193190 425364694 1702890463 543753894 -970722705 713974092 -1324436659 -1894749710 873187273 901621274 -1164197727 1399805417 1652322336 -1238993097 -1844110454 -994268799 1777802352 1950419420 384304519 1795443745 25990209 -720931281 1892716247 -1597449073 925695410 1366938274
REM
CELL 1.54180   50.00000   50.00000   50.00000   90.00000   90.00000   90.00000
LATT -1
SFAC C  
C      1  0.4185400000000  0.5058570000000  0.5617150000000 1.0
C      1  0.4422960000000  0.5670710000000  0.5017680000000 1.0
C      1  0.4906690000000  0.5529440000000  0.5659750000000 1.0
C      1  0.4551790000000  0.4883840000000  0.4202860000000 1.0
C      1  0.4722800000000  0.5613220000000  0.5434600000000 1.0
C      1  0.5046890000000  0.4343430000000  0.4273150000000 1.0
C      1  0.4150540000000  0.4501420000000  0.5093430000000 1.0
C      1  0.5336580000000  0.5524650000000  0.5097380000000 1.0
C      1  0.5149140000000  0.5698870000000  0.4461460000000 1.0
C      1  0.4928310000000  0.4082990000000  0.5321250000000 1.0
C      1  0.5571940000000  0.4598120000000  0.5276590000000 1.0
C      1  0.4964790000000  0.5251680000000  0.4838840000000 1.0
C      1  0.4587510000000  0.4493060000000  0.4456460000000 1.0
C      1  0.4856460000000  0.5677640000000  0.4467810000000 1.0
C      1  0.5332810000000  0.5012920000000  0.4626770000000 1.0
C      1  0.5614670000000  0.4998910000000  0.4543320000000 1.0
C      1  0.5831290000000  0.4895880000000  0.4774930000000 1.0
C      1  0.4078070000000  0.5012200000000  0.4943310000000 1.0
C      1  0.4912660000000  0.4127750000000  0.5045040000000 1.0
C      1  0.4672840000000  0.4565420000000  0.5683780000000 1.0
C      1  0.5547230000000  0.5068020000000  0.5502770000000 1.0
C      1  0.5345450000000  0.5716840000000  0.5624270000000 1.0
C      1  0.4849460000000  0.4629070000000  0.5046570000000 1.0
C      1  0.5070490000000  0.4095810000000  0.4414780000000 1.0
C      1  0.5035290000000  0.4662590000000  0.4819180000000 1.0
C      1  0.5272990000000  0.4500390000000  0.4837280000000 1.0
C      1  0.5549590000000  0.5702840000000  0.5439760000000 1.0
C      1  0.5091360000000  0.4025730000000  0.4696470000000 1.0
C      1  0.4842070000000  0.4345520000000  0.5606370000000 1.0
C      1  0.4826110000000  0.4774970000000  0.5544020000000 1.0
C      1  0.5617000000000  0.5540600000000  0.4985470000000 1.0
C      1  0.4270480000000  0.4825190000000  0.5607800000000 1.0
C      1  0.4503320000000  0.4300210000000  0.5201810000000 1.0
C      1  0.5615560000000  0.5260710000000  0.4453810000000 1.0
C      1  0.5291450000000  0.5760410000000  0.4711390000000 1.0
C      1  0.5163040000000  0.5723750000000  0.4972710000000 1.0
C      1  0.4729530000000  0.5042320000000  0.5535380000000 1.0
C      1  0.4501530000000  0.4984470000000  0.5019280000000 1.0
C      1  0.4619650000000  0.5375310000000  0.5303530000000 1.0
C      1  0.4324310000000  0.5327860000000  0.5327260000000 1.0
C      1  0.4300530000000  0.5313670000000  0.5619950000000 1.0
C      1  0.4431890000000  0.5472670000000  0.4520260000000 1.0
C      1  0.4406010000000  0.4730870000000  0.4385830000000 1.0
C      1  0.5010960000000  0.5149490000000  0.5112320000000 1.0
C      1  0.4252870000000  0.5250280000000  0.4587610000000 1.0
C      1  0.5121120000000  0.4449410000000  0.5471260000000 1.0
C      1  0.5505660000000  0.4770910000000  0.5511540000000 1.0
C      1  0.4747570000000  0.5716420000000  0.4739530000000 1.0
C      1  0.5416870000000  0.5134850000000  0.4879550000000 1.0
C      1  0.5989990000000  0.4935190000000  0.5354320000000 1.0
C      1  0.4786040000000  0.4993680000000  0.4096250000000 1.0
C      1  0.5275440000000  0.5250000000000  0.5097700000000 1.0
C      1  0.4424140000000  0.4561370000000  0.5271840000000 1.0
C      1  0.5692150000000  0.5662780000000  0.5241260000000 1.0
C      1  0.5196940000000  0.5465400000000  0.5647930000000 1.0
C      1  0.5178530000000  0.5968050000000  0.5565730000000 1.0
C      1  0.5267940000000  0.4671920000000  0.5635460000000 1.0
C      1  0.5828130000000  0.5302040000000  0.5101150000000 1.0
C      1  0.4856500000000  0.5216580000000  0.4320830000000 1.0
C      1  0.4884400000000  0.5073070000000  0.4620150000000 1.0
C      1  0.5583130000000  0.4906910000000  0.4944280000000 1.0
C      1  0.5960730000000  0.5149630000000  0.4894390000000 1.0
C      1  0.5378480000000  0.4556990000000  0.4306210000000 1.0
C      1  0.5133140000000  0.5313140000000  0.4188330000000 1.0
C      1  0.4343320000000  0.4973740000000  0.4544280000000 1.0
C      1  0.5198690000000  0.4207880000000  0.4964350000000 1.0
C      1  0.4558000000000  0.5231600000000  0.4892410000000 1.0
C      1  0.5549070000000  0.5637920000000  0.4701250000000 1.0
C      1  0.5655870000000  0.4403110000000  0.4713210000000 1.0
C      1  0.5566140000000  0.4313240000000  0.5216640000000 1.0
C      1  0.4925080000000  0.5868510000000  0.5081780000000 1.0
C      1  0.5451730000000  0.4662770000000  0.5021690000000 1.0
C      1  0.5040540000000  0.5055740000000  0.5944460000000 1.0
C      1  0.4596980000000  0.4746410000000  0.5116800000000 1.0
C      1  0.5323280000000  0.5194550000000  0.5637960000000 1.0
C      1  0.4593720000000  0.4989390000000  0.4724710000000 1.0
C      1  0.5038190000000  0.6019390000000  0.5317130000000 1.0
C      1  0.4132150000000  0.5274060000000  0.4862600000000 1.0
C      1  0.5566730000000  0.5489950000000  0.4458290000000 1.0
C      1  0.4234590000000  0.5459380000000  0.5079540000000 1.0
C      1  0.4395550000000  0.4591220000000  0.5586910000000 1.0
C      1  0.4638530000000  0.4298700000000  0.4663520000000 1.0
C      1  0.5204460000000  0.4942740000000  0.5755110000000 1.0
C      1  0.4685250000000  0.4329720000000  0.4967850000000 1.0
C      1  0.4879980000000  0.5234560000000  0.6103250000000 1.0
C      1  0.5076060000000  0.4871430000000  0.4637860000000 1.0
C      1  0.5792100000000  0.5149650000000  0.5360530000000 1.0
C      1  0.5212400000000  0.4676970000000  0.4141930000000 1.0
C      1  0.5324640000000  0.5525550000000  0.4312600000000 1.0
C      1  0.5055140000000  0.5235510000000  0.3951400000000 1.0
C      1  0.5433030000000  0.4438750000000  0.4557550000000 1.0
C      1  0.4937040000000  0.4722150000000  0.4104110000000 1.0
C      1  0.4752900000000  0.5443760000000  0.4874580000000 1.0
C      1  0.5286040000000  0.4245370000000  0.5249330000000 1.0
C      1  0.4807820000000  0.4492830000000  0.4256790000000 1.0
C      1  0.4810440000000  0.5179310000000  0.5313880000000 1.0
C      1  0.4682180000000  0.4184860000000  0.5417230000000 1.0
C      1  0.4985640000000  0.4663330000000  0.5324900000000 1.0
C      1  0.4556620000000  0.5204140000000  0.5726600000000 1.0
C      1  0.4663700000000  0.5760830000000  0.5189070000000 1.0
C      1  0.4825280000000  0.4079090000000  0.4600470000000 1.0
C      1  0.5756970000000  0.4371950000000  0.4961820000000 1.0
C      1  0.4749960000000  0.5381470000000  0.5854880000000 1.0
C      1  0.4456090000000  0.5693790000000  0.4726520000000 1.0
C      1  0.4072130000000  0.4762100000000  0.5010860000000 1.0
C      1  0.5926960000000  0.4609070000000  0.4927670000000 1.0
C      1  0.6055250000000  0.4703880000000  0.5173390000000 1.0
C      1  0.4684510000000  0.5460980000000  0.4373190000000 1.0
END
