TITL C-883733-4178-301 174.717690478414 125000 -28667.0253860314 0 0 196 (C1) n - 1
REM
REM in /home/nfs/bkarasulu/CARBON/AIRSS/Generating-Clusters/ReaxFF-fromJPCA2015/Units_Real/with-SteepDescent/Only-C1/SD-CG/Try1-3A/FIRE-CG
REM
REM
REM
REM
REM
REM ./C.cell (11c1c37f851c82e70ff6c80c92926a4b)
REM
REM compiler GCC version 9.2.1 20190827 (Red Hat 9.2.1-1)
REM options -cpp -mtune=generic -march=x86-64 -g -O0 -fpre-include=/usr/include/finclude/math-vector-fortran.h
REM seed 1971477892 976649699 1267765047 -921933476 2014622279 1268038332 -493096104 -138559318 -1052032648 -1555197112 493257978 -835079012 1974921221 -826401083 -702196376 508890878 1632828017 -362837506 -1268552860 204447059 1812544229 -1448114115 -454441392 -594518843 -951517635 1955141095 -1779712431 -1506056420 1863933563 1874124587 1832678765 -193624875 636563790
REM
CELL 1.54180   50.00000   50.00000   50.00000   90.00000   90.00000   90.00000
LATT -1
SFAC C  
C      1  0.4427750000000  0.5145280000000  0.6093750000000 1.0
C      1  0.4963490000000  0.4994210000000  0.6138950000000 1.0
C      1  0.5989540000000  0.5259050000000  0.4775780000000 1.0
C      1  0.4967020000000  0.4831980000000  0.5212770000000 1.0
C      1  0.4401900000000  0.5491130000000  0.4081810000000 1.0
C      1  0.5635490000000  0.4142700000000  0.5449400000000 1.0
C      1  0.5112990000000  0.5322650000000  0.5078310000000 1.0
C      1  0.5027660000000  0.5866470000000  0.4362790000000 1.0
C      1  0.4877460000000  0.4809250000000  0.5714300000000 1.0
C      1  0.6042920000000  0.4618210000000  0.5281690000000 1.0
C      1  0.5707790000000  0.4717260000000  0.5847640000000 1.0
C      1  0.4605030000000  0.4827810000000  0.4522970000000 1.0
C      1  0.4270880000000  0.5292060000000  0.5004410000000 1.0
C      1  0.4567770000000  0.5574020000000  0.4617170000000 1.0
C      1  0.5465940000000  0.5496110000000  0.4689010000000 1.0
C      1  0.5431920000000  0.5016470000000  0.6084770000000 1.0
C      1  0.4823020000000  0.5398470000000  0.4249590000000 1.0
C      1  0.4148330000000  0.5598470000000  0.4544190000000 1.0
C      1  0.5119640000000  0.3872720000000  0.4879010000000 1.0
C      1  0.6022760000000  0.4946920000000  0.4379810000000 1.0
C      1  0.4265420000000  0.5150020000000  0.4529100000000 1.0
C      1  0.4834570000000  0.4727450000000  0.5438940000000 1.0
C      1  0.5379420000000  0.5703490000000  0.5785010000000 1.0
C      1  0.4713090000000  0.5038420000000  0.5131700000000 1.0
C      1  0.5080230000000  0.5032150000000  0.5747280000000 1.0
C      1  0.4095250000000  0.4421360000000  0.5128890000000 1.0
C      1  0.5231030000000  0.5402420000000  0.5449170000000 1.0
C      1  0.4597110000000  0.4528920000000  0.4157380000000 1.0
C      1  0.4714930000000  0.5910940000000  0.5434570000000 1.0
C      1  0.4276190000000  0.5652620000000  0.4288590000000 1.0
C      1  0.4319840000000  0.4258330000000  0.5185140000000 1.0
C      1  0.5369880000000  0.4901900000000  0.5492930000000 1.0
C      1  0.5708620000000  0.5206440000000  0.4279180000000 1.0
C      1  0.5946640000000  0.4844140000000  0.4924270000000 1.0
C      1  0.4774690000000  0.5916670000000  0.4506960000000 1.0
C      1  0.3998110000000  0.5266860000000  0.5402960000000 1.0
C      1  0.6078820000000  0.5488030000000  0.4935100000000 1.0
C      1  0.4599210000000  0.3915670000000  0.4966560000000 1.0
C      1  0.4511850000000  0.5640930000000  0.5153520000000 1.0
C      1  0.4832250000000  0.4980240000000  0.4467620000000 1.0
C      1  0.4486710000000  0.4448900000000  0.5516620000000 1.0
C      1  0.5046420000000  0.4834910000000  0.4336660000000 1.0
C      1  0.5594100000000  0.4469600000000  0.4183510000000 1.0
C      1  0.5792570000000  0.4626000000000  0.5441860000000 1.0
C      1  0.5159020000000  0.4427760000000  0.4723250000000 1.0
C      1  0.4275660000000  0.5693930000000  0.5601160000000 1.0
C      1  0.4208260000000  0.4978300000000  0.5100110000000 1.0
C      1  0.5275880000000  0.4574780000000  0.5936480000000 1.0
C      1  0.4162910000000  0.4657020000000  0.4697420000000 1.0
C      1  0.6013280000000  0.4572120000000  0.4992960000000 1.0
C      1  0.4914640000000  0.4350080000000  0.5173050000000 1.0
C      1  0.4978270000000  0.5931690000000  0.5560280000000 1.0
C      1  0.5792900000000  0.4429800000000  0.4551480000000 1.0
C      1  0.5558560000000  0.5932540000000  0.5117130000000 1.0
C      1  0.5072030000000  0.5693660000000  0.4125890000000 1.0
C      1  0.5287810000000  0.4840250000000  0.5224590000000 1.0
C      1  0.4803040000000  0.5677230000000  0.5223350000000 1.0
C      1  0.4341210000000  0.4556460000000  0.5743240000000 1.0
C      1  0.5921710000000  0.5380010000000  0.5397170000000 1.0
C      1  0.5642550000000  0.4875120000000  0.5416920000000 1.0
C      1  0.4371160000000  0.4887730000000  0.4687020000000 1.0
C      1  0.5364620000000  0.5068220000000  0.4523060000000 1.0
C      1  0.4682600000000  0.4742630000000  0.3979290000000 1.0
C      1  0.4329220000000  0.4859460000000  0.5741400000000 1.0
C      1  0.4677330000000  0.4982090000000  0.6088490000000 1.0
C      1  0.5348350000000  0.3979910000000  0.4725510000000 1.0
C      1  0.5166830000000  0.3961200000000  0.5164260000000 1.0
C      1  0.4609110000000  0.4100570000000  0.5782130000000 1.0
C      1  0.4572220000000  0.4619460000000  0.5042950000000 1.0
C      1  0.3918900000000  0.4810560000000  0.4740540000000 1.0
C      1  0.4721030000000  0.5994080000000  0.4786990000000 1.0
C      1  0.5540320000000  0.5738590000000  0.5547190000000 1.0
C      1  0.5708930000000  0.5668240000000  0.4635400000000 1.0
C      1  0.4141520000000  0.4158130000000  0.5008680000000 1.0
C      1  0.5034720000000  0.4174880000000  0.4379540000000 1.0
C      1  0.4431260000000  0.5897440000000  0.5466740000000 1.0
C      1  0.4324650000000  0.5878170000000  0.5157370000000 1.0
C      1  0.4406590000000  0.4221230000000  0.4618640000000 1.0
C      1  0.4040710000000  0.4575460000000  0.5372940000000 1.0
C      1  0.4559240000000  0.5763510000000  0.4371990000000 1.0
C      1  0.4724850000000  0.4612910000000  0.4671750000000 1.0
C      1  0.4994530000000  0.6025720000000  0.4993130000000 1.0
C      1  0.5112970000000  0.5971500000000  0.5313910000000 1.0
C      1  0.5054820000000  0.4470770000000  0.4090970000000 1.0
C      1  0.4603470000000  0.4610970000000  0.5335440000000 1.0
C      1  0.4609520000000  0.4965690000000  0.5778930000000 1.0
C      1  0.4647070000000  0.5209320000000  0.5635520000000 1.0
C      1  0.5331980000000  0.5396260000000  0.4426910000000 1.0
C      1  0.4861700000000  0.4521290000000  0.5858210000000 1.0
C      1  0.5815440000000  0.4122740000000  0.4936760000000 1.0
C      1  0.5003300000000  0.4672870000000  0.4763350000000 1.0
C      1  0.5687740000000  0.4390290000000  0.5590690000000 1.0
C      1  0.5314520000000  0.4439730000000  0.4967780000000 1.0
C      1  0.4412210000000  0.5195800000000  0.4025850000000 1.0
C      1  0.5378520000000  0.5853940000000  0.5323740000000 1.0
C      1  0.4447620000000  0.4873500000000  0.4978960000000 1.0
C      1  0.4324600000000  0.4565740000000  0.4267300000000 1.0
C      1  0.5188890000000  0.5533710000000  0.4898610000000 1.0
C      1  0.4138040000000  0.4803290000000  0.4264170000000 1.0
C      1  0.5577030000000  0.3978950000000  0.4908730000000 1.0
C      1  0.5021960000000  0.5427280000000  0.3897480000000 1.0
C      1  0.4305310000000  0.4233890000000  0.5472220000000 1.0
C      1  0.5485150000000  0.6040230000000  0.4867410000000 1.0
C      1  0.4105140000000  0.5672250000000  0.5160160000000 1.0
C      1  0.5294060000000  0.5344470000000  0.3932070000000 1.0
C      1  0.4084010000000  0.5547750000000  0.5417130000000 1.0
C      1  0.5321180000000  0.5552590000000  0.4147280000000 1.0
C      1  0.5263900000000  0.5144840000000  0.5575060000000 1.0
C      1  0.5307920000000  0.5056590000000  0.3976950000000 1.0
C      1  0.6054820000000  0.5228540000000  0.4492590000000 1.0
C      1  0.4668540000000  0.4335880000000  0.4624450000000 1.0
C      1  0.5846180000000  0.5116590000000  0.5523230000000 1.0
C      1  0.5340910000000  0.5284410000000  0.6057930000000 1.0
C      1  0.5326770000000  0.4124250000000  0.4466560000000 1.0
C      1  0.4929400000000  0.5525110000000  0.5881360000000 1.0
C      1  0.4665190000000  0.5460850000000  0.5781680000000 1.0
C      1  0.4940350000000  0.5110840000000  0.4717900000000 1.0
C      1  0.4874640000000  0.4611100000000  0.5036570000000 1.0
C      1  0.5489810000000  0.5487970000000  0.5928760000000 1.0
C      1  0.4747220000000  0.5476970000000  0.4814130000000 1.0
C      1  0.4735510000000  0.5199630000000  0.4894720000000 1.0
C      1  0.5083660000000  0.5733650000000  0.5772680000000 1.0
C      1  0.4363140000000  0.4046260000000  0.4849640000000 1.0
C      1  0.3872670000000  0.5211850000000  0.5147260000000 1.0
C      1  0.5532250000000  0.5916130000000  0.4607050000000 1.0
C      1  0.5405130000000  0.4655340000000  0.4288220000000 1.0
C      1  0.3935780000000  0.5449180000000  0.4667860000000 1.0
C      1  0.4372600000000  0.5517480000000  0.5812320000000 1.0
C      1  0.5035590000000  0.5416030000000  0.4433820000000 1.0
C      1  0.5190380000000  0.4963400000000  0.4756490000000 1.0
C      1  0.5182010000000  0.4277430000000  0.5224740000000 1.0
C      1  0.5063550000000  0.5239560000000  0.5973800000000 1.0
C      1  0.4231230000000  0.4437220000000  0.4515160000000 1.0
C      1  0.4958630000000  0.4685360000000  0.3910480000000 1.0
C      1  0.5209040000000  0.4826610000000  0.6086530000000 1.0
C      1  0.5264220000000  0.3867090000000  0.5386600000000 1.0
C      1  0.6095330000000  0.5315960000000  0.5174760000000 1.0
C      1  0.5942660000000  0.4647450000000  0.4408450000000 1.0
C      1  0.5558380000000  0.4490910000000  0.5847020000000 1.0
C      1  0.4467480000000  0.5970270000000  0.4879530000000 1.0
C      1  0.4915650000000  0.4193240000000  0.4659230000000 1.0
C      1  0.5815560000000  0.4661700000000  0.4153540000000 1.0
C      1  0.4109270000000  0.4862150000000  0.5384460000000 1.0
C      1  0.5812590000000  0.5198950000000  0.5784880000000 1.0
C      1  0.5278060000000  0.5086780000000  0.5040730000000 1.0
C      1  0.5207600000000  0.6096440000000  0.4796070000000 1.0
C      1  0.4493970000000  0.3983250000000  0.5534480000000 1.0
C      1  0.5697240000000  0.4976930000000  0.5947560000000 1.0
C      1  0.4990820000000  0.5733700000000  0.4996460000000 1.0
C      1  0.3928810000000  0.4914090000000  0.4461130000000 1.0
C      1  0.4344600000000  0.5405050000000  0.4684800000000 1.0
C      1  0.5576870000000  0.4280160000000  0.4406980000000 1.0
C      1  0.4667220000000  0.5239170000000  0.5356210000000 1.0
C      1  0.5655860000000  0.5271410000000  0.4803050000000 1.0
C      1  0.6064600000000  0.5018310000000  0.5531850000000 1.0
C      1  0.4840650000000  0.4324220000000  0.4203490000000 1.0
C      1  0.5392310000000  0.4025150000000  0.5579300000000 1.0
C      1  0.6109590000000  0.5025670000000  0.5099460000000 1.0
C      1  0.3994370000000  0.5449250000000  0.4979900000000 1.0
C      1  0.5152000000000  0.4572410000000  0.4379400000000 1.0
C      1  0.4886210000000  0.5173530000000  0.3848300000000 1.0
C      1  0.3927500000000  0.4967250000000  0.4991860000000 1.0
C      1  0.5878410000000  0.5689480000000  0.4898310000000 1.0
C      1  0.5680320000000  0.4056230000000  0.5175020000000 1.0
C      1  0.4268930000000  0.5248840000000  0.5865630000000 1.0
C      1  0.4846230000000  0.3930130000000  0.4814570000000 1.0
C      1  0.4701700000000  0.4209580000000  0.5266410000000 1.0
C      1  0.5784810000000  0.5633980000000  0.5423420000000 1.0
C      1  0.5201730000000  0.4244440000000  0.5531580000000 1.0
C      1  0.4635750000000  0.3936010000000  0.5273590000000 1.0
C      1  0.4123930000000  0.5038360000000  0.5622790000000 1.0
C      1  0.4994290000000  0.5410750000000  0.4700590000000 1.0
C      1  0.5516620000000  0.5268720000000  0.5068420000000 1.0
C      1  0.5317330000000  0.4931600000000  0.4262690000000 1.0
C      1  0.4107490000000  0.4422210000000  0.5609800000000 1.0
C      1  0.5690190000000  0.5438850000000  0.5770410000000 1.0
C      1  0.5663620000000  0.4827790000000  0.4842510000000 1.0
C      1  0.5616860000000  0.5034550000000  0.4637650000000 1.0
C      1  0.5833290000000  0.5418600000000  0.4422680000000 1.0
C      1  0.5250840000000  0.5967940000000  0.4532320000000 1.0
C      1  0.4437790000000  0.5381730000000  0.5218910000000 1.0
C      1  0.4959320000000  0.5411610000000  0.5312740000000 1.0
C      1  0.5466490000000  0.4677850000000  0.5011660000000 1.0
C      1  0.4636830000000  0.5039430000000  0.3930910000000 1.0
C      1  0.4248660000000  0.5064480000000  0.4226580000000 1.0
C      1  0.5083870000000  0.4945050000000  0.3844460000000 1.0
C      1  0.4731690000000  0.5173210000000  0.4348820000000 1.0
C      1  0.5111930000000  0.4400890000000  0.5773400000000 1.0
C      1  0.5882200000000  0.4374170000000  0.4821700000000 1.0
C      1  0.6158140000000  0.4870750000000  0.5330460000000 1.0
C      1  0.5438320000000  0.5452340000000  0.5259310000000 1.0
C      1  0.3968400000000  0.5200980000000  0.4525880000000 1.0
C      1  0.5782660000000  0.5770590000000  0.5154930000000 1.0
C      1  0.4610650000000  0.4379990000000  0.5881050000000 1.0
C      1  0.5835130000000  0.4970600000000  0.4159720000000 1.0
C      1  0.4660370000000  0.5615250000000  0.4122880000000 1.0
END
