TITL C-884132-5695-403 8.69353686075678 125000 -21577.6018173148 0 0 144 (C1) n - 1
REM
REM in /home/nfs/bkarasulu/CARBON/AIRSS/Generating-Clusters/ReaxFF-fromJPCA2015/Units_Real/with-SteepDescent/Only-C1/SD-CG/Try1-3A/FIRE-CG
REM
REM
REM
REM
REM
REM ./C.cell (11c1c37f851c82e70ff6c80c92926a4b)
REM
REM compiler GCC version 9.2.1 20190827 (Red Hat 9.2.1-1)
REM options -cpp -mtune=generic -march=x86-64 -g -O0 -fpre-include=/usr/include/finclude/math-vector-fortran.h
REM seed 855792549 292318789 634647944 -1506188120 847460315 -1298961807 693832808 1062500001 1318044151 1274814526 -381954377 1768486357 377367557 622780651 -1166036893 -323132218 1213862168 -1050603175 2045716160 -1882046439 -2079382733 133250112 -2038975859 -1878950738 -1132976032 -792490106 -168058673 -1587327947 883918421 -871072697 545916142 -1844733580 401734163
REM
CELL 1.54180   50.00000   50.00000   50.00000   90.00000   90.00000   90.00000
LATT -1
SFAC C  
C      1  0.5190010000000  0.5074040000000  0.4568020000000 1.0
C      1  0.5191850000000  0.4869150000000  0.6107390000000 1.0
C      1  0.4753420000000  0.4294260000000  0.4134320000000 1.0
C      1  0.4964960000000  0.5514310000000  0.5442170000000 1.0
C      1  0.5066720000000  0.4035040000000  0.5077220000000 1.0
C      1  0.5627600000000  0.4616000000000  0.5088890000000 1.0
C      1  0.4044150000000  0.5037520000000  0.4388340000000 1.0
C      1  0.5570470000000  0.5166310000000  0.4144230000000 1.0
C      1  0.5819620000000  0.5515010000000  0.4752710000000 1.0
C      1  0.4219210000000  0.4375320000000  0.5108530000000 1.0
C      1  0.5264770000000  0.5766400000000  0.4244610000000 1.0
C      1  0.4912610000000  0.4786540000000  0.5158810000000 1.0
C      1  0.4283470000000  0.5157900000000  0.5011620000000 1.0
C      1  0.4433700000000  0.5341450000000  0.4827340000000 1.0
C      1  0.4841080000000  0.4177110000000  0.5524460000000 1.0
C      1  0.4330770000000  0.5692060000000  0.4628680000000 1.0
C      1  0.4755160000000  0.5001630000000  0.5040880000000 1.0
C      1  0.4672640000000  0.4690030000000  0.4759400000000 1.0
C      1  0.5726020000000  0.4279770000000  0.4814720000000 1.0
C      1  0.5042960000000  0.5916200000000  0.5428010000000 1.0
C      1  0.4190200000000  0.5447150000000  0.4683950000000 1.0
C      1  0.4489640000000  0.4200010000000  0.4692540000000 1.0
C      1  0.4195630000000  0.5607040000000  0.5160240000000 1.0
C      1  0.4114470000000  0.5332840000000  0.5198160000000 1.0
C      1  0.4911720000000  0.4767190000000  0.4273110000000 1.0
C      1  0.3999920000000  0.5226250000000  0.4590880000000 1.0
C      1  0.5667230000000  0.4331510000000  0.5114540000000 1.0
C      1  0.5322960000000  0.4802120000000  0.4089260000000 1.0
C      1  0.5361650000000  0.4646510000000  0.5039660000000 1.0
C      1  0.5186710000000  0.4663470000000  0.5912380000000 1.0
C      1  0.4369250000000  0.4883750000000  0.5697650000000 1.0
C      1  0.4704830000000  0.4516410000000  0.5825220000000 1.0
C      1  0.5287100000000  0.5925070000000  0.5000980000000 1.0
C      1  0.5321930000000  0.4200950000000  0.5493330000000 1.0
C      1  0.5757090000000  0.4498560000000  0.5560350000000 1.0
C      1  0.4739020000000  0.4598050000000  0.5022640000000 1.0
C      1  0.4703850000000  0.5510290000000  0.4959780000000 1.0
C      1  0.5788890000000  0.5357320000000  0.5004540000000 1.0
C      1  0.5019970000000  0.5930390000000  0.5137610000000 1.0
C      1  0.5704700000000  0.4950060000000  0.4288570000000 1.0
C      1  0.5315850000000  0.5113820000000  0.5132050000000 1.0
C      1  0.4132110000000  0.4504200000000  0.4852950000000 1.0
C      1  0.5601530000000  0.5699270000000  0.4649970000000 1.0
C      1  0.4514250000000  0.5918710000000  0.5073520000000 1.0
C      1  0.4493780000000  0.4865140000000  0.4615380000000 1.0
C      1  0.5390080000000  0.5907150000000  0.4727970000000 1.0
C      1  0.4385660000000  0.4656030000000  0.4430440000000 1.0
C      1  0.5404020000000  0.5672070000000  0.5082960000000 1.0
C      1  0.4984900000000  0.5188140000000  0.4400570000000 1.0
C      1  0.4803190000000  0.4514740000000  0.4581990000000 1.0
C      1  0.4686060000000  0.4544660000000  0.4318200000000 1.0
C      1  0.4829540000000  0.5333800000000  0.3929590000000 1.0
C      1  0.5293520000000  0.5296030000000  0.4732160000000 1.0
C      1  0.4924510000000  0.4706410000000  0.5455880000000 1.0
C      1  0.5579760000000  0.5145140000000  0.4998040000000 1.0
C      1  0.5096930000000  0.4814850000000  0.4535900000000 1.0
C      1  0.5431330000000  0.5478830000000  0.4575530000000 1.0
C      1  0.4082290000000  0.5162100000000  0.5435520000000 1.0
C      1  0.5644950000000  0.4501940000000  0.5832300000000 1.0
C      1  0.5101140000000  0.5338370000000  0.4010130000000 1.0
C      1  0.5073040000000  0.4103700000000  0.5365930000000 1.0
C      1  0.3961020000000  0.4760560000000  0.4851780000000 1.0
C      1  0.5023810000000  0.4167540000000  0.4468170000000 1.0
C      1  0.4609710000000  0.5582560000000  0.5749960000000 1.0
C      1  0.5035270000000  0.5600490000000  0.4154900000000 1.0
C      1  0.5080560000000  0.4565950000000  0.4662260000000 1.0
C      1  0.4789810000000  0.4113560000000  0.4644180000000 1.0
C      1  0.4060890000000  0.5033170000000  0.4796490000000 1.0
C      1  0.5851250000000  0.5337390000000  0.5406650000000 1.0
C      1  0.4676000000000  0.4323620000000  0.5090370000000 1.0
C      1  0.4775520000000  0.5802380000000  0.5021400000000 1.0
C      1  0.5209600000000  0.4276860000000  0.5759370000000 1.0
C      1  0.4522590000000  0.5608260000000  0.4398800000000 1.0
C      1  0.5283530000000  0.5134480000000  0.6074990000000 1.0
C      1  0.5309110000000  0.5106860000000  0.4054470000000 1.0
C      1  0.4800810000000  0.5694070000000  0.4326020000000 1.0
C      1  0.5848180000000  0.4517160000000  0.4491050000000 1.0
C      1  0.5119370000000  0.5159670000000  0.5589200000000 1.0
C      1  0.4528580000000  0.5851090000000  0.5360950000000 1.0
C      1  0.4827450000000  0.5098270000000  0.5597910000000 1.0
C      1  0.5697410000000  0.4969040000000  0.4797640000000 1.0
C      1  0.4845710000000  0.5036720000000  0.4199500000000 1.0
C      1  0.4019000000000  0.4868190000000  0.5387600000000 1.0
C      1  0.5301610000000  0.5821410000000  0.5538700000000 1.0
C      1  0.5322320000000  0.4959450000000  0.5577050000000 1.0
C      1  0.4185860000000  0.4844180000000  0.4325460000000 1.0
C      1  0.4298520000000  0.4411990000000  0.4635490000000 1.0
C      1  0.4496290000000  0.5334400000000  0.4320020000000 1.0
C      1  0.4278270000000  0.5159760000000  0.5643790000000 1.0
C      1  0.4999340000000  0.5064340000000  0.6069590000000 1.0
C      1  0.5114030000000  0.5443350000000  0.5676760000000 1.0
C      1  0.5967250000000  0.5204020000000  0.5198880000000 1.0
C      1  0.5989740000000  0.4895520000000  0.5196790000000 1.0
C      1  0.4598240000000  0.4323220000000  0.5388790000000 1.0
C      1  0.5208650000000  0.4865820000000  0.5093570000000 1.0
C      1  0.5573530000000  0.4299840000000  0.5387190000000 1.0
C      1  0.4231500000000  0.4694740000000  0.5513220000000 1.0
C      1  0.4390050000000  0.5451980000000  0.5644250000000 1.0
C      1  0.3965070000000  0.4786370000000  0.5126420000000 1.0
C      1  0.5275920000000  0.4126260000000  0.4611870000000 1.0
C      1  0.4828650000000  0.5278810000000  0.4610730000000 1.0
C      1  0.4702430000000  0.4559910000000  0.5539140000000 1.0
C      1  0.4627170000000  0.5206430000000  0.4090720000000 1.0
C      1  0.4312180000000  0.4458250000000  0.5371730000000 1.0
C      1  0.4785480000000  0.5747260000000  0.5502440000000 1.0
C      1  0.5192830000000  0.5889890000000  0.4512520000000 1.0
C      1  0.5261500000000  0.4167670000000  0.4902520000000 1.0
C      1  0.5724020000000  0.4741690000000  0.5752530000000 1.0
C      1  0.5675870000000  0.5511710000000  0.5527360000000 1.0
C      1  0.5488490000000  0.5688620000000  0.5361700000000 1.0
C      1  0.4924200000000  0.5517280000000  0.4754190000000 1.0
C      1  0.5552810000000  0.5463630000000  0.5796200000000 1.0
C      1  0.5141840000000  0.4742480000000  0.5627140000000 1.0
C      1  0.4424940000000  0.4217260000000  0.4974350000000 1.0
C      1  0.5842100000000  0.5352200000000  0.4514650000000 1.0
C      1  0.5111720000000  0.4606750000000  0.4113480000000 1.0
C      1  0.5564020000000  0.4701820000000  0.4234990000000 1.0
C      1  0.5528060000000  0.5654050000000  0.4229110000000 1.0
C      1  0.5510780000000  0.5195870000000  0.5903270000000 1.0
C      1  0.4826110000000  0.5264390000000  0.5133610000000 1.0
C      1  0.5625770000000  0.4430780000000  0.4351720000000 1.0
C      1  0.4505270000000  0.5030630000000  0.5184010000000 1.0
C      1  0.5938340000000  0.4725110000000  0.5407750000000 1.0
C      1  0.5320620000000  0.5633420000000  0.5766710000000 1.0
C      1  0.5569540000000  0.4977490000000  0.5716250000000 1.0
C      1  0.4825050000000  0.4084130000000  0.4926590000000 1.0
C      1  0.5102990000000  0.5328030000000  0.5183000000000 1.0
C      1  0.5224760000000  0.4457060000000  0.4889450000000 1.0
C      1  0.5842210000000  0.4748840000000  0.4945190000000 1.0
C      1  0.4780760000000  0.5021280000000  0.5877250000000 1.0
C      1  0.4313320000000  0.5766910000000  0.4920900000000 1.0
C      1  0.5036360000000  0.4324820000000  0.4197840000000 1.0
C      1  0.5380960000000  0.4447020000000  0.5917200000000 1.0
C      1  0.4547430000000  0.5178890000000  0.4590070000000 1.0
C      1  0.5699950000000  0.5428270000000  0.4259890000000 1.0
C      1  0.4646190000000  0.5185260000000  0.5384680000000 1.0
C      1  0.4936500000000  0.5772200000000  0.4565590000000 1.0
C      1  0.5803900000000  0.5066980000000  0.4545080000000 1.0
C      1  0.4910040000000  0.4298910000000  0.5771600000000 1.0
C      1  0.4320980000000  0.5660520000000  0.5417630000000 1.0
C      1  0.4597810000000  0.4792420000000  0.5861970000000 1.0
C      1  0.5539510000000  0.4253700000000  0.4582710000000 1.0
C      1  0.5914830000000  0.4492660000000  0.4761240000000 1.0
C      1  0.5203940000000  0.5468030000000  0.4959050000000 1.0
END
