TITL C-884130-5973-205 -0.657270963228221 125000 -9109.64807415913 0 0 63 (C1) n - 1
REM
REM in /home/nfs/bkarasulu/CARBON/AIRSS/Generating-Clusters/ReaxFF-fromJPCA2015/Units_Real/with-SteepDescent/Only-C1/SD-CG/Try1-3A/FIRE-CG
REM
REM
REM
REM
REM
REM ./C.cell (11c1c37f851c82e70ff6c80c92926a4b)
REM
REM compiler GCC version 9.2.1 20190827 (Red Hat 9.2.1-1)
REM options -cpp -mtune=generic -march=x86-64 -g -O0 -fpre-include=/usr/include/finclude/math-vector-fortran.h
REM seed -1043196113 -1485608618 -172449840 1223400636 -176941515 -946922039 232318876 2143016402 1308240509 -306336992 -2084712594 1852201388 1787572739 -1422359424 -1959028164 1948592770 -2072096953 -1082478474 -1673671030 351221784 -785320286 242704305 -1028502057 193608700 -1958590539 -182073518 1136578782 1657604429 -1200069657 -1820362160 203885846 997233818 -1798871986
REM
CELL 1.54180   50.00000   50.00000   50.00000   90.00000   90.00000   90.00000
LATT -1
SFAC C  
C      1  0.5441230000000  0.5423720000000  0.5574710000000 1.0
C      1  0.4777780000000  0.4151600000000  0.5161490000000 1.0
C      1  0.5481230000000  0.4813240000000  0.5381920000000 1.0
C      1  0.5165020000000  0.4946100000000  0.5712760000000 1.0
C      1  0.4837330000000  0.5245910000000  0.4519970000000 1.0
C      1  0.5247110000000  0.5457180000000  0.4731430000000 1.0
C      1  0.5451060000000  0.4410330000000  0.5128860000000 1.0
C      1  0.5318590000000  0.5205120000000  0.5713550000000 1.0
C      1  0.5663370000000  0.5221430000000  0.4892220000000 1.0
C      1  0.4788360000000  0.5195750000000  0.4109310000000 1.0
C      1  0.4541100000000  0.4558240000000  0.5136650000000 1.0
C      1  0.5573400000000  0.4821500000000  0.4519390000000 1.0
C      1  0.5282830000000  0.5130150000000  0.4194060000000 1.0
C      1  0.5486720000000  0.5572680000000  0.5175400000000 1.0
C      1  0.4429550000000  0.5028520000000  0.4890540000000 1.0
C      1  0.5176140000000  0.5049410000000  0.5049400000000 1.0
C      1  0.5131850000000  0.4957780000000  0.4781230000000 1.0
C      1  0.5187590000000  0.4405980000000  0.5256390000000 1.0
C      1  0.4997690000000  0.5562410000000  0.5077700000000 1.0
C      1  0.5108770000000  0.5205190000000  0.4642220000000 1.0
C      1  0.4491140000000  0.5330700000000  0.4938050000000 1.0
C      1  0.4747610000000  0.5217010000000  0.5050020000000 1.0
C      1  0.4679690000000  0.5282440000000  0.5569750000000 1.0
C      1  0.5001460000000  0.5648100000000  0.5354120000000 1.0
C      1  0.4985640000000  0.4633290000000  0.5335740000000 1.0
C      1  0.5482840000000  0.4494940000000  0.4883220000000 1.0
C      1  0.5074190000000  0.5279380000000  0.4089540000000 1.0
C      1  0.4397100000000  0.4613220000000  0.4861760000000 1.0
C      1  0.4693470000000  0.5048860000000  0.4344390000000 1.0
C      1  0.5456600000000  0.4991140000000  0.4319890000000 1.0
C      1  0.4719010000000  0.4534480000000  0.5494610000000 1.0
C      1  0.4506210000000  0.5579390000000  0.5363750000000 1.0
C      1  0.5213340000000  0.4747920000000  0.5503480000000 1.0
C      1  0.5050300000000  0.4193830000000  0.5126090000000 1.0
C      1  0.4674720000000  0.5028900000000  0.5636720000000 1.0
C      1  0.4538910000000  0.4768480000000  0.5507260000000 1.0
C      1  0.5285240000000  0.5619850000000  0.5391900000000 1.0
C      1  0.5569150000000  0.4565160000000  0.5261750000000 1.0
C      1  0.4751130000000  0.5539440000000  0.5502600000000 1.0
C      1  0.4882900000000  0.4937890000000  0.5688430000000 1.0
C      1  0.5112880000000  0.4662950000000  0.4651360000000 1.0
C      1  0.4615820000000  0.4598880000000  0.4668940000000 1.0
C      1  0.5630310000000  0.5036380000000  0.4686260000000 1.0
C      1  0.4969100000000  0.4663450000000  0.4362970000000 1.0
C      1  0.5630040000000  0.5380960000000  0.5340610000000 1.0
C      1  0.4813790000000  0.5623960000000  0.4616530000000 1.0
C      1  0.4565940000000  0.5520380000000  0.4698300000000 1.0
C      1  0.4889220000000  0.4236740000000  0.4900720000000 1.0
C      1  0.4331110000000  0.5519610000000  0.5161750000000 1.0
C      1  0.4866880000000  0.4477060000000  0.4740510000000 1.0
C      1  0.4343580000000  0.4751320000000  0.5296310000000 1.0
C      1  0.5408210000000  0.4588860000000  0.4643680000000 1.0
C      1  0.4618590000000  0.4327480000000  0.5323420000000 1.0
C      1  0.4786010000000  0.4722380000000  0.5131180000000 1.0
C      1  0.4267240000000  0.4825180000000  0.5021320000000 1.0
C      1  0.4699350000000  0.4755330000000  0.4408550000000 1.0
C      1  0.5420950000000  0.4997170000000  0.5184540000000 1.0
C      1  0.5039220000000  0.5653130000000  0.4798580000000 1.0
C      1  0.4881420000000  0.5420500000000  0.4277040000000 1.0
C      1  0.4687920000000  0.4958150000000  0.5011180000000 1.0
C      1  0.5653710000000  0.5131470000000  0.5184560000000 1.0
C      1  0.5001190000000  0.5272540000000  0.5118380000000 1.0
C      1  0.5480100000000  0.5459420000000  0.4900980000000 1.0
END
