TITL C-884137-4758-281 160.273195087784 125000 -22736.0187143104 0 0 156 (C1) n - 1
REM
REM in /home/nfs/bkarasulu/CARBON/AIRSS/Generating-Clusters/ReaxFF-fromJPCA2015/Units_Real/with-SteepDescent/Only-C1/SD-CG/Try1-3A/FIRE-CG
REM
REM
REM
REM
REM
REM ./C.cell (11c1c37f851c82e70ff6c80c92926a4b)
REM
REM compiler GCC version 9.2.1 20190827 (Red Hat 9.2.1-1)
REM options -cpp -mtune=generic -march=x86-64 -g -O0 -fpre-include=/usr/include/finclude/math-vector-fortran.h
REM seed 45046517 -345617108 1050110308 -1578751398 -764867317 -1025112630 2001508488 1562865344 -256031175 603675345 -391595066 1440682463 -1273822235 -639876696 1843337822 61193433 1662190212 431521959 1186632471 -556547517 -1875731740 -1750633606 -1972573083 -1589732896 168806560 -1424658024 1302292385 -1630650407 -1429563063 1493334019 -1145768926 1895386022 -378559754
REM
CELL 1.54180   50.00000   50.00000   50.00000   90.00000   90.00000   90.00000
LATT -1
SFAC C  
C      1  0.4820950000000  0.5284890000000  0.4596700000000 1.0
C      1  0.5186790000000  0.4792910000000  0.4102210000000 1.0
C      1  0.4328240000000  0.5256950000000  0.4220910000000 1.0
C      1  0.4292120000000  0.5512050000000  0.4541980000000 1.0
C      1  0.5885460000000  0.4891340000000  0.5338660000000 1.0
C      1  0.5726230000000  0.4930570000000  0.5810600000000 1.0
C      1  0.4718940000000  0.4858060000000  0.5993090000000 1.0
C      1  0.4685170000000  0.5368550000000  0.5357900000000 1.0
C      1  0.5403190000000  0.4055770000000  0.4840210000000 1.0
C      1  0.5102780000000  0.4251640000000  0.5761250000000 1.0
C      1  0.4338490000000  0.5554480000000  0.4792350000000 1.0
C      1  0.4236820000000  0.5545660000000  0.5259310000000 1.0
C      1  0.4777940000000  0.6066950000000  0.4910720000000 1.0
C      1  0.5526340000000  0.4674750000000  0.4996370000000 1.0
C      1  0.3889120000000  0.4963510000000  0.5104110000000 1.0
C      1  0.4766340000000  0.4007820000000  0.5296110000000 1.0
C      1  0.5195810000000  0.5051950000000  0.5916280000000 1.0
C      1  0.5245390000000  0.5159240000000  0.3906510000000 1.0
C      1  0.4920200000000  0.4609500000000  0.4672100000000 1.0
C      1  0.5859560000000  0.4876670000000  0.4337500000000 1.0
C      1  0.4821760000000  0.4579020000000  0.5974370000000 1.0
C      1  0.5726200000000  0.5664640000000  0.4795270000000 1.0
C      1  0.4963680000000  0.4749900000000  0.5532750000000 1.0
C      1  0.5241970000000  0.5418250000000  0.5568110000000 1.0
C      1  0.5136780000000  0.4504390000000  0.4073000000000 1.0
C      1  0.5584890000000  0.4476390000000  0.4335840000000 1.0
C      1  0.5699840000000  0.4214620000000  0.4457460000000 1.0
C      1  0.5427520000000  0.4109000000000  0.5323490000000 1.0
C      1  0.4229300000000  0.5057720000000  0.4415130000000 1.0
C      1  0.4858050000000  0.4407690000000  0.4162490000000 1.0
C      1  0.5365860000000  0.5904820000000  0.5527430000000 1.0
C      1  0.5315120000000  0.5170780000000  0.5000930000000 1.0
C      1  0.5302870000000  0.5592860000000  0.4867580000000 1.0
C      1  0.5680200000000  0.5624260000000  0.5479850000000 1.0
C      1  0.4744900000000  0.5366330000000  0.4049990000000 1.0
C      1  0.4618710000000  0.5108660000000  0.4699010000000 1.0
C      1  0.5340120000000  0.5977370000000  0.4592880000000 1.0
C      1  0.5037290000000  0.5091050000000  0.5027420000000 1.0
C      1  0.4793510000000  0.5273450000000  0.5837180000000 1.0
C      1  0.4689640000000  0.5598230000000  0.4205790000000 1.0
C      1  0.4846160000000  0.5563520000000  0.5824860000000 1.0
C      1  0.4181780000000  0.4616980000000  0.5203070000000 1.0
C      1  0.5035420000000  0.5174520000000  0.4424020000000 1.0
C      1  0.4941060000000  0.5700270000000  0.4357790000000 1.0
C      1  0.5930950000000  0.4630390000000  0.4924340000000 1.0
C      1  0.3986360000000  0.4839620000000  0.4840700000000 1.0
C      1  0.5635830000000  0.4751030000000  0.4496400000000 1.0
C      1  0.4609980000000  0.4903230000000  0.5191640000000 1.0
C      1  0.4367830000000  0.5656570000000  0.5629740000000 1.0
C      1  0.4800490000000  0.4217040000000  0.5760340000000 1.0
C      1  0.5312900000000  0.6020800000000  0.4873400000000 1.0
C      1  0.5184750000000  0.5140210000000  0.5626560000000 1.0
C      1  0.5373470000000  0.4440410000000  0.4196670000000 1.0
C      1  0.5488610000000  0.5117010000000  0.5227380000000 1.0
C      1  0.5514980000000  0.5789540000000  0.5300550000000 1.0
C      1  0.4684840000000  0.4485700000000  0.5166970000000 1.0
C      1  0.5074790000000  0.5907410000000  0.5630470000000 1.0
C      1  0.4224030000000  0.4873220000000  0.5510270000000 1.0
C      1  0.4798860000000  0.4746640000000  0.4451700000000 1.0
C      1  0.4099030000000  0.5066540000000  0.4683300000000 1.0
C      1  0.5350190000000  0.5575530000000  0.5863680000000 1.0
C      1  0.5994030000000  0.4991350000000  0.4578060000000 1.0
C      1  0.5427890000000  0.5288670000000  0.5924880000000 1.0
C      1  0.4653150000000  0.4082560000000  0.5554780000000 1.0
C      1  0.4504930000000  0.5873050000000  0.5487040000000 1.0
C      1  0.4285280000000  0.4490610000000  0.5442100000000 1.0
C      1  0.4075790000000  0.5047420000000  0.5318640000000 1.0
C      1  0.4786840000000  0.5592380000000  0.5539050000000 1.0
C      1  0.5038030000000  0.4885600000000  0.4370320000000 1.0
C      1  0.4556600000000  0.5099520000000  0.4982470000000 1.0
C      1  0.5077790000000  0.4812270000000  0.5097690000000 1.0
C      1  0.5045780000000  0.5972840000000  0.4969960000000 1.0
C      1  0.5596450000000  0.5809060000000  0.4581250000000 1.0
C      1  0.5420180000000  0.4956520000000  0.4009650000000 1.0
C      1  0.5205840000000  0.4212540000000  0.4694520000000 1.0
C      1  0.4284340000000  0.4427990000000  0.4782700000000 1.0
C      1  0.4109670000000  0.5306950000000  0.4847760000000 1.0
C      1  0.4860110000000  0.6118640000000  0.4618770000000 1.0
C      1  0.5382870000000  0.5341250000000  0.4779240000000 1.0
C      1  0.4817670000000  0.5873040000000  0.5487230000000 1.0
C      1  0.4792410000000  0.4206330000000  0.4378050000000 1.0
C      1  0.5081970000000  0.5728270000000  0.5854470000000 1.0
C      1  0.5542490000000  0.5755450000000  0.5709700000000 1.0
C      1  0.5040170000000  0.5675970000000  0.4873660000000 1.0
C      1  0.4499300000000  0.5366820000000  0.4998190000000 1.0
C      1  0.5888180000000  0.4779870000000  0.5615100000000 1.0
C      1  0.4398680000000  0.5795150000000  0.5223260000000 1.0
C      1  0.4980500000000  0.5546020000000  0.5124490000000 1.0
C      1  0.4406980000000  0.5357340000000  0.5380560000000 1.0
C      1  0.5273540000000  0.3996030000000  0.5097410000000 1.0
C      1  0.5134720000000  0.4380880000000  0.4932270000000 1.0
C      1  0.5880300000000  0.4444960000000  0.5154660000000 1.0
C      1  0.4281640000000  0.4838650000000  0.4233810000000 1.0
C      1  0.4497760000000  0.4862560000000  0.5810420000000 1.0
C      1  0.5180990000000  0.4718240000000  0.4611650000000 1.0
C      1  0.5253500000000  0.4628800000000  0.4993830000000 1.0
C      1  0.5906610000000  0.5180880000000  0.5296330000000 1.0
C      1  0.5041760000000  0.5310230000000  0.4109110000000 1.0
C      1  0.5694500000000  0.5041830000000  0.4147800000000 1.0
C      1  0.5787000000000  0.5198380000000  0.4592610000000 1.0
C      1  0.4416080000000  0.5537480000000  0.4299290000000 1.0
C      1  0.4867090000000  0.5299010000000  0.5139860000000 1.0
C      1  0.5726940000000  0.5328400000000  0.5485220000000 1.0
C      1  0.4103870000000  0.5317750000000  0.5132550000000 1.0
C      1  0.4980860000000  0.3958780000000  0.5097400000000 1.0
C      1  0.5063700000000  0.5967590000000  0.4468220000000 1.0
C      1  0.4835430000000  0.3975050000000  0.4838750000000 1.0
C      1  0.5650610000000  0.5335540000000  0.4162300000000 1.0
C      1  0.5244910000000  0.4746960000000  0.5824660000000 1.0
C      1  0.4952650000000  0.4094640000000  0.4594370000000 1.0
C      1  0.5170530000000  0.4774620000000  0.5350960000000 1.0
C      1  0.5649630000000  0.4881110000000  0.5160260000000 1.0
C      1  0.4321290000000  0.5045520000000  0.5706360000000 1.0
C      1  0.4412460000000  0.4233690000000  0.5435400000000 1.0
C      1  0.5418550000000  0.5459580000000  0.4304070000000 1.0
C      1  0.4542920000000  0.5155250000000  0.4049380000000 1.0
C      1  0.4075570000000  0.4573800000000  0.4923410000000 1.0
C      1  0.5133520000000  0.5510970000000  0.5343660000000 1.0
C      1  0.5336020000000  0.5233980000000  0.4509550000000 1.0
C      1  0.5624140000000  0.4230150000000  0.4739570000000 1.0
C      1  0.4750680000000  0.5190740000000  0.5563110000000 1.0
C      1  0.4390390000000  0.4162090000000  0.4698400000000 1.0
C      1  0.5703490000000  0.4218350000000  0.5240070000000 1.0
C      1  0.4556460000000  0.5882980000000  0.4984370000000 1.0
C      1  0.5100800000000  0.4512400000000  0.5913720000000 1.0
C      1  0.4552970000000  0.4178500000000  0.5163190000000 1.0
C      1  0.5318080000000  0.4991750000000  0.5426670000000 1.0
C      1  0.5532900000000  0.4701900000000  0.5827570000000 1.0
C      1  0.5683470000000  0.4467750000000  0.5376440000000 1.0
C      1  0.4316260000000  0.4296180000000  0.4231020000000 1.0
C      1  0.4302250000000  0.5382130000000  0.5646770000000 1.0
C      1  0.5649960000000  0.5210600000000  0.5755650000000 1.0
C      1  0.4587890000000  0.4844230000000  0.4608800000000 1.0
C      1  0.4522110000000  0.4859180000000  0.4055080000000 1.0
C      1  0.5938340000000  0.5180550000000  0.5000750000000 1.0
C      1  0.5547260000000  0.5034410000000  0.4560330000000 1.0
C      1  0.4469790000000  0.4667360000000  0.5120720000000 1.0
C      1  0.5720760000000  0.4541640000000  0.5660830000000 1.0
C      1  0.4672530000000  0.4486960000000  0.5734670000000 1.0
C      1  0.4694900000000  0.4628530000000  0.4081780000000 1.0
C      1  0.4574710000000  0.5696110000000  0.4766850000000 1.0
C      1  0.5686640000000  0.4555820000000  0.4775470000000 1.0
C      1  0.4825580000000  0.5574570000000  0.4654730000000 1.0
C      1  0.6000800000000  0.4919480000000  0.4862370000000 1.0
C      1  0.5272440000000  0.4183160000000  0.5547750000000 1.0
C      1  0.5488540000000  0.5787010000000  0.4984650000000 1.0
C      1  0.4786150000000  0.4532720000000  0.5464270000000 1.0
C      1  0.4912730000000  0.5079130000000  0.6012000000000 1.0
C      1  0.4374650000000  0.4639440000000  0.4603660000000 1.0
C      1  0.4251090000000  0.4568620000000  0.4344950000000 1.0
C      1  0.5165940000000  0.5560230000000  0.4211260000000 1.0
C      1  0.5838430000000  0.5389150000000  0.4812670000000 1.0
C      1  0.4503100000000  0.4160080000000  0.4419840000000 1.0
C      1  0.4555400000000  0.4036260000000  0.4891730000000 1.0
C      1  0.4861750000000  0.4464450000000  0.4923930000000 1.0
C      1  0.4751350000000  0.4941890000000  0.5440560000000 1.0
END
