TITL C-883734-4173-376 -7.09629516546928 125000 -7673.17297971104 0 0 52 (C1) n - 1
REM
REM in /home/nfs/bkarasulu/CARBON/AIRSS/Generating-Clusters/ReaxFF-fromJPCA2015/Units_Real/with-SteepDescent/Only-C1/SD-CG/Try1-3A/FIRE-CG
REM
REM
REM
REM
REM
REM ./C.cell (11c1c37f851c82e70ff6c80c92926a4b)
REM
REM compiler GCC version 9.2.1 20190827 (Red Hat 9.2.1-1)
REM options -cpp -mtune=generic -march=x86-64 -g -O0 -fpre-include=/usr/include/finclude/math-vector-fortran.h
REM seed 1603404762 -1735347638 -1066007328 -649053967 -1690115815 2128419265 -1921178606 -1033037386 -724885443 800536709 2057106762 159760773 -687226842 -1436048405 -194332794 -2012441325 1187221978 2096709221 881164226 1149018425 1329460168 -61506894 30564034 908249469 -1872787456 1671980247 -1206647764 1387686701 1301111190 526739051 1201237964 83601301 -716703667
REM
CELL 1.54180   50.00000   50.00000   50.00000   90.00000   90.00000   90.00000
LATT -1
SFAC C  
C      1  0.4634690000000  0.4907260000000  0.4711870000000 1.0
C      1  0.4446950000000  0.5036840000000  0.4508470000000 1.0
C      1  0.5703280000000  0.5128510000000  0.5196840000000 1.0
C      1  0.5418700000000  0.5365540000000  0.5628970000000 1.0
C      1  0.4986660000000  0.5395470000000  0.5353960000000 1.0
C      1  0.5501560000000  0.5375780000000  0.4814160000000 1.0
C      1  0.4818880000000  0.5605460000000  0.4700030000000 1.0
C      1  0.5732680000000  0.4946470000000  0.4716140000000 1.0
C      1  0.4638470000000  0.5329010000000  0.5035620000000 1.0
C      1  0.5164430000000  0.5670680000000  0.4985410000000 1.0
C      1  0.5240110000000  0.4555920000000  0.5419930000000 1.0
C      1  0.4749830000000  0.4718800000000  0.5420650000000 1.0
C      1  0.4876400000000  0.5221080000000  0.4397770000000 1.0
C      1  0.4582010000000  0.4436760000000  0.4779630000000 1.0
C      1  0.5055040000000  0.4736570000000  0.4905460000000 1.0
C      1  0.4424130000000  0.5283810000000  0.4664530000000 1.0
C      1  0.4390800000000  0.5012170000000  0.5160000000000 1.0
C      1  0.5704700000000  0.5179650000000  0.4906210000000 1.0
C      1  0.5195330000000  0.5219720000000  0.5179930000000 1.0
C      1  0.5244900000000  0.4886370000000  0.4561910000000 1.0
C      1  0.5063670000000  0.4408130000000  0.5249720000000 1.0
C      1  0.4627950000000  0.4980270000000  0.5365730000000 1.0
C      1  0.4734650000000  0.5604330000000  0.4983130000000 1.0
C      1  0.5158080000000  0.5152370000000  0.4498200000000 1.0
C      1  0.5182050000000  0.4487040000000  0.4984490000000 1.0
C      1  0.4762390000000  0.5208360000000  0.5485250000000 1.0
C      1  0.5140000000000  0.5409840000000  0.5630780000000 1.0
C      1  0.5109860000000  0.5608670000000  0.4701200000000 1.0
C      1  0.5338820000000  0.5446250000000  0.5042290000000 1.0
C      1  0.4945320000000  0.5637450000000  0.5173850000000 1.0
C      1  0.4346030000000  0.4765170000000  0.5062370000000 1.0
C      1  0.5449670000000  0.5162260000000  0.5373220000000 1.0
C      1  0.5471520000000  0.4800430000000  0.4731060000000 1.0
C      1  0.5463970000000  0.4668980000000  0.5264140000000 1.0
C      1  0.5285030000000  0.5389120000000  0.4613650000000 1.0
C      1  0.4377100000000  0.5245120000000  0.4951080000000 1.0
C      1  0.4777250000000  0.5084060000000  0.4915530000000 1.0
C      1  0.4997680000000  0.4930450000000  0.5697580000000 1.0
C      1  0.5040380000000  0.4652310000000  0.4608010000000 1.0
C      1  0.4933690000000  0.5198100000000  0.5724840000000 1.0
C      1  0.5444600000000  0.4614900000000  0.4975360000000 1.0
C      1  0.4665290000000  0.5052400000000  0.4326520000000 1.0
C      1  0.4591120000000  0.4365680000000  0.5062150000000 1.0
C      1  0.5013220000000  0.4681030000000  0.5577990000000 1.0
C      1  0.4728240000000  0.4641840000000  0.4642310000000 1.0
C      1  0.4772010000000  0.4470840000000  0.5266290000000 1.0
C      1  0.5157130000000  0.4362770000000  0.4589590000000 1.0
C      1  0.4676530000000  0.5398080000000  0.4551390000000 1.0
C      1  0.4348510000000  0.4511190000000  0.4967260000000 1.0
C      1  0.5612600000000  0.4905290000000  0.5352210000000 1.0
C      1  0.5246270000000  0.4141690000000  0.4575530000000 1.0
C      1  0.5029800000000  0.5003720000000  0.5009780000000 1.0
END
