TITL C-883729-9652-318 -0.088510786049257 125000 -4487.99226925136 0 0 32 (C1) n - 1
REM
REM in /home/nfs/bkarasulu/CARBON/AIRSS/Generating-Clusters/ReaxFF-fromJPCA2015/Units_Real/with-SteepDescent/Only-C1/SD-CG/Try1-3A/FIRE-CG
REM
REM
REM
REM
REM
REM ./C.cell (11c1c37f851c82e70ff6c80c92926a4b)
REM
REM compiler GCC version 9.2.1 20190827 (Red Hat 9.2.1-1)
REM options -cpp -mtune=generic -march=x86-64 -g -O0 -fpre-include=/usr/include/finclude/math-vector-fortran.h
REM seed 1311498450 490693558 1013957146 798142718 -1168818862 -717129593 725892550 -1835984442 840363291 -515150819 289211062 -1477546731 -1991702362 -710886737 61722893 -1829901483 -1843878301 -874055420 -360347267 -280972375 570975009 -590053324 -815644437 1973019657 131943716 -1980107997 976792736 -1118561566 -1982758428 345938307 -1874799403 -610040558 2041786925
REM
CELL 1.54180   50.00000   50.00000   50.00000   90.00000   90.00000   90.00000
LATT -1
SFAC C  
C      1  0.4564050000000  0.5033080000000  0.4545140000000 1.0
C      1  0.5242490000000  0.4245180000000  0.5190510000000 1.0
C      1  0.4712280000000  0.5329080000000  0.4940790000000 1.0
C      1  0.4516430000000  0.5260160000000  0.4732910000000 1.0
C      1  0.4658460000000  0.5160980000000  0.5180130000000 1.0
C      1  0.4841320000000  0.4921570000000  0.4547660000000 1.0
C      1  0.5070060000000  0.4582680000000  0.4838340000000 1.0
C      1  0.5021690000000  0.5095400000000  0.5547100000000 1.0
C      1  0.4299770000000  0.5097910000000  0.4861380000000 1.0
C      1  0.5086510000000  0.5591750000000  0.5105590000000 1.0
C      1  0.4571230000000  0.4726220000000  0.4919600000000 1.0
C      1  0.4718760000000  0.4715190000000  0.5388880000000 1.0
C      1  0.5069080000000  0.5116940000000  0.4522620000000 1.0
C      1  0.5333100000000  0.5299650000000  0.5229180000000 1.0
C      1  0.4588250000000  0.4590330000000  0.5176170000000 1.0
C      1  0.4810010000000  0.4996290000000  0.5378260000000 1.0
C      1  0.5416970000000  0.5386930000000  0.5450820000000 1.0
C      1  0.5796600000000  0.4884730000000  0.4754950000000 1.0
C      1  0.4967910000000  0.5463260000000  0.4884770000000 1.0
C      1  0.5553240000000  0.5279980000000  0.5077250000000 1.0
C      1  0.5589830000000  0.4676650000000  0.4657010000000 1.0
C      1  0.4384190000000  0.4861560000000  0.4703080000000 1.0
C      1  0.5052640000000  0.4408200000000  0.5115470000000 1.0
C      1  0.4841330000000  0.4731270000000  0.4766220000000 1.0
C      1  0.5254880000000  0.5233110000000  0.5660450000000 1.0
C      1  0.5176460000000  0.5314570000000  0.4709080000000 1.0
C      1  0.5456170000000  0.5281650000000  0.4798890000000 1.0
C      1  0.5319030000000  0.4628730000000  0.4745850000000 1.0
C      1  0.5249770000000  0.5595270000000  0.5307290000000 1.0
C      1  0.4449330000000  0.4989680000000  0.5086290000000 1.0
C      1  0.4806230000000  0.4465850000000  0.5282550000000 1.0
C      1  0.5581930000000  0.5036150000000  0.4895750000000 1.0
END
