TITL C-884137-4758-449 -0.640272781164267 125000 -16751.0532063102 0 0 111 (C1) n - 1
REM
REM in /home/nfs/bkarasulu/CARBON/AIRSS/Generating-Clusters/ReaxFF-fromJPCA2015/Units_Real/with-SteepDescent/Only-C1/SD-CG/Try1-3A/FIRE-CG
REM
REM
REM
REM
REM
REM ./C.cell (11c1c37f851c82e70ff6c80c92926a4b)
REM
REM compiler GCC version 9.2.1 20190827 (Red Hat 9.2.1-1)
REM options -cpp -mtune=generic -march=x86-64 -g -O0 -fpre-include=/usr/include/finclude/math-vector-fortran.h
REM seed -2070677480 263798151 -1484735650 -1477100461 1182732789 -1277714097 -1641724104 -240283539 -1999675627 -405612694 -901333285 -188969224 34216760 957852921 349974957 251163646 -486120134 -335914548 -1366788195 -1560764582 68539290 137388940 -1361109638 1788158391 -847282288 108562047 -853379875 -1260814973 932908706 79277621 81916608 1643888917 353535567
REM
CELL 1.54180   50.00000   50.00000   50.00000   90.00000   90.00000   90.00000
LATT -1
SFAC C  
C      1  0.4537260000000  0.5423890000000  0.5721000000000 1.0
C      1  0.4776740000000  0.4163100000000  0.4622090000000 1.0
C      1  0.4109150000000  0.4890240000000  0.4693720000000 1.0
C      1  0.5336790000000  0.5979660000000  0.5540420000000 1.0
C      1  0.5219400000000  0.4426810000000  0.4227380000000 1.0
C      1  0.4734990000000  0.4241730000000  0.5512350000000 1.0
C      1  0.4496980000000  0.4323610000000  0.5068100000000 1.0
C      1  0.5982090000000  0.5227820000000  0.5085100000000 1.0
C      1  0.4748340000000  0.4937360000000  0.5430810000000 1.0
C      1  0.5285850000000  0.5145220000000  0.5856510000000 1.0
C      1  0.5221010000000  0.4917690000000  0.5142990000000 1.0
C      1  0.5209970000000  0.4170720000000  0.4344770000000 1.0
C      1  0.4699310000000  0.5924140000000  0.5505030000000 1.0
C      1  0.4438060000000  0.5441540000000  0.4318220000000 1.0
C      1  0.4320140000000  0.5574070000000  0.4537520000000 1.0
C      1  0.4967070000000  0.4141210000000  0.5399980000000 1.0
C      1  0.4660130000000  0.5459620000000  0.5452690000000 1.0
C      1  0.5865360000000  0.4506130000000  0.4799070000000 1.0
C      1  0.5450450000000  0.4567370000000  0.4274610000000 1.0
C      1  0.4135990000000  0.5429130000000  0.5223180000000 1.0
C      1  0.4396020000000  0.4533600000000  0.4457320000000 1.0
C      1  0.4685380000000  0.4751960000000  0.4818600000000 1.0
C      1  0.5222560000000  0.5811500000000  0.5078180000000 1.0
C      1  0.5048040000000  0.5557410000000  0.5693010000000 1.0
C      1  0.4881390000000  0.5665820000000  0.5443320000000 1.0
C      1  0.5414090000000  0.5569210000000  0.4681700000000 1.0
C      1  0.5306050000000  0.5284110000000  0.4625990000000 1.0
C      1  0.5847540000000  0.4696180000000  0.4566500000000 1.0
C      1  0.5043030000000  0.4626300000000  0.4284210000000 1.0
C      1  0.5526190000000  0.5209620000000  0.5693460000000 1.0
C      1  0.4248910000000  0.5717870000000  0.5206780000000 1.0
C      1  0.4036960000000  0.5026870000000  0.4956100000000 1.0
C      1  0.4873400000000  0.5641210000000  0.4443990000000 1.0
C      1  0.4421540000000  0.4610310000000  0.4950560000000 1.0
C      1  0.5906940000000  0.5190260000000  0.5342170000000 1.0
C      1  0.5320750000000  0.4096130000000  0.4589330000000 1.0
C      1  0.5756510000000  0.5067580000000  0.5556240000000 1.0
C      1  0.4723530000000  0.5232810000000  0.5844180000000 1.0
C      1  0.4290890000000  0.4719350000000  0.5212620000000 1.0
C      1  0.4056680000000  0.5310340000000  0.4973600000000 1.0
C      1  0.4233080000000  0.5335500000000  0.4702930000000 1.0
C      1  0.5864190000000  0.5427460000000  0.4743910000000 1.0
C      1  0.4935060000000  0.4647180000000  0.4748140000000 1.0
C      1  0.5440240000000  0.4928580000000  0.4938100000000 1.0
C      1  0.5675780000000  0.4844440000000  0.5371820000000 1.0
C      1  0.4512110000000  0.4692510000000  0.4232580000000 1.0
C      1  0.5937030000000  0.4725600000000  0.4995440000000 1.0
C      1  0.4188470000000  0.5209720000000  0.5404780000000 1.0
C      1  0.5300600000000  0.5704610000000  0.5679440000000 1.0
C      1  0.4154040000000  0.5108120000000  0.4508390000000 1.0
C      1  0.5021670000000  0.4947960000000  0.5552290000000 1.0
C      1  0.4660060000000  0.5305120000000  0.5023420000000 1.0
C      1  0.5040540000000  0.4058860000000  0.4538860000000 1.0
C      1  0.4738420000000  0.5473150000000  0.4275830000000 1.0
C      1  0.4702070000000  0.5865100000000  0.4740960000000 1.0
C      1  0.4637780000000  0.4352690000000  0.4444700000000 1.0
C      1  0.5987400000000  0.5189770000000  0.4793380000000 1.0
C      1  0.4495590000000  0.4340240000000  0.5359110000000 1.0
C      1  0.5201870000000  0.5087560000000  0.5370590000000 1.0
C      1  0.5664640000000  0.4336670000000  0.4927110000000 1.0
C      1  0.5205220000000  0.4258710000000  0.4994100000000 1.0
C      1  0.4328340000000  0.5220920000000  0.5665320000000 1.0
C      1  0.5069600000000  0.4495500000000  0.4960170000000 1.0
C      1  0.5086230000000  0.4820170000000  0.4533520000000 1.0
C      1  0.4387310000000  0.4599540000000  0.5458810000000 1.0
C      1  0.4864910000000  0.4515450000000  0.5530330000000 1.0
C      1  0.6180950000000  0.4660420000000  0.5016640000000 1.0
C      1  0.5058660000000  0.4680380000000  0.5672840000000 1.0
C      1  0.5662670000000  0.4338700000000  0.5224450000000 1.0
C      1  0.4935430000000  0.5444390000000  0.4979420000000 1.0
C      1  0.5507770000000  0.4435810000000  0.5606730000000 1.0
C      1  0.4320730000000  0.5168980000000  0.4283010000000 1.0
C      1  0.5418680000000  0.5285200000000  0.5429340000000 1.0
C      1  0.5008910000000  0.5299870000000  0.5815020000000 1.0
C      1  0.5694580000000  0.4930290000000  0.5091110000000 1.0
C      1  0.4653260000000  0.4148900000000  0.4895140000000 1.0
C      1  0.4424540000000  0.5812330000000  0.4697590000000 1.0
C      1  0.5328560000000  0.4610340000000  0.5776460000000 1.0
C      1  0.4867620000000  0.5199200000000  0.4230210000000 1.0
C      1  0.4886110000000  0.5034590000000  0.4472080000000 1.0
C      1  0.5447540000000  0.5578850000000  0.5453360000000 1.0
C      1  0.4144350000000  0.4967740000000  0.5223970000000 1.0
C      1  0.4470740000000  0.4964110000000  0.4127730000000 1.0
C      1  0.5465390000000  0.4220510000000  0.5406310000000 1.0
C      1  0.5103580000000  0.5309450000000  0.4804260000000 1.0
C      1  0.5779050000000  0.5446970000000  0.4334080000000 1.0
C      1  0.4374620000000  0.5812120000000  0.4980260000000 1.0
C      1  0.4513630000000  0.5213150000000  0.4793720000000 1.0
C      1  0.4966210000000  0.5814450000000  0.4647440000000 1.0
C      1  0.5920170000000  0.4983150000000  0.4571800000000 1.0
C      1  0.4538190000000  0.4795210000000  0.5617330000000 1.0
C      1  0.5636970000000  0.4630270000000  0.4397000000000 1.0
C      1  0.4661040000000  0.4998010000000  0.4661920000000 1.0
C      1  0.5211870000000  0.4133800000000  0.5259080000000 1.0
C      1  0.4830450000000  0.4696490000000  0.5299070000000 1.0
C      1  0.5695690000000  0.5592300000000  0.4592910000000 1.0
C      1  0.4766110000000  0.4536940000000  0.4252930000000 1.0
C      1  0.4504040000000  0.5016450000000  0.5795140000000 1.0
C      1  0.4656100000000  0.5220870000000  0.5298320000000 1.0
C      1  0.5334360000000  0.4991810000000  0.4672380000000 1.0
C      1  0.5709850000000  0.4553610000000  0.5429880000000 1.0
C      1  0.5419530000000  0.4220390000000  0.4822110000000 1.0
C      1  0.5851290000000  0.5155830000000  0.4345390000000 1.0
C      1  0.5008280000000  0.5668640000000  0.5150870000000 1.0
C      1  0.4444500000000  0.5865580000000  0.5385630000000 1.0
C      1  0.5421790000000  0.5826030000000  0.5294710000000 1.0
C      1  0.5058220000000  0.4692460000000  0.5152200000000 1.0
C      1  0.5232200000000  0.5757300000000  0.4809400000000 1.0
C      1  0.4259700000000  0.4641170000000  0.4692230000000 1.0
C      1  0.5367720000000  0.4877300000000  0.5869610000000 1.0
C      1  0.4724620000000  0.5068940000000  0.4001410000000 1.0
END
