TITL C-884139-6216-285 17.4524245310349 125000 -10273.388473756 0 0 69 (C1) n - 1
REM
REM in /home/nfs/bkarasulu/CARBON/AIRSS/Generating-Clusters/ReaxFF-fromJPCA2015/Units_Real/with-SteepDescent/Only-C1/SD-CG/Try1-3A/FIRE-CG
REM
REM
REM
REM
REM
REM ./C.cell (11c1c37f851c82e70ff6c80c92926a4b)
REM
REM compiler GCC version 9.2.1 20190827 (Red Hat 9.2.1-1)
REM options -cpp -mtune=generic -march=x86-64 -g -O0 -fpre-include=/usr/include/finclude/math-vector-fortran.h
REM seed 572954034 -1719750846 659108730 -1728197494 2036532352 784140872 1107036059 -10141508 156891371 -409118511 821749422 -1071443767 -760156160 96110073 1051384181 1889511324 356784794 -1060780274 544802916 1113844980 1550244193 1507007941 1495033440 -1306383181 1213065225 -759086328 1696816302 -1317088846 1464321325 529223079 -1448206389 970200317 976713648
REM
CELL 1.54180   50.00000   50.00000   50.00000   90.00000   90.00000   90.00000
LATT -1
SFAC C  
C      1  0.5340690000000  0.4950180000000  0.5245820000000 1.0
C      1  0.4376760000000  0.4901670000000  0.4487040000000 1.0
C      1  0.4865850000000  0.5029440000000  0.4899870000000 1.0
C      1  0.4857850000000  0.4981010000000  0.5196830000000 1.0
C      1  0.4737000000000  0.5587380000000  0.5293070000000 1.0
C      1  0.5488700000000  0.4406230000000  0.5126170000000 1.0
C      1  0.4799350000000  0.5534580000000  0.4794580000000 1.0
C      1  0.5026540000000  0.5612240000000  0.5326920000000 1.0
C      1  0.5032450000000  0.4505260000000  0.5228850000000 1.0
C      1  0.5186700000000  0.5010600000000  0.5803620000000 1.0
C      1  0.4529160000000  0.5380190000000  0.4303500000000 1.0
C      1  0.4793860000000  0.4490550000000  0.5393410000000 1.0
C      1  0.4549140000000  0.4588020000000  0.5260970000000 1.0
C      1  0.5365750000000  0.4743670000000  0.4464430000000 1.0
C      1  0.4501290000000  0.4580240000000  0.4972310000000 1.0
C      1  0.5645030000000  0.5338050000000  0.4612120000000 1.0
C      1  0.4244650000000  0.5162910000000  0.4962370000000 1.0
C      1  0.5299520000000  0.5239810000000  0.4405050000000 1.0
C      1  0.5379790000000  0.5424870000000  0.4621480000000 1.0
C      1  0.5684640000000  0.4715970000000  0.4932640000000 1.0
C      1  0.5034480000000  0.5223860000000  0.4280360000000 1.0
C      1  0.5133750000000  0.4753150000000  0.5653840000000 1.0
C      1  0.4696920000000  0.4593370000000  0.4757780000000 1.0
C      1  0.5388090000000  0.5410950000000  0.5595500000000 1.0
C      1  0.5250740000000  0.5560850000000  0.5154660000000 1.0
C      1  0.5483470000000  0.5504750000000  0.5330640000000 1.0
C      1  0.4983240000000  0.4684680000000  0.4178890000000 1.0
C      1  0.4960620000000  0.5293820000000  0.4826740000000 1.0
C      1  0.4439750000000  0.5087220000000  0.4263670000000 1.0
C      1  0.5197450000000  0.4324130000000  0.5067020000000 1.0
C      1  0.5403240000000  0.5120970000000  0.5025990000000 1.0
C      1  0.5729800000000  0.5070550000000  0.4591920000000 1.0
C      1  0.4821410000000  0.5438670000000  0.4325940000000 1.0
C      1  0.4217750000000  0.4921970000000  0.5154050000000 1.0
C      1  0.5659760000000  0.5281580000000  0.5300540000000 1.0
C      1  0.4659380000000  0.5379550000000  0.5527220000000 1.0
C      1  0.5184280000000  0.4364760000000  0.4525650000000 1.0
C      1  0.4998100000000  0.5211960000000  0.5822950000000 1.0
C      1  0.4908140000000  0.5408800000000  0.5746400000000 1.0
C      1  0.5485540000000  0.4525590000000  0.5380470000000 1.0
C      1  0.4401410000000  0.5220010000000  0.5651480000000 1.0
C      1  0.4435560000000  0.4937150000000  0.5632750000000 1.0
C      1  0.4857060000000  0.4615970000000  0.5658170000000 1.0
C      1  0.4236670000000  0.4955630000000  0.4730280000000 1.0
C      1  0.4644520000000  0.4764650000000  0.5782510000000 1.0
C      1  0.4762610000000  0.5172220000000  0.5355340000000 1.0
C      1  0.5470610000000  0.4601330000000  0.4897270000000 1.0
C      1  0.5218060000000  0.4544530000000  0.4303630000000 1.0
C      1  0.4958790000000  0.4990020000000  0.4116390000000 1.0
C      1  0.5118660000000  0.5536520000000  0.5607180000000 1.0
C      1  0.5492990000000  0.5009160000000  0.4421410000000 1.0
C      1  0.4601180000000  0.5574320000000  0.5033750000000 1.0
C      1  0.4421620000000  0.5368130000000  0.4997960000000 1.0
C      1  0.4684560000000  0.5036230000000  0.4128030000000 1.0
C      1  0.4547230000000  0.4651550000000  0.4503180000000 1.0
C      1  0.5525180000000  0.4932070000000  0.5484050000000 1.0
C      1  0.5810830000000  0.4949800000000  0.4859210000000 1.0
C      1  0.4771010000000  0.4644080000000  0.4345260000000 1.0
C      1  0.5226680000000  0.4725730000000  0.4725700000000 1.0
C      1  0.5176910000000  0.4307060000000  0.4781390000000 1.0
C      1  0.5697420000000  0.5164990000000  0.5045430000000 1.0
C      1  0.5422300000000  0.5132000000000  0.5676330000000 1.0
C      1  0.4939700000000  0.4771580000000  0.4780470000000 1.0
C      1  0.4383020000000  0.4806020000000  0.5360700000000 1.0
C      1  0.4251280000000  0.4739610000000  0.4928600000000 1.0
C      1  0.5243200000000  0.5376850000000  0.4908820000000 1.0
C      1  0.5432170000000  0.4670060000000  0.5602520000000 1.0
C      1  0.4834710000000  0.5665570000000  0.4530340000000 1.0
C      1  0.5093430000000  0.4793140000000  0.5310580000000 1.0
END
