TITL C-884127-5181-289 9.97768274073922 125000 -27239.6646901069 0 0 181 (C1) n - 1
REM
REM in /home/nfs/bkarasulu/CARBON/AIRSS/Generating-Clusters/ReaxFF-fromJPCA2015/Units_Real/with-SteepDescent/Only-C1/SD-CG/Try1-3A/FIRE-CG
REM
REM
REM
REM
REM
REM ./C.cell (11c1c37f851c82e70ff6c80c92926a4b)
REM
REM compiler GCC version 9.2.1 20190827 (Red Hat 9.2.1-1)
REM options -cpp -mtune=generic -march=x86-64 -g -O0 -fpre-include=/usr/include/finclude/math-vector-fortran.h
REM seed 1685001446 621416737 230687530 1877770268 -299859961 -1797136040 -549148558 -1158560804 1803296598 -1444170091 -223634620 -1426627725 -62009683 -1337875957 898657218 1407350097 -1528771176 565046359 1379600971 587048870 -469091139 354159209 1161540936 -22755001 1501131953 -844660581 -919931353 -1693677231 -113366917 1217893213 1980844491 -724865660 -329889732
REM
CELL 1.54180   50.00000   50.00000   50.00000   90.00000   90.00000   90.00000
LATT -1
SFAC C  
C      1  0.5289010000000  0.4667840000000  0.5712560000000 1.0
C      1  0.5833720000000  0.4369490000000  0.5073070000000 1.0
C      1  0.5686810000000  0.5660530000000  0.5727570000000 1.0
C      1  0.4928280000000  0.5172260000000  0.3957820000000 1.0
C      1  0.5541750000000  0.4700500000000  0.4260950000000 1.0
C      1  0.4947970000000  0.4622410000000  0.4939500000000 1.0
C      1  0.5380800000000  0.4574420000000  0.4779580000000 1.0
C      1  0.5402650000000  0.4728560000000  0.3994130000000 1.0
C      1  0.4264510000000  0.4116090000000  0.4768670000000 1.0
C      1  0.4549730000000  0.4759560000000  0.5770120000000 1.0
C      1  0.5278500000000  0.3996540000000  0.4742590000000 1.0
C      1  0.5947160000000  0.4557140000000  0.4878410000000 1.0
C      1  0.4327260000000  0.4582370000000  0.5630080000000 1.0
C      1  0.5974540000000  0.4951440000000  0.4512340000000 1.0
C      1  0.5447450000000  0.5858920000000  0.4504420000000 1.0
C      1  0.5730770000000  0.5878160000000  0.5164240000000 1.0
C      1  0.6129630000000  0.4769860000000  0.4993450000000 1.0
C      1  0.4890560000000  0.4332150000000  0.4892700000000 1.0
C      1  0.5587430000000  0.4225360000000  0.4450340000000 1.0
C      1  0.3992710000000  0.4535080000000  0.4985060000000 1.0
C      1  0.5877020000000  0.5630310000000  0.5256170000000 1.0
C      1  0.5382030000000  0.6023080000000  0.4716980000000 1.0
C      1  0.5516890000000  0.4711510000000  0.5239040000000 1.0
C      1  0.4269710000000  0.5446870000000  0.5755530000000 1.0
C      1  0.5114690000000  0.4965620000000  0.5163340000000 1.0
C      1  0.5227950000000  0.5654170000000  0.4454950000000 1.0
C      1  0.5080240000000  0.3994500000000  0.4346430000000 1.0
C      1  0.4966830000000  0.4752030000000  0.6058720000000 1.0
C      1  0.5086530000000  0.6038920000000  0.5375990000000 1.0
C      1  0.5449010000000  0.4900640000000  0.5425120000000 1.0
C      1  0.4407430000000  0.4875990000000  0.4807990000000 1.0
C      1  0.4685320000000  0.4576660000000  0.4530890000000 1.0
C      1  0.4648580000000  0.4915270000000  0.5520240000000 1.0
C      1  0.4963850000000  0.5353670000000  0.5097570000000 1.0
C      1  0.6075940000000  0.4876200000000  0.5522310000000 1.0
C      1  0.5439450000000  0.4008960000000  0.5128450000000 1.0
C      1  0.5478780000000  0.5838830000000  0.5605580000000 1.0
C      1  0.4619410000000  0.5144290000000  0.5329400000000 1.0
C      1  0.4937190000000  0.6174180000000  0.4705910000000 1.0
C      1  0.4434400000000  0.4555800000000  0.5214820000000 1.0
C      1  0.6144620000000  0.4850190000000  0.5262910000000 1.0
C      1  0.4950180000000  0.5743920000000  0.4883840000000 1.0
C      1  0.5147560000000  0.4612060000000  0.4071580000000 1.0
C      1  0.4844870000000  0.4872990000000  0.4845740000000 1.0
C      1  0.5015310000000  0.5167650000000  0.4532660000000 1.0
C      1  0.4688690000000  0.5624610000000  0.4114210000000 1.0
C      1  0.5562190000000  0.4987080000000  0.4924830000000 1.0
C      1  0.3893380000000  0.5167880000000  0.5032570000000 1.0
C      1  0.4137780000000  0.5404490000000  0.4614200000000 1.0
C      1  0.5675100000000  0.5389220000000  0.4106400000000 1.0
C      1  0.4381950000000  0.5590470000000  0.4576520000000 1.0
C      1  0.5285790000000  0.4035850000000  0.5859240000000 1.0
C      1  0.4241960000000  0.4472310000000  0.4368020000000 1.0
C      1  0.5674950000000  0.5118940000000  0.5898030000000 1.0
C      1  0.4497740000000  0.6006920000000  0.4965100000000 1.0
C      1  0.5184960000000  0.4243040000000  0.5471460000000 1.0
C      1  0.5566040000000  0.4082020000000  0.4707170000000 1.0
C      1  0.5677330000000  0.5293460000000  0.5433760000000 1.0
C      1  0.4146070000000  0.5177730000000  0.5787260000000 1.0
C      1  0.4755670000000  0.4944450000000  0.4039040000000 1.0
C      1  0.5256590000000  0.6074410000000  0.5180240000000 1.0
C      1  0.5175580000000  0.5048180000000  0.3847910000000 1.0
C      1  0.5466290000000  0.5060000000000  0.6060250000000 1.0
C      1  0.4924510000000  0.4553040000000  0.5378570000000 1.0
C      1  0.5538820000000  0.4522100000000  0.5775560000000 1.0
C      1  0.4254450000000  0.4985980000000  0.4093070000000 1.0
C      1  0.4495690000000  0.5355670000000  0.5917420000000 1.0
C      1  0.4559500000000  0.5020930000000  0.4595150000000 1.0
C      1  0.5663960000000  0.4130720000000  0.4977480000000 1.0
C      1  0.4634550000000  0.4410130000000  0.4766260000000 1.0
C      1  0.4334220000000  0.4214200000000  0.4480430000000 1.0
C      1  0.4832790000000  0.5096430000000  0.5056870000000 1.0
C      1  0.4423120000000  0.5794560000000  0.4382390000000 1.0
C      1  0.4798130000000  0.3950120000000  0.4449460000000 1.0
C      1  0.4421570000000  0.4540570000000  0.4142570000000 1.0
C      1  0.4827170000000  0.3924130000000  0.4721570000000 1.0
C      1  0.5129230000000  0.5534930000000  0.4957280000000 1.0
C      1  0.3997830000000  0.5405220000000  0.4864610000000 1.0
C      1  0.4772490000000  0.5418640000000  0.5346030000000 1.0
C      1  0.5192560000000  0.6135370000000  0.4873690000000 1.0
C      1  0.5185120000000  0.5542970000000  0.4181730000000 1.0
C      1  0.4167860000000  0.4710700000000  0.5204740000000 1.0
C      1  0.4747100000000  0.5781290000000  0.5639350000000 1.0
C      1  0.4122450000000  0.4309780000000  0.4904260000000 1.0
C      1  0.4497480000000  0.5783900000000  0.5484160000000 1.0
C      1  0.4293830000000  0.4955780000000  0.5059030000000 1.0
C      1  0.5357120000000  0.4258700000000  0.5244360000000 1.0
C      1  0.4100010000000  0.5618850000000  0.5029430000000 1.0
C      1  0.5289470000000  0.5044960000000  0.4933160000000 1.0
C      1  0.5234350000000  0.4443900000000  0.4580920000000 1.0
C      1  0.5577340000000  0.5389610000000  0.5837350000000 1.0
C      1  0.5782940000000  0.4587560000000  0.5613490000000 1.0
C      1  0.5068640000000  0.4682600000000  0.5177090000000 1.0
C      1  0.5847070000000  0.4650020000000  0.4613760000000 1.0
C      1  0.4980930000000  0.5961880000000  0.5620220000000 1.0
C      1  0.5223920000000  0.5060340000000  0.6186140000000 1.0
C      1  0.4228690000000  0.5862050000000  0.4955960000000 1.0
C      1  0.4739030000000  0.5251440000000  0.4577900000000 1.0
C      1  0.5121370000000  0.4441070000000  0.4303470000000 1.0
C      1  0.4484810000000  0.4814980000000  0.4051470000000 1.0
C      1  0.4793080000000  0.4096840000000  0.5671580000000 1.0
C      1  0.5408730000000  0.5231000000000  0.3829410000000 1.0
C      1  0.4713770000000  0.5815380000000  0.5044440000000 1.0
C      1  0.5699490000000  0.4496410000000  0.4405370000000 1.0
C      1  0.5113660000000  0.4928300000000  0.4409630000000 1.0
C      1  0.5101780000000  0.4493330000000  0.5595350000000 1.0
C      1  0.3974450000000  0.5202830000000  0.5319510000000 1.0
C      1  0.4760590000000  0.4562170000000  0.5938150000000 1.0
C      1  0.5724320000000  0.5800640000000  0.4616750000000 1.0
C      1  0.4831990000000  0.4442780000000  0.4310050000000 1.0
C      1  0.4869470000000  0.5999600000000  0.4469380000000 1.0
C      1  0.5396790000000  0.4852050000000  0.4446270000000 1.0
C      1  0.5164520000000  0.5267480000000  0.5550050000000 1.0
C      1  0.4630480000000  0.5655620000000  0.5258340000000 1.0
C      1  0.4049570000000  0.5031620000000  0.5549770000000 1.0
C      1  0.5836600000000  0.4900780000000  0.5685880000000 1.0
C      1  0.5828810000000  0.4458360000000  0.5356830000000 1.0
C      1  0.4768320000000  0.4849120000000  0.4577600000000 1.0
C      1  0.5766760000000  0.5373450000000  0.5173200000000 1.0
C      1  0.5541210000000  0.4800560000000  0.4696510000000 1.0
C      1  0.5422260000000  0.5464240000000  0.4016180000000 1.0
C      1  0.5219440000000  0.5216140000000  0.4718790000000 1.0
C      1  0.5425570000000  0.5370080000000  0.5589810000000 1.0
C      1  0.5700220000000  0.5235230000000  0.4938360000000 1.0
C      1  0.4968930000000  0.5467170000000  0.6072530000000 1.0
C      1  0.4666380000000  0.5897910000000  0.4281170000000 1.0
C      1  0.5212250000000  0.5041880000000  0.5407850000000 1.0
C      1  0.5129420000000  0.5656470000000  0.5951370000000 1.0
C      1  0.4852690000000  0.5512400000000  0.5610730000000 1.0
C      1  0.4971400000000  0.4811340000000  0.4182930000000 1.0
C      1  0.5843680000000  0.5513570000000  0.4590070000000 1.0
C      1  0.5083550000000  0.4026680000000  0.5641320000000 1.0
C      1  0.4666100000000  0.5522140000000  0.4581330000000 1.0
C      1  0.5865520000000  0.5550400000000  0.5530120000000 1.0
C      1  0.4922770000000  0.5726990000000  0.4583790000000 1.0
C      1  0.4446630000000  0.4065820000000  0.4986680000000 1.0
C      1  0.5488760000000  0.5947040000000  0.5333040000000 1.0
C      1  0.4619590000000  0.4321420000000  0.4147950000000 1.0
C      1  0.4072790000000  0.4687040000000  0.4477680000000 1.0
C      1  0.5344880000000  0.4095800000000  0.4347270000000 1.0
C      1  0.4083920000000  0.5233030000000  0.4388180000000 1.0
C      1  0.5616900000000  0.5410800000000  0.4729670000000 1.0
C      1  0.4814920000000  0.4970760000000  0.6176240000000 1.0
C      1  0.5419870000000  0.4511170000000  0.5065610000000 1.0
C      1  0.5491210000000  0.4252570000000  0.5878040000000 1.0
C      1  0.4129590000000  0.4749800000000  0.5501910000000 1.0
C      1  0.4990850000000  0.5206530000000  0.6223120000000 1.0
C      1  0.5721090000000  0.5871580000000  0.4886520000000 1.0
C      1  0.4472580000000  0.4609010000000  0.4892310000000 1.0
C      1  0.6023440000000  0.5176080000000  0.4687100000000 1.0
C      1  0.5108990000000  0.4231640000000  0.4727020000000 1.0
C      1  0.5900880000000  0.5121670000000  0.4308580000000 1.0
C      1  0.4410580000000  0.4362810000000  0.5453970000000 1.0
C      1  0.4557840000000  0.4105350000000  0.4340730000000 1.0
C      1  0.4892840000000  0.3923350000000  0.4991060000000 1.0
C      1  0.4554450000000  0.4918250000000  0.6033290000000 1.0
C      1  0.5194120000000  0.3895670000000  0.4999320000000 1.0
C      1  0.4088140000000  0.4937990000000  0.4332870000000 1.0
C      1  0.4350740000000  0.5120570000000  0.6008000000000 1.0
C      1  0.5109340000000  0.4867460000000  0.5829120000000 1.0
C      1  0.4187780000000  0.5421140000000  0.5282870000000 1.0
C      1  0.3886860000000  0.4926830000000  0.4890370000000 1.0
C      1  0.4248690000000  0.5285670000000  0.4140190000000 1.0
C      1  0.4637460000000  0.4015850000000  0.5174110000000 1.0
C      1  0.4277110000000  0.5600230000000  0.5516230000000 1.0
C      1  0.5880750000000  0.5405700000000  0.4299640000000 1.0
C      1  0.4935630000000  0.5443940000000  0.4073820000000 1.0
C      1  0.5225140000000  0.5848110000000  0.5765480000000 1.0
C      1  0.5702410000000  0.5002200000000  0.5445050000000 1.0
C      1  0.4602720000000  0.4142920000000  0.5442040000000 1.0
C      1  0.4668260000000  0.4681660000000  0.5361590000000 1.0
C      1  0.4802600000000  0.5343820000000  0.5840760000000 1.0
C      1  0.6100170000000  0.5033870000000  0.4900000000000 1.0
C      1  0.4672740000000  0.6148830000000  0.4797210000000 1.0
C      1  0.4786600000000  0.4328140000000  0.5815280000000 1.0
C      1  0.4468440000000  0.5462860000000  0.4127400000000 1.0
C      1  0.5329830000000  0.5471810000000  0.4711050000000 1.0
C      1  0.5012580000000  0.5120060000000  0.5741220000000 1.0
C      1  0.5439680000000  0.4953780000000  0.3831440000000 1.0
C      1  0.4371990000000  0.5193730000000  0.5206210000000 1.0
C      1  0.3919860000000  0.4695600000000  0.4739930000000 1.0
END
