TITL C-883740-3686-283 -0.935782037124931 125000 -5544.38935906479 0 0 39 (C1) n - 1
REM
REM in /home/nfs/bkarasulu/CARBON/AIRSS/Generating-Clusters/ReaxFF-fromJPCA2015/Units_Real/with-SteepDescent/Only-C1/SD-CG/Try1-3A/FIRE-CG
REM
REM
REM
REM
REM
REM ./C.cell (11c1c37f851c82e70ff6c80c92926a4b)
REM
REM compiler GCC version 9.2.1 20190827 (Red Hat 9.2.1-1)
REM options -cpp -mtune=generic -march=x86-64 -g -O0 -fpre-include=/usr/include/finclude/math-vector-fortran.h
REM seed 1431667706 1651702656 1870429055 -1885556062 919586647 -1050935989 -1562778614 -796335423 1794768980 921532992 -1686464962 1246256672 -634214314 2142537149 -328908199 1581769366 -1444312701 436530045 1937976573 268425874 588407543 -1610195849 -1938248673 1168011317 106123819 -1950147386 -1407712046 -1166110959 -1095643005 -1520722805 373617204 148736837 631866067
REM
CELL 1.54180   50.00000   50.00000   50.00000   90.00000   90.00000   90.00000
LATT -1
SFAC C  
C      1  0.5463810000000  0.4323890000000  0.4945730000000 1.0
C      1  0.5336010000000  0.4879940000000  0.5551680000000 1.0
C      1  0.4949080000000  0.4728690000000  0.4410140000000 1.0
C      1  0.5552360000000  0.4760750000000  0.4733440000000 1.0
C      1  0.4641810000000  0.5311220000000  0.4849950000000 1.0
C      1  0.5288670000000  0.5666410000000  0.4952370000000 1.0
C      1  0.4799240000000  0.4511190000000  0.5118210000000 1.0
C      1  0.5547110000000  0.4520690000000  0.4812030000000 1.0
C      1  0.4870620000000  0.4933640000000  0.4801380000000 1.0
C      1  0.4790180000000  0.5553830000000  0.4762350000000 1.0
C      1  0.4594560000000  0.4909160000000  0.4711970000000 1.0
C      1  0.5523490000000  0.5035410000000  0.4677120000000 1.0
C      1  0.4996040000000  0.5255110000000  0.4430690000000 1.0
C      1  0.5122200000000  0.5205670000000  0.5190510000000 1.0
C      1  0.5257260000000  0.4955100000000  0.5283720000000 1.0
C      1  0.5008840000000  0.5499080000000  0.4565000000000 1.0
C      1  0.5132320000000  0.5347620000000  0.5685720000000 1.0
C      1  0.5283110000000  0.4369090000000  0.5088780000000 1.0
C      1  0.5285020000000  0.5544270000000  0.4669540000000 1.0
C      1  0.4465310000000  0.5150490000000  0.4705110000000 1.0
C      1  0.4650840000000  0.4931070000000  0.5627650000000 1.0
C      1  0.4824640000000  0.5636890000000  0.5027030000000 1.0
C      1  0.5290700000000  0.5107550000000  0.5745290000000 1.0
C      1  0.4684330000000  0.4579210000000  0.4351900000000 1.0
C      1  0.4650410000000  0.4706040000000  0.5277500000000 1.0
C      1  0.4868730000000  0.5633970000000  0.5296100000000 1.0
C      1  0.4685650000000  0.4991820000000  0.5222780000000 1.0
C      1  0.4793550000000  0.4504790000000  0.4824540000000 1.0
C      1  0.5069580000000  0.4483670000000  0.5240910000000 1.0
C      1  0.4990640000000  0.4686810000000  0.4705080000000 1.0
C      1  0.5136320000000  0.4720290000000  0.5406380000000 1.0
C      1  0.4978410000000  0.5008290000000  0.4369190000000 1.0
C      1  0.4720480000000  0.5146730000000  0.5465040000000 1.0
C      1  0.4586680000000  0.4596650000000  0.4630010000000 1.0
C      1  0.5336150000000  0.5380730000000  0.5049900000000 1.0
C      1  0.4580760000000  0.4656410000000  0.5583480000000 1.0
C      1  0.4956020000000  0.5347770000000  0.5436180000000 1.0
C      1  0.4855580000000  0.5110350000000  0.5016220000000 1.0
C      1  0.5433490000000  0.5309710000000  0.4779370000000 1.0
END
