TITL C-883734-4173-69 32.1329159339586 125000 -15327.4771163427 0 0 103 (C1) n - 1
REM
REM in /home/nfs/bkarasulu/CARBON/AIRSS/Generating-Clusters/ReaxFF-fromJPCA2015/Units_Real/with-SteepDescent/Only-C1/SD-CG/Try1-3A/FIRE-CG
REM
REM
REM
REM
REM
REM ./C.cell (11c1c37f851c82e70ff6c80c92926a4b)
REM
REM compiler GCC version 9.2.1 20190827 (Red Hat 9.2.1-1)
REM options -cpp -mtune=generic -march=x86-64 -g -O0 -fpre-include=/usr/include/finclude/math-vector-fortran.h
REM seed -1281293103 1769422631 -778916419 -1947652069 1123868288 -1502435134 262735374 -2105947940 1773872772 2012004639 1625300992 533683261 929401193 169654878 -976698560 1799157108 34353805 -635612949 797054955 -2002713284 1942325745 -185302589 242997421 1511210770 -1441706926 531220479 941586484 1278979994 -1204762344 544204400 1566022932 -1544677204 -1433260002
REM
CELL 1.54180   50.00000   50.00000   50.00000   90.00000   90.00000   90.00000
LATT -1
SFAC C  
C      1  0.4890940000000  0.4691610000000  0.5103920000000 1.0
C      1  0.4908690000000  0.5320360000000  0.4125140000000 1.0
C      1  0.4417890000000  0.5268300000000  0.4279290000000 1.0
C      1  0.4308710000000  0.4977090000000  0.5048730000000 1.0
C      1  0.4763130000000  0.4882890000000  0.5274310000000 1.0
C      1  0.5000300000000  0.5541530000000  0.4299500000000 1.0
C      1  0.4834000000000  0.4227450000000  0.4983960000000 1.0
C      1  0.5488850000000  0.5626310000000  0.5178310000000 1.0
C      1  0.5581710000000  0.5446650000000  0.5383950000000 1.0
C      1  0.5041850000000  0.5019540000000  0.4504360000000 1.0
C      1  0.5350140000000  0.4978650000000  0.4420160000000 1.0
C      1  0.5043990000000  0.5291750000000  0.4618090000000 1.0
C      1  0.5504250000000  0.4320520000000  0.4585460000000 1.0
C      1  0.4729160000000  0.4712790000000  0.5929770000000 1.0
C      1  0.5621310000000  0.4470410000000  0.5123370000000 1.0
C      1  0.5271650000000  0.5924330000000  0.4731970000000 1.0
C      1  0.4549830000000  0.4321660000000  0.4923410000000 1.0
C      1  0.5188310000000  0.4761100000000  0.5102440000000 1.0
C      1  0.5746030000000  0.4953570000000  0.5256430000000 1.0
C      1  0.5739170000000  0.4840950000000  0.4853720000000 1.0
C      1  0.4846430000000  0.5119680000000  0.5751390000000 1.0
C      1  0.4445670000000  0.5423780000000  0.5579870000000 1.0
C      1  0.4673040000000  0.5707760000000  0.4766610000000 1.0
C      1  0.5157580000000  0.5645400000000  0.5557330000000 1.0
C      1  0.4572870000000  0.5673420000000  0.5475630000000 1.0
C      1  0.4493400000000  0.4387950000000  0.4651650000000 1.0
C      1  0.5755230000000  0.4829490000000  0.4615400000000 1.0
C      1  0.4927580000000  0.4921920000000  0.5950170000000 1.0
C      1  0.5503210000000  0.4365450000000  0.5365400000000 1.0
C      1  0.5307690000000  0.4289020000000  0.4806120000000 1.0
C      1  0.5197350000000  0.5556000000000  0.5068600000000 1.0
C      1  0.4723080000000  0.5134580000000  0.4813080000000 1.0
C      1  0.5124850000000  0.5118620000000  0.4069980000000 1.0
C      1  0.4934250000000  0.5395190000000  0.5794250000000 1.0
C      1  0.5241020000000  0.5374200000000  0.5826680000000 1.0
C      1  0.5699190000000  0.4852000000000  0.5529080000000 1.0
C      1  0.5160840000000  0.5017270000000  0.4938930000000 1.0
C      1  0.4206700000000  0.5210980000000  0.5188270000000 1.0
C      1  0.5249070000000  0.4218060000000  0.5381730000000 1.0
C      1  0.4209180000000  0.4694520000000  0.5416790000000 1.0
C      1  0.5568280000000  0.4960280000000  0.5764550000000 1.0
C      1  0.4346780000000  0.4428660000000  0.5404260000000 1.0
C      1  0.5193170000000  0.4614190000000  0.4184920000000 1.0
C      1  0.4846220000000  0.5714400000000  0.4496710000000 1.0
C      1  0.5411990000000  0.4709400000000  0.4339880000000 1.0
C      1  0.5027590000000  0.4200250000000  0.4767740000000 1.0
C      1  0.5662370000000  0.5328910000000  0.4663220000000 1.0
C      1  0.5473170000000  0.4643440000000  0.5519960000000 1.0
C      1  0.5102120000000  0.5819240000000  0.4946240000000 1.0
C      1  0.5526510000000  0.5769280000000  0.4710290000000 1.0
C      1  0.4488750000000  0.5442320000000  0.4504290000000 1.0
C      1  0.4685480000000  0.5537180000000  0.5711230000000 1.0
C      1  0.4662150000000  0.5174060000000  0.4160150000000 1.0
C      1  0.4251500000000  0.5349210000000  0.4661010000000 1.0
C      1  0.4349840000000  0.4900660000000  0.5569570000000 1.0
C      1  0.5364160000000  0.4497330000000  0.4996920000000 1.0
C      1  0.4246830000000  0.4850660000000  0.4502960000000 1.0
C      1  0.5036340000000  0.4842060000000  0.4091770000000 1.0
C      1  0.5183990000000  0.5016300000000  0.5493320000000 1.0
C      1  0.4934830000000  0.4296560000000  0.4511750000000 1.0
C      1  0.4951480000000  0.4502880000000  0.5985940000000 1.0
C      1  0.5692430000000  0.5245700000000  0.5202120000000 1.0
C      1  0.4549160000000  0.4712720000000  0.5692790000000 1.0
C      1  0.5327990000000  0.5119170000000  0.5714660000000 1.0
C      1  0.5594270000000  0.4606620000000  0.4539650000000 1.0
C      1  0.4672920000000  0.5278220000000  0.5048100000000 1.0
C      1  0.5662230000000  0.5662260000000  0.4947950000000 1.0
C      1  0.4956480000000  0.4916840000000  0.4758950000000 1.0
C      1  0.4838530000000  0.4300870000000  0.5495640000000 1.0
C      1  0.5629280000000  0.5075450000000  0.4525970000000 1.0
C      1  0.4532960000000  0.5520940000000  0.4954340000000 1.0
C      1  0.4795880000000  0.4909700000000  0.4268020000000 1.0
C      1  0.4568300000000  0.5045880000000  0.5165610000000 1.0
C      1  0.5159280000000  0.5285340000000  0.4891270000000 1.0
C      1  0.5402100000000  0.5524810000000  0.5622640000000 1.0
C      1  0.4358410000000  0.4445050000000  0.5109570000000 1.0
C      1  0.4588730000000  0.4452350000000  0.5566190000000 1.0
C      1  0.4764130000000  0.5743470000000  0.5268360000000 1.0
C      1  0.5106900000000  0.4218620000000  0.5641280000000 1.0
C      1  0.4215520000000  0.4706570000000  0.5121330000000 1.0
C      1  0.4331400000000  0.5179700000000  0.5458010000000 1.0
C      1  0.5120260000000  0.4342090000000  0.4289970000000 1.0
C      1  0.4807430000000  0.5841330000000  0.4985430000000 1.0
C      1  0.4264430000000  0.5384640000000  0.4953710000000 1.0
C      1  0.5013940000000  0.5606840000000  0.5316930000000 1.0
C      1  0.4907800000000  0.5035630000000  0.5474440000000 1.0
C      1  0.5431250000000  0.4711600000000  0.5824310000000 1.0
C      1  0.5507220000000  0.5541410000000  0.4538500000000 1.0
C      1  0.5287520000000  0.5459470000000  0.4348940000000 1.0
C      1  0.5281070000000  0.4802620000000  0.5364300000000 1.0
C      1  0.4748640000000  0.5325650000000  0.4612770000000 1.0
C      1  0.4747950000000  0.4484860000000  0.4621280000000 1.0
C      1  0.5072210000000  0.5869410000000  0.4537820000000 1.0
C      1  0.4832400000000  0.4661500000000  0.4825850000000 1.0
C      1  0.4209670000000  0.5124990000000  0.4464780000000 1.0
C      1  0.5163270000000  0.4715980000000  0.5947590000000 1.0
C      1  0.5763220000000  0.4729440000000  0.5084900000000 1.0
C      1  0.4584370000000  0.4701410000000  0.4327410000000 1.0
C      1  0.4353510000000  0.4589850000000  0.4472040000000 1.0
C      1  0.4949870000000  0.4232580000000  0.5244320000000 1.0
C      1  0.5378740000000  0.4196210000000  0.4345440000000 1.0
C      1  0.5747850000000  0.5380760000000  0.4942580000000 1.0
C      1  0.5358820000000  0.5201370000000  0.4224320000000 1.0
END
