TITL C-884139-6216-243 18.7184055954505 125000 -28264.5179476161 0 0 187 (C1) n - 1
REM
REM in /home/nfs/bkarasulu/CARBON/AIRSS/Generating-Clusters/ReaxFF-fromJPCA2015/Units_Real/with-SteepDescent/Only-C1/SD-CG/Try1-3A/FIRE-CG
REM
REM
REM
REM
REM
REM ./C.cell (11c1c37f851c82e70ff6c80c92926a4b)
REM
REM compiler GCC version 9.2.1 20190827 (Red Hat 9.2.1-1)
REM options -cpp -mtune=generic -march=x86-64 -g -O0 -fpre-include=/usr/include/finclude/math-vector-fortran.h
REM seed 2042002007 -706667266 -1923424220 1338851348 -74946957 -1303266286 1079348015 581189753 254172773 1701200451 -1498312537 -830328345 528072596 -98879129 -561344448 -539304481 1469893332 -127543841 -1477398514 1089937316 -182523373 1326032347 -1741269176 -907367640 -1013872655 -1710738617 -103016900 1478580231 544829858 1520989258 497815021 -731637181 116096655
REM
CELL 1.54180   50.00000   50.00000   50.00000   90.00000   90.00000   90.00000
LATT -1
SFAC C  
C      1  0.5673330000000  0.4565340000000  0.5060690000000 1.0
C      1  0.5744950000000  0.5006850000000  0.5324140000000 1.0
C      1  0.5107550000000  0.5268900000000  0.3907350000000 1.0
C      1  0.5570210000000  0.5120170000000  0.4050170000000 1.0
C      1  0.5317670000000  0.5662370000000  0.5820550000000 1.0
C      1  0.6142870000000  0.4457010000000  0.5013960000000 1.0
C      1  0.4932070000000  0.4995220000000  0.4888250000000 1.0
C      1  0.3918290000000  0.5011040000000  0.5289990000000 1.0
C      1  0.5150510000000  0.5794370000000  0.5622150000000 1.0
C      1  0.4702820000000  0.5715090000000  0.5546160000000 1.0
C      1  0.5386030000000  0.5332640000000  0.3977240000000 1.0
C      1  0.4437480000000  0.5248170000000  0.5976900000000 1.0
C      1  0.4525930000000  0.5148740000000  0.5111700000000 1.0
C      1  0.5289880000000  0.5698480000000  0.4814850000000 1.0
C      1  0.5754170000000  0.5803490000000  0.4782120000000 1.0
C      1  0.5316810000000  0.5220840000000  0.6060260000000 1.0
C      1  0.4909260000000  0.6111230000000  0.4656250000000 1.0
C      1  0.4595180000000  0.3979160000000  0.5099570000000 1.0
C      1  0.3977590000000  0.5494050000000  0.5484010000000 1.0
C      1  0.4168830000000  0.4650720000000  0.5595190000000 1.0
C      1  0.4915130000000  0.4264820000000  0.5939930000000 1.0
C      1  0.4748120000000  0.4286990000000  0.4182230000000 1.0
C      1  0.5525580000000  0.5295080000000  0.4719610000000 1.0
C      1  0.4341430000000  0.4837560000000  0.4294010000000 1.0
C      1  0.5460390000000  0.4469870000000  0.4315130000000 1.0
C      1  0.5871690000000  0.5011310000000  0.4310180000000 1.0
C      1  0.5220380000000  0.4797660000000  0.5515790000000 1.0
C      1  0.4893800000000  0.4400720000000  0.4753370000000 1.0
C      1  0.4859310000000  0.3978440000000  0.4964270000000 1.0
C      1  0.4615540000000  0.6040310000000  0.4631460000000 1.0
C      1  0.5040440000000  0.4052540000000  0.5611360000000 1.0
C      1  0.4726620000000  0.5735740000000  0.4317540000000 1.0
C      1  0.5043250000000  0.4984770000000  0.3880940000000 1.0
C      1  0.4309130000000  0.4156550000000  0.4859320000000 1.0
C      1  0.4296450000000  0.5233950000000  0.4962580000000 1.0
C      1  0.5862950000000  0.4881870000000  0.5770960000000 1.0
C      1  0.5305580000000  0.6096240000000  0.5027800000000 1.0
C      1  0.6013300000000  0.4793890000000  0.4664460000000 1.0
C      1  0.4901650000000  0.5492460000000  0.5959900000000 1.0
C      1  0.4980550000000  0.4416910000000  0.4256010000000 1.0
C      1  0.5584840000000  0.4797270000000  0.4930320000000 1.0
C      1  0.5161130000000  0.6021980000000  0.5276560000000 1.0
C      1  0.5455240000000  0.4524670000000  0.5206940000000 1.0
C      1  0.4266190000000  0.5003700000000  0.5933660000000 1.0
C      1  0.4273910000000  0.5785900000000  0.5402280000000 1.0
C      1  0.4838070000000  0.5023140000000  0.5622410000000 1.0
C      1  0.5222560000000  0.5318080000000  0.5151890000000 1.0
C      1  0.4402830000000  0.4920780000000  0.5225250000000 1.0
C      1  0.4732430000000  0.5248800000000  0.6021560000000 1.0
C      1  0.4472900000000  0.5973110000000  0.4869650000000 1.0
C      1  0.4493990000000  0.5898130000000  0.4404860000000 1.0
C      1  0.4979250000000  0.5932500000000  0.4258700000000 1.0
C      1  0.6185220000000  0.4562470000000  0.5287450000000 1.0
C      1  0.5014160000000  0.3975070000000  0.4709190000000 1.0
C      1  0.5995900000000  0.5067520000000  0.4570120000000 1.0
C      1  0.5154100000000  0.4161220000000  0.5863030000000 1.0
C      1  0.4388650000000  0.4549640000000  0.4239160000000 1.0
C      1  0.5090450000000  0.5543810000000  0.4674050000000 1.0
C      1  0.4594080000000  0.4474200000000  0.4042540000000 1.0
C      1  0.4728150000000  0.4768370000000  0.5688260000000 1.0
C      1  0.4263580000000  0.4707780000000  0.5863070000000 1.0
C      1  0.4698690000000  0.5487850000000  0.4542640000000 1.0
C      1  0.5234340000000  0.4783860000000  0.3982630000000 1.0
C      1  0.6055530000000  0.5016690000000  0.5619650000000 1.0
C      1  0.4398510000000  0.5479390000000  0.4150290000000 1.0
C      1  0.4529820000000  0.5909590000000  0.5417960000000 1.0
C      1  0.6060930000000  0.5035560000000  0.5340070000000 1.0
C      1  0.5960490000000  0.4499380000000  0.5464670000000 1.0
C      1  0.5525070000000  0.5715560000000  0.4349600000000 1.0
C      1  0.3819020000000  0.4928370000000  0.4809590000000 1.0
C      1  0.5687320000000  0.5983440000000  0.5147360000000 1.0
C      1  0.5177110000000  0.4049450000000  0.5349080000000 1.0
C      1  0.5787790000000  0.5781300000000  0.5316390000000 1.0
C      1  0.4706740000000  0.4720770000000  0.6001640000000 1.0
C      1  0.5177590000000  0.5118320000000  0.4953740000000 1.0
C      1  0.4681180000000  0.5640670000000  0.5087380000000 1.0
C      1  0.5318810000000  0.4068750000000  0.4681740000000 1.0
C      1  0.5871520000000  0.4226500000000  0.5494120000000 1.0
C      1  0.5316300000000  0.4420220000000  0.5939210000000 1.0
C      1  0.5774050000000  0.4721730000000  0.5531380000000 1.0
C      1  0.6171750000000  0.4728150000000  0.4898920000000 1.0
C      1  0.5482260000000  0.4058570000000  0.4911700000000 1.0
C      1  0.3928750000000  0.4966110000000  0.4404370000000 1.0
C      1  0.4449960000000  0.4240920000000  0.5039330000000 1.0
C      1  0.5136420000000  0.5008990000000  0.5699880000000 1.0
C      1  0.4479590000000  0.4526340000000  0.5919770000000 1.0
C      1  0.5379600000000  0.5853460000000  0.4588350000000 1.0
C      1  0.5127240000000  0.6023970000000  0.4479450000000 1.0
C      1  0.5687760000000  0.5112680000000  0.5758630000000 1.0
C      1  0.5278470000000  0.5214340000000  0.5534980000000 1.0
C      1  0.4231810000000  0.4365140000000  0.5207470000000 1.0
C      1  0.4645020000000  0.5957400000000  0.5130220000000 1.0
C      1  0.5558220000000  0.5145370000000  0.5507510000000 1.0
C      1  0.4668860000000  0.5551920000000  0.4076770000000 1.0
C      1  0.4790910000000  0.4033560000000  0.4564690000000 1.0
C      1  0.5349890000000  0.5589050000000  0.5114520000000 1.0
C      1  0.5638850000000  0.5531660000000  0.5212750000000 1.0
C      1  0.4271040000000  0.4411170000000  0.5482280000000 1.0
C      1  0.5936480000000  0.5305850000000  0.4738360000000 1.0
C      1  0.4331520000000  0.4747100000000  0.5022410000000 1.0
C      1  0.4245720000000  0.5566680000000  0.4634940000000 1.0
C      1  0.4081540000000  0.4584490000000  0.5032020000000 1.0
C      1  0.5085060000000  0.4302680000000  0.4940290000000 1.0
C      1  0.4848560000000  0.5088070000000  0.5343100000000 1.0
C      1  0.5739870000000  0.5533970000000  0.4369710000000 1.0
C      1  0.5697530000000  0.5230100000000  0.4280850000000 1.0
C      1  0.5738710000000  0.4749160000000  0.4256130000000 1.0
C      1  0.5181530000000  0.5470310000000  0.6012210000000 1.0
C      1  0.5571320000000  0.5537530000000  0.5766520000000 1.0
C      1  0.5016950000000  0.4552200000000  0.4524340000000 1.0
C      1  0.5643940000000  0.4191880000000  0.5653440000000 1.0
C      1  0.4784440000000  0.5484980000000  0.4828980000000 1.0
C      1  0.5052130000000  0.5302220000000  0.5362460000000 1.0
C      1  0.5470310000000  0.5109540000000  0.4502250000000 1.0
C      1  0.4527750000000  0.5077860000000  0.3947350000000 1.0
C      1  0.5674520000000  0.5026170000000  0.5058890000000 1.0
C      1  0.4940630000000  0.5069340000000  0.4416610000000 1.0
C      1  0.4309140000000  0.5207110000000  0.4058470000000 1.0
C      1  0.5739440000000  0.4177500000000  0.4822160000000 1.0
C      1  0.4932560000000  0.5432660000000  0.4079240000000 1.0
C      1  0.4900890000000  0.5713080000000  0.5762130000000 1.0
C      1  0.6209050000000  0.4835630000000  0.5178460000000 1.0
C      1  0.5153090000000  0.5740780000000  0.5335750000000 1.0
C      1  0.5702060000000  0.5565140000000  0.5501410000000 1.0
C      1  0.5785670000000  0.4636200000000  0.4533440000000 1.0
C      1  0.4734370000000  0.4082180000000  0.5624130000000 1.0
C      1  0.4456540000000  0.5039140000000  0.4507510000000 1.0
C      1  0.4834610000000  0.4449020000000  0.5282390000000 1.0
C      1  0.4982650000000  0.4645550000000  0.5144450000000 1.0
C      1  0.4908740000000  0.6115320000000  0.5152940000000 1.0
C      1  0.5224630000000  0.4533320000000  0.5034240000000 1.0
C      1  0.4315370000000  0.5664780000000  0.4375230000000 1.0
C      1  0.4501210000000  0.4671980000000  0.4815610000000 1.0
C      1  0.5717330000000  0.5280870000000  0.4941860000000 1.0
C      1  0.4739670000000  0.5199280000000  0.4935980000000 1.0
C      1  0.4747750000000  0.4933790000000  0.3843520000000 1.0
C      1  0.4171760000000  0.5629010000000  0.5635710000000 1.0
C      1  0.3911580000000  0.5313170000000  0.5274990000000 1.0
C      1  0.4322130000000  0.5635080000000  0.5138630000000 1.0
C      1  0.4365060000000  0.4319980000000  0.4414720000000 1.0
C      1  0.4293070000000  0.5749430000000  0.4856440000000 1.0
C      1  0.4880960000000  0.4853590000000  0.4624530000000 1.0
C      1  0.5121760000000  0.5465850000000  0.4319960000000 1.0
C      1  0.5048940000000  0.6182500000000  0.4909260000000 1.0
C      1  0.5176440000000  0.4642470000000  0.6061920000000 1.0
C      1  0.4624430000000  0.4425600000000  0.4849170000000 1.0
C      1  0.5732250000000  0.4315340000000  0.4567930000000 1.0
C      1  0.5429870000000  0.4033110000000  0.5221050000000 1.0
C      1  0.5478100000000  0.4218340000000  0.4464820000000 1.0
C      1  0.4690510000000  0.5223600000000  0.4429360000000 1.0
C      1  0.5502950000000  0.4834790000000  0.4096780000000 1.0
C      1  0.5246350000000  0.5310310000000  0.4757880000000 1.0
C      1  0.5365620000000  0.5561410000000  0.4161960000000 1.0
C      1  0.4856080000000  0.5595110000000  0.5318660000000 1.0
C      1  0.4180740000000  0.4293750000000  0.4640950000000 1.0
C      1  0.5196760000000  0.5180640000000  0.4388070000000 1.0
C      1  0.5451880000000  0.4616460000000  0.5496690000000 1.0
C      1  0.3875690000000  0.4727000000000  0.4597500000000 1.0
C      1  0.5598120000000  0.6030400000000  0.4885930000000 1.0
C      1  0.4653320000000  0.4011580000000  0.5372880000000 1.0
C      1  0.4123820000000  0.4989410000000  0.4187460000000 1.0
C      1  0.3951090000000  0.5135060000000  0.4637040000000 1.0
C      1  0.4233130000000  0.5252010000000  0.4673780000000 1.0
C      1  0.4922830000000  0.4508190000000  0.6089060000000 1.0
C      1  0.5045950000000  0.4870550000000  0.5309080000000 1.0
C      1  0.4603060000000  0.4844380000000  0.4644260000000 1.0
C      1  0.4167240000000  0.5121220000000  0.5690620000000 1.0
C      1  0.3883700000000  0.4833850000000  0.5078900000000 1.0
C      1  0.4965870000000  0.4174110000000  0.5160100000000 1.0
C      1  0.5489510000000  0.4418070000000  0.5707420000000 1.0
C      1  0.4519990000000  0.4347210000000  0.5678280000000 1.0
C      1  0.5513830000000  0.4809380000000  0.4631870000000 1.0
C      1  0.4603720000000  0.4139230000000  0.4379780000000 1.0
C      1  0.5867010000000  0.5580140000000  0.4630050000000 1.0
C      1  0.4020720000000  0.4519770000000  0.4736600000000 1.0
C      1  0.4126250000000  0.5417320000000  0.5102620000000 1.0
C      1  0.5562430000000  0.5294110000000  0.5933990000000 1.0
C      1  0.4850630000000  0.4993690000000  0.6073960000000 1.0
C      1  0.4173850000000  0.4924120000000  0.5440700000000 1.0
C      1  0.4714380000000  0.4524380000000  0.5525940000000 1.0
C      1  0.5144420000000  0.4960030000000  0.6044830000000 1.0
C      1  0.5313900000000  0.4638600000000  0.4492910000000 1.0
C      1  0.5651130000000  0.4051710000000  0.5407760000000 1.0
C      1  0.4786330000000  0.4646620000000  0.3906530000000 1.0
C      1  0.4308280000000  0.5374600000000  0.5737640000000 1.0
C      1  0.5863920000000  0.4368800000000  0.5004950000000 1.0
C      1  0.5047820000000  0.4565490000000  0.4018320000000 1.0
END
