TITL C-883726-8501-177 -4.08655072975352 125000 -7700.53022934535 0 0 52 (C1) n - 1
REM
REM in /home/nfs/bkarasulu/CARBON/AIRSS/Generating-Clusters/ReaxFF-fromJPCA2015/Units_Real/with-SteepDescent/Only-C1/SD-CG/Try1-3A/FIRE-CG
REM
REM
REM
REM
REM
REM ./C.cell (11c1c37f851c82e70ff6c80c92926a4b)
REM
REM compiler GCC version 9.2.1 20190827 (Red Hat 9.2.1-1)
REM options -cpp -mtune=generic -march=x86-64 -g -O0 -fpre-include=/usr/include/finclude/math-vector-fortran.h
REM seed 660368814 840340708 -1700611064 572750503 -334925175 -1501787064 1160288032 -850974644 -1670652498 121665129 -884686841 712003234 -2007322748 1965368057 932231478 928749412 -1948374638 -974584065 -2147201253 1716540714 1466248780 -1203975886 -2029542390 -1426879110 -169234569 1301468270 -1218196137 681238344 -947144707 1401376885 -421783671 2122827875 -1832250937
REM
CELL 1.54180   50.00000   50.00000   50.00000   90.00000   90.00000   90.00000
LATT -1
SFAC C  
C      1  0.5093050000000  0.4709980000000  0.5575820000000 1.0
C      1  0.5325470000000  0.5500980000000  0.5236910000000 1.0
C      1  0.4605860000000  0.4956570000000  0.4340660000000 1.0
C      1  0.5681290000000  0.4805930000000  0.4865380000000 1.0
C      1  0.4927130000000  0.5591780000000  0.4922320000000 1.0
C      1  0.4574730000000  0.4709810000000  0.5337500000000 1.0
C      1  0.5319270000000  0.4903740000000  0.5573760000000 1.0
C      1  0.4960720000000  0.4424350000000  0.4651530000000 1.0
C      1  0.5349210000000  0.5472520000000  0.4720050000000 1.0
C      1  0.4856780000000  0.4821970000000  0.5402010000000 1.0
C      1  0.5107200000000  0.4417850000000  0.5567510000000 1.0
C      1  0.4850370000000  0.5236430000000  0.4155160000000 1.0
C      1  0.5426410000000  0.5364730000000  0.5476520000000 1.0
C      1  0.4744460000000  0.4976560000000  0.4133530000000 1.0
C      1  0.4395070000000  0.4939070000000  0.5310550000000 1.0
C      1  0.4528120000000  0.4502480000000  0.5131020000000 1.0
C      1  0.4399430000000  0.4878080000000  0.4808720000000 1.0
C      1  0.5552060000000  0.4904980000000  0.5391320000000 1.0
C      1  0.4755290000000  0.4361880000000  0.5213060000000 1.0
C      1  0.5164480000000  0.5056700000000  0.5002890000000 1.0
C      1  0.4456820000000  0.5350060000000  0.5040200000000 1.0
C      1  0.5337800000000  0.4509870000000  0.4621540000000 1.0
C      1  0.4775760000000  0.5069320000000  0.5548840000000 1.0
C      1  0.4487620000000  0.4599940000000  0.4846300000000 1.0
C      1  0.5141230000000  0.5396290000000  0.4175740000000 1.0
C      1  0.4442900000000  0.5349630000000  0.5318980000000 1.0
C      1  0.5249110000000  0.5181950000000  0.5620770000000 1.0
C      1  0.5017150000000  0.4310910000000  0.5293100000000 1.0
C      1  0.5186870000000  0.4478410000000  0.5098740000000 1.0
C      1  0.5481480000000  0.4472680000000  0.5195290000000 1.0
C      1  0.4738010000000  0.4585980000000  0.4690110000000 1.0
C      1  0.5047540000000  0.4797890000000  0.5107900000000 1.0
C      1  0.4681920000000  0.5454080000000  0.4873620000000 1.0
C      1  0.5638300000000  0.5052190000000  0.4752300000000 1.0
C      1  0.4728060000000  0.5249940000000  0.4657090000000 1.0
C      1  0.5412530000000  0.5260950000000  0.5075100000000 1.0
C      1  0.5047250000000  0.5600310000000  0.5200210000000 1.0
C      1  0.4783400000000  0.5393780000000  0.4390640000000 1.0
C      1  0.4968300000000  0.5278570000000  0.5605810000000 1.0
C      1  0.4853430000000  0.4810290000000  0.4876330000000 1.0
C      1  0.4369650000000  0.5054710000000  0.5038630000000 1.0
C      1  0.5183250000000  0.4359950000000  0.4799630000000 1.0
C      1  0.5119920000000  0.5603760000000  0.4690500000000 1.0
C      1  0.5532360000000  0.4685740000000  0.4659920000000 1.0
C      1  0.4492340000000  0.5146110000000  0.5507780000000 1.0
C      1  0.5570930000000  0.5321870000000  0.4793020000000 1.0
C      1  0.4913680000000  0.5534550000000  0.5454580000000 1.0
C      1  0.5626600000000  0.4721350000000  0.5172740000000 1.0
C      1  0.5587450000000  0.5183700000000  0.5313800000000 1.0
C      1  0.4973590000000  0.5059460000000  0.4788830000000 1.0
C      1  0.5027280000000  0.5556140000000  0.4391590000000 1.0
C      1  0.4511040000000  0.5033220000000  0.4584160000000 1.0
END
