TITL C-883727-9645-475 -2.13048382057138 125000 -8668.43970326601 0 0 59 (C1) n - 1
REM
REM in /home/nfs/bkarasulu/CARBON/AIRSS/Generating-Clusters/ReaxFF-fromJPCA2015/Units_Real/with-SteepDescent/Only-C1/SD-CG/Try1-3A/FIRE-CG
REM
REM
REM
REM
REM
REM ./C.cell (11c1c37f851c82e70ff6c80c92926a4b)
REM
REM compiler GCC version 9.2.1 20190827 (Red Hat 9.2.1-1)
REM options -cpp -mtune=generic -march=x86-64 -g -O0 -fpre-include=/usr/include/finclude/math-vector-fortran.h
REM seed -183194100 -1011671405 1103032942 -1611432676 1319387341 -835175924 142355172 -1574761628 1870087829 -826465350 -1344440530 1759602289 1690580877 -162957598 -1265247501 -1651252624 1487695663 925829972 -1780229608 1191624570 -1237961431 1265373680 1964331796 934891957 -1414904091 283217621 138321033 -247634990 71331704 -102472613 858241962 767023739 -1609317499
REM
CELL 1.54180   50.00000   50.00000   50.00000   90.00000   90.00000   90.00000
LATT -1
SFAC C  
C      1  0.5008830000000  0.4297650000000  0.5248100000000 1.0
C      1  0.5270970000000  0.5607410000000  0.5014450000000 1.0
C      1  0.4581220000000  0.5029640000000  0.5271020000000 1.0
C      1  0.4311280000000  0.4753780000000  0.5018580000000 1.0
C      1  0.4701440000000  0.4645990000000  0.5373570000000 1.0
C      1  0.4826830000000  0.5606570000000  0.5142520000000 1.0
C      1  0.5134270000000  0.4453820000000  0.5466730000000 1.0
C      1  0.4833960000000  0.5675920000000  0.4859250000000 1.0
C      1  0.5628650000000  0.5080400000000  0.5585060000000 1.0
C      1  0.4729600000000  0.4398910000000  0.5215230000000 1.0
C      1  0.5136580000000  0.4318280000000  0.4746380000000 1.0
C      1  0.4886810000000  0.4849900000000  0.5526580000000 1.0
C      1  0.5344980000000  0.5307990000000  0.4491670000000 1.0
C      1  0.4207530000000  0.5004990000000  0.5071800000000 1.0
C      1  0.5554430000000  0.4652390000000  0.5253190000000 1.0
C      1  0.5561410000000  0.4618310000000  0.4954930000000 1.0
C      1  0.4647950000000  0.5056620000000  0.4757030000000 1.0
C      1  0.5185720000000  0.4238160000000  0.5021870000000 1.0
C      1  0.4207000000000  0.5234440000000  0.5232260000000 1.0
C      1  0.5403090000000  0.5304680000000  0.5585650000000 1.0
C      1  0.4891580000000  0.4676520000000  0.4908990000000 1.0
C      1  0.5392330000000  0.4392780000000  0.4870850000000 1.0
C      1  0.4562270000000  0.4808970000000  0.4611380000000 1.0
C      1  0.4668090000000  0.5523080000000  0.4674080000000 1.0
C      1  0.5120970000000  0.5499630000000  0.4527190000000 1.0
C      1  0.4885110000000  0.5192350000000  0.5574980000000 1.0
C      1  0.5375700000000  0.5012110000000  0.4409850000000 1.0
C      1  0.5074760000000  0.4849270000000  0.4772810000000 1.0
C      1  0.4507100000000  0.5312430000000  0.4799210000000 1.0
C      1  0.4930030000000  0.5094600000000  0.4861270000000 1.0
C      1  0.4872630000000  0.4456310000000  0.4717170000000 1.0
C      1  0.5619800000000  0.4867520000000  0.4516150000000 1.0
C      1  0.4742120000000  0.4614020000000  0.4484130000000 1.0
C      1  0.4641370000000  0.5348440000000  0.5526850000000 1.0
C      1  0.4782100000000  0.5209670000000  0.4330780000000 1.0
C      1  0.5125350000000  0.5345530000000  0.5513530000000 1.0
C      1  0.4396650000000  0.5384120000000  0.5067400000000 1.0
C      1  0.5000580000000  0.4606270000000  0.5684850000000 1.0
C      1  0.5261420000000  0.4682340000000  0.5317440000000 1.0
C      1  0.4410940000000  0.5167110000000  0.5457020000000 1.0
C      1  0.4567600000000  0.4412790000000  0.4969720000000 1.0
C      1  0.4430800000000  0.4603630000000  0.4799680000000 1.0
C      1  0.5702490000000  0.5336570000000  0.5139650000000 1.0
C      1  0.5160000000000  0.4830130000000  0.4486500000000 1.0
C      1  0.5663730000000  0.4847650000000  0.4806990000000 1.0
C      1  0.5501650000000  0.5282460000000  0.4715410000000 1.0
C      1  0.5648400000000  0.5150500000000  0.4899650000000 1.0
C      1  0.4751590000000  0.4963800000000  0.4275920000000 1.0
C      1  0.5114610000000  0.5657510000000  0.4769650000000 1.0
C      1  0.5080310000000  0.5444710000000  0.5210480000000 1.0
C      1  0.5094660000000  0.4926160000000  0.5316340000000 1.0
C      1  0.5647280000000  0.5331340000000  0.5433010000000 1.0
C      1  0.4592550000000  0.5499600000000  0.5262700000000 1.0
C      1  0.5621330000000  0.4855140000000  0.5428050000000 1.0
C      1  0.4840870000000  0.5459870000000  0.4439700000000 1.0
C      1  0.4936280000000  0.4749420000000  0.4312780000000 1.0
C      1  0.4636260000000  0.4789490000000  0.5119820000000 1.0
C      1  0.5044030000000  0.5146150000000  0.5125950000000 1.0
C      1  0.5542100000000  0.5534160000000  0.5026230000000 1.0
END
