TITL C-884132-5695-185 -12.6557381971936 125000 -22143.2930507751 0 0 148 (C1) n - 1
REM
REM in /home/nfs/bkarasulu/CARBON/AIRSS/Generating-Clusters/ReaxFF-fromJPCA2015/Units_Real/with-SteepDescent/Only-C1/SD-CG/Try1-3A/FIRE-CG
REM
REM
REM
REM
REM
REM ./C.cell (11c1c37f851c82e70ff6c80c92926a4b)
REM
REM compiler GCC version 9.2.1 20190827 (Red Hat 9.2.1-1)
REM options -cpp -mtune=generic -march=x86-64 -g -O0 -fpre-include=/usr/include/finclude/math-vector-fortran.h
REM seed -2018152897 -163083860 870959965 1852606413 907863271 303705103 -1106726355 420366023 174795188 1590453195 -300843759 1188427434 330276159 -122167180 2008029511 -49110534 -538657115 -893387747 -1886053861 -1883915869 -621559956 436559985 518991602 1478185272 529634609 -482790702 275958482 -1422786825 -1929935052 1284106152 -563091117 -1694660195 -108733780
REM
CELL 1.54180   50.00000   50.00000   50.00000   90.00000   90.00000   90.00000
LATT -1
SFAC C  
C      1  0.4385450000000  0.5256190000000  0.4961300000000 1.0
C      1  0.5181920000000  0.4699230000000  0.5957000000000 1.0
C      1  0.4006570000000  0.4945580000000  0.5297550000000 1.0
C      1  0.4319510000000  0.5055070000000  0.4499610000000 1.0
C      1  0.5150600000000  0.5644990000000  0.5651740000000 1.0
C      1  0.5668530000000  0.4182580000000  0.5052430000000 1.0
C      1  0.4914330000000  0.4184220000000  0.4886590000000 1.0
C      1  0.5553030000000  0.4953590000000  0.4914300000000 1.0
C      1  0.4437960000000  0.5375830000000  0.4118340000000 1.0
C      1  0.5403220000000  0.4575980000000  0.5807200000000 1.0
C      1  0.5475160000000  0.4952390000000  0.5436240000000 1.0
C      1  0.5890000000000  0.4825580000000  0.5474960000000 1.0
C      1  0.3960970000000  0.4673900000000  0.4847630000000 1.0
C      1  0.4837540000000  0.4961060000000  0.4374190000000 1.0
C      1  0.4701150000000  0.4537060000000  0.5183170000000 1.0
C      1  0.4225890000000  0.4221840000000  0.5112890000000 1.0
C      1  0.4106840000000  0.5387330000000  0.4830000000000 1.0
C      1  0.5842440000000  0.4549000000000  0.4772980000000 1.0
C      1  0.5787510000000  0.4769440000000  0.4346970000000 1.0
C      1  0.4443320000000  0.5692290000000  0.5350120000000 1.0
C      1  0.5075860000000  0.4175350000000  0.4640020000000 1.0
C      1  0.6028580000000  0.4956590000000  0.4995980000000 1.0
C      1  0.4726850000000  0.4098890000000  0.5300720000000 1.0
C      1  0.4906310000000  0.4638630000000  0.4067720000000 1.0
C      1  0.5231200000000  0.5286820000000  0.5192190000000 1.0
C      1  0.4748260000000  0.5184440000000  0.5422160000000 1.0
C      1  0.5614070000000  0.5802760000000  0.4638840000000 1.0
C      1  0.5377840000000  0.4686780000000  0.5538610000000 1.0
C      1  0.4227340000000  0.4836030000000  0.5442850000000 1.0
C      1  0.5363250000000  0.4238130000000  0.4646720000000 1.0
C      1  0.4694000000000  0.4791430000000  0.5276880000000 1.0
C      1  0.5432550000000  0.5897150000000  0.5364820000000 1.0
C      1  0.5644730000000  0.5441210000000  0.4982860000000 1.0
C      1  0.4429600000000  0.4584800000000  0.4759790000000 1.0
C      1  0.4247450000000  0.4570800000000  0.4391970000000 1.0
C      1  0.5169810000000  0.5158540000000  0.5690360000000 1.0
C      1  0.4776980000000  0.5458070000000  0.5350660000000 1.0
C      1  0.4481180000000  0.4452260000000  0.4271820000000 1.0
C      1  0.5211000000000  0.4748570000000  0.4615880000000 1.0
C      1  0.4433260000000  0.5186700000000  0.5799150000000 1.0
C      1  0.5809810000000  0.5357360000000  0.4754050000000 1.0
C      1  0.5182370000000  0.5798700000000  0.4318330000000 1.0
C      1  0.4950860000000  0.5360110000000  0.4179270000000 1.0
C      1  0.5149570000000  0.5158920000000  0.4116650000000 1.0
C      1  0.5206860000000  0.4786620000000  0.5064770000000 1.0
C      1  0.4635180000000  0.5850630000000  0.5184940000000 1.0
C      1  0.4813450000000  0.5079590000000  0.5941520000000 1.0
C      1  0.4992550000000  0.5641900000000  0.5413830000000 1.0
C      1  0.5005350000000  0.4909200000000  0.4145770000000 1.0
C      1  0.4760890000000  0.5209650000000  0.4327900000000 1.0
C      1  0.5398830000000  0.5190980000000  0.4294440000000 1.0
C      1  0.4638850000000  0.4286890000000  0.4457380000000 1.0
C      1  0.5037140000000  0.5683450000000  0.4682080000000 1.0
C      1  0.5129820000000  0.4574240000000  0.5460650000000 1.0
C      1  0.5047610000000  0.4406400000000  0.4185620000000 1.0
C      1  0.4436260000000  0.5207450000000  0.5506570000000 1.0
C      1  0.4069060000000  0.5145450000000  0.4625350000000 1.0
C      1  0.5490590000000  0.3928130000000  0.5085370000000 1.0
C      1  0.5353000000000  0.5473340000000  0.5003730000000 1.0
C      1  0.4615950000000  0.4629430000000  0.4075160000000 1.0
C      1  0.4419940000000  0.4850600000000  0.4037700000000 1.0
C      1  0.5474490000000  0.4222580000000  0.5423400000000 1.0
C      1  0.4476440000000  0.4104540000000  0.5169840000000 1.0
C      1  0.4673540000000  0.4370580000000  0.5422190000000 1.0
C      1  0.3881280000000  0.5382370000000  0.5066860000000 1.0
C      1  0.5775850000000  0.5461690000000  0.5563800000000 1.0
C      1  0.4545300000000  0.4313730000000  0.4739320000000 1.0
C      1  0.5406490000000  0.5757760000000  0.5617950000000 1.0
C      1  0.4712130000000  0.5733190000000  0.4386390000000 1.0
C      1  0.4238600000000  0.4548840000000  0.5519340000000 1.0
C      1  0.5597570000000  0.5562650000000  0.5754890000000 1.0
C      1  0.5249500000000  0.5222070000000  0.4578090000000 1.0
C      1  0.4910730000000  0.5032670000000  0.5645040000000 1.0
C      1  0.4607210000000  0.5592540000000  0.5565010000000 1.0
C      1  0.4261460000000  0.4841020000000  0.4289910000000 1.0
C      1  0.4764980000000  0.4818060000000  0.4607450000000 1.0
C      1  0.5378520000000  0.4289950000000  0.5700480000000 1.0
C      1  0.4827150000000  0.5023380000000  0.5203640000000 1.0
C      1  0.4261020000000  0.5627760000000  0.4813790000000 1.0
C      1  0.5086790000000  0.5043100000000  0.5101190000000 1.0
C      1  0.4557350000000  0.5292110000000  0.4501870000000 1.0
C      1  0.4501290000000  0.4486920000000  0.5636790000000 1.0
C      1  0.5656950000000  0.5844950000000  0.5176690000000 1.0
C      1  0.4920720000000  0.4251290000000  0.4402610000000 1.0
C      1  0.5962990000000  0.4671220000000  0.5016930000000 1.0
C      1  0.5703480000000  0.5536110000000  0.4544540000000 1.0
C      1  0.4911870000000  0.5887560000000  0.5285080000000 1.0
C      1  0.4645470000000  0.5392400000000  0.5009560000000 1.0
C      1  0.5478580000000  0.4344690000000  0.4897490000000 1.0
C      1  0.4584540000000  0.5869170000000  0.4879290000000 1.0
C      1  0.5318320000000  0.5191850000000  0.5450180000000 1.0
C      1  0.5927650000000  0.5065500000000  0.5263280000000 1.0
C      1  0.5764470000000  0.4507970000000  0.4490820000000 1.0
C      1  0.4491960000000  0.5542580000000  0.4335720000000 1.0
C      1  0.5541990000000  0.4900140000000  0.4269500000000 1.0
C      1  0.5522920000000  0.4343510000000  0.4426950000000 1.0
C      1  0.3980130000000  0.4688640000000  0.5145510000000 1.0
C      1  0.5209240000000  0.5692490000000  0.4894990000000 1.0
C      1  0.5980250000000  0.5115890000000  0.4753170000000 1.0
C      1  0.5139810000000  0.4545630000000  0.5163090000000 1.0
C      1  0.4753170000000  0.5303260000000  0.4753110000000 1.0
C      1  0.5916930000000  0.5385210000000  0.5355710000000 1.0
C      1  0.4426070000000  0.4832430000000  0.5224550000000 1.0
C      1  0.5427500000000  0.5688040000000  0.4220060000000 1.0
C      1  0.5294230000000  0.4964880000000  0.5931700000000 1.0
C      1  0.5103760000000  0.4275230000000  0.5619480000000 1.0
C      1  0.5855210000000  0.4983600000000  0.4529220000000 1.0
C      1  0.5140470000000  0.5426630000000  0.5845780000000 1.0
C      1  0.4599220000000  0.5439050000000  0.5821590000000 1.0
C      1  0.5724660000000  0.4814180000000  0.4734570000000 1.0
C      1  0.5438010000000  0.5884000000000  0.4425100000000 1.0
C      1  0.4852900000000  0.5364020000000  0.5943470000000 1.0
C      1  0.4418890000000  0.4972290000000  0.4975180000000 1.0
C      1  0.5315680000000  0.4995650000000  0.4741310000000 1.0
C      1  0.5458650000000  0.5348980000000  0.5896100000000 1.0
C      1  0.4492480000000  0.4852870000000  0.4718090000000 1.0
C      1  0.5817150000000  0.5594550000000  0.5170270000000 1.0
C      1  0.5867510000000  0.4594870000000  0.5287810000000 1.0
C      1  0.4486840000000  0.5646890000000  0.4880810000000 1.0
C      1  0.4905770000000  0.4628190000000  0.5854140000000 1.0
C      1  0.4613820000000  0.4661330000000  0.5851500000000 1.0
C      1  0.5716590000000  0.4334620000000  0.5299390000000 1.0
C      1  0.4952160000000  0.4662240000000  0.4722660000000 1.0
C      1  0.4165450000000  0.4484880000000  0.4684920000000 1.0
C      1  0.5694380000000  0.4915280000000  0.5668270000000 1.0
C      1  0.5399590000000  0.4586840000000  0.5033310000000 1.0
C      1  0.5328070000000  0.4719580000000  0.4345650000000 1.0
C      1  0.5562540000000  0.5074850000000  0.5890300000000 1.0
C      1  0.4923900000000  0.4738460000000  0.5585710000000 1.0
C      1  0.5188210000000  0.5986800000000  0.5226530000000 1.0
C      1  0.4119230000000  0.4462820000000  0.5269540000000 1.0
C      1  0.4285310000000  0.5415620000000  0.5372540000000 1.0
C      1  0.4893440000000  0.4482140000000  0.4971720000000 1.0
C      1  0.5571470000000  0.5918770000000  0.4908030000000 1.0
C      1  0.3985080000000  0.4917070000000  0.4741470000000 1.0
C      1  0.5283260000000  0.5948300000000  0.4956330000000 1.0
C      1  0.5273540000000  0.4047680000000  0.5242930000000 1.0
C      1  0.4556800000000  0.4945390000000  0.5922670000000 1.0
C      1  0.4985130000000  0.4065470000000  0.5143030000000 1.0
C      1  0.4035840000000  0.5251090000000  0.5266530000000 1.0
C      1  0.5643870000000  0.5009180000000  0.5176790000000 1.0
C      1  0.4780060000000  0.5823370000000  0.4653440000000 1.0
C      1  0.5332810000000  0.4447630000000  0.4228660000000 1.0
C      1  0.4951670000000  0.5643390000000  0.4249720000000 1.0
C      1  0.4276430000000  0.4215370000000  0.4822880000000 1.0
C      1  0.5018570000000  0.5381000000000  0.4659390000000 1.0
C      1  0.5563910000000  0.5449870000000  0.4305640000000 1.0
C      1  0.4418680000000  0.5130830000000  0.4033520000000 1.0
END
