TITL C-883735-9890-235 15.8029945268301 125000 -24601.7253897388 0 0 165 (C1) n - 1
REM
REM in /home/nfs/bkarasulu/CARBON/AIRSS/Generating-Clusters/ReaxFF-fromJPCA2015/Units_Real/with-SteepDescent/Only-C1/SD-CG/Try1-3A/FIRE-CG
REM
REM
REM
REM
REM
REM ./C.cell (11c1c37f851c82e70ff6c80c92926a4b)
REM
REM compiler GCC version 9.2.1 20190827 (Red Hat 9.2.1-1)
REM options -cpp -mtune=generic -march=x86-64 -g -O0 -fpre-include=/usr/include/finclude/math-vector-fortran.h
REM seed -398855503 924431140 -522681086 -276102696 420127227 -1553532573 1433112830 -1066392032 -595263318 -518469838 -759598167 -280464537 1383687012 2033939003 462181456 1682608652 1809056791 -976867100 152687457 1034848898 1058560011 -1565690069 1274564038 948660045 1437854810 -1805816697 -1503162498 -91327814 630870995 -1679248196 -1681058588 1139153136 -1801812599
REM
CELL 1.54180   50.00000   50.00000   50.00000   90.00000   90.00000   90.00000
LATT -1
SFAC C  
C      1  0.4276360000000  0.4277610000000  0.5202490000000 1.0
C      1  0.5770070000000  0.5642010000000  0.5221400000000 1.0
C      1  0.4250080000000  0.4459520000000  0.5435180000000 1.0
C      1  0.4596960000000  0.5558450000000  0.5860210000000 1.0
C      1  0.4552230000000  0.4752160000000  0.4279320000000 1.0
C      1  0.5946680000000  0.5341350000000  0.5524030000000 1.0
C      1  0.5027710000000  0.4068370000000  0.4613750000000 1.0
C      1  0.5139720000000  0.4343200000000  0.5846680000000 1.0
C      1  0.5045200000000  0.4468120000000  0.4949870000000 1.0
C      1  0.4727880000000  0.5168540000000  0.5947980000000 1.0
C      1  0.5139740000000  0.5912960000000  0.5575950000000 1.0
C      1  0.5202620000000  0.4595340000000  0.6007660000000 1.0
C      1  0.5393790000000  0.5821000000000  0.5016620000000 1.0
C      1  0.5323300000000  0.4069860000000  0.4686750000000 1.0
C      1  0.3929230000000  0.4759080000000  0.4749240000000 1.0
C      1  0.5143420000000  0.5794840000000  0.5343430000000 1.0
C      1  0.5991820000000  0.5448160000000  0.5255200000000 1.0
C      1  0.4904490000000  0.4664120000000  0.5989750000000 1.0
C      1  0.4857200000000  0.5930400000000  0.5616930000000 1.0
C      1  0.4723900000000  0.4985140000000  0.5007880000000 1.0
C      1  0.4797570000000  0.4576630000000  0.4910630000000 1.0
C      1  0.5802820000000  0.5404850000000  0.4536730000000 1.0
C      1  0.4089260000000  0.5152240000000  0.4597210000000 1.0
C      1  0.4518450000000  0.5491460000000  0.5343730000000 1.0
C      1  0.6061550000000  0.4866130000000  0.5161470000000 1.0
C      1  0.5817880000000  0.5571560000000  0.5623680000000 1.0
C      1  0.4079020000000  0.5184070000000  0.5528580000000 1.0
C      1  0.4557120000000  0.4527480000000  0.4993320000000 1.0
C      1  0.4851020000000  0.4223820000000  0.4432150000000 1.0
C      1  0.4530120000000  0.4936650000000  0.5421510000000 1.0
C      1  0.5583960000000  0.5080870000000  0.4773950000000 1.0
C      1  0.4907120000000  0.5684340000000  0.4046700000000 1.0
C      1  0.3998790000000  0.4566480000000  0.4963150000000 1.0
C      1  0.5817480000000  0.4345510000000  0.5053700000000 1.0
C      1  0.4911350000000  0.4390220000000  0.4199070000000 1.0
C      1  0.4344420000000  0.4397830000000  0.5706470000000 1.0
C      1  0.4061760000000  0.5236880000000  0.4894670000000 1.0
C      1  0.4695730000000  0.5645840000000  0.5212690000000 1.0
C      1  0.6024770000000  0.4702990000000  0.5382920000000 1.0
C      1  0.4484660000000  0.5760130000000  0.5670620000000 1.0
C      1  0.5921220000000  0.5479680000000  0.4795440000000 1.0
C      1  0.5573130000000  0.5855400000000  0.4790380000000 1.0
C      1  0.4499310000000  0.5000550000000  0.4807730000000 1.0
C      1  0.5563170000000  0.4781760000000  0.4192130000000 1.0
C      1  0.4414540000000  0.5267010000000  0.4247790000000 1.0
C      1  0.4452740000000  0.5859010000000  0.4959640000000 1.0
C      1  0.4782800000000  0.4854670000000  0.5549430000000 1.0
C      1  0.4760090000000  0.4068210000000  0.5043270000000 1.0
C      1  0.5196740000000  0.4430120000000  0.4115340000000 1.0
C      1  0.4249230000000  0.4644200000000  0.5813150000000 1.0
C      1  0.5505470000000  0.4589320000000  0.4761740000000 1.0
C      1  0.5043450000000  0.5092840000000  0.5269370000000 1.0
C      1  0.4486370000000  0.5721650000000  0.4490450000000 1.0
C      1  0.5132680000000  0.5816420000000  0.4579290000000 1.0
C      1  0.5322870000000  0.4382860000000  0.4339770000000 1.0
C      1  0.5786830000000  0.5108400000000  0.4479760000000 1.0
C      1  0.4801300000000  0.4898240000000  0.5843280000000 1.0
C      1  0.5424420000000  0.4012360000000  0.4954330000000 1.0
C      1  0.5747500000000  0.5111650000000  0.5496570000000 1.0
C      1  0.4176950000000  0.5724740000000  0.4969810000000 1.0
C      1  0.4608460000000  0.5870850000000  0.4714420000000 1.0
C      1  0.5899250000000  0.4443170000000  0.5313030000000 1.0
C      1  0.5178270000000  0.5048150000000  0.4467320000000 1.0
C      1  0.4096960000000  0.5439650000000  0.5379560000000 1.0
C      1  0.5296850000000  0.5123380000000  0.4719360000000 1.0
C      1  0.4572110000000  0.4241270000000  0.5190670000000 1.0
C      1  0.3896720000000  0.4982680000000  0.4946120000000 1.0
C      1  0.5572090000000  0.4149870000000  0.4536760000000 1.0
C      1  0.4720180000000  0.4574140000000  0.4089530000000 1.0
C      1  0.5386010000000  0.4807620000000  0.5975700000000 1.0
C      1  0.4721710000000  0.4980620000000  0.4624010000000 1.0
C      1  0.4904350000000  0.5400840000000  0.4791000000000 1.0
C      1  0.4896870000000  0.5467700000000  0.3881070000000 1.0
C      1  0.4883420000000  0.5206630000000  0.3786910000000 1.0
C      1  0.5053120000000  0.5545250000000  0.4548520000000 1.0
C      1  0.5582350000000  0.5231620000000  0.5243970000000 1.0
C      1  0.5577080000000  0.4186720000000  0.5134100000000 1.0
C      1  0.5016680000000  0.4445070000000  0.5447240000000 1.0
C      1  0.5497220000000  0.5327670000000  0.4202020000000 1.0
C      1  0.4684760000000  0.5009700000000  0.3894130000000 1.0
C      1  0.5765690000000  0.4386560000000  0.4539840000000 1.0
C      1  0.4596580000000  0.5441360000000  0.4439540000000 1.0
C      1  0.4315470000000  0.5615360000000  0.5471030000000 1.0
C      1  0.4986850000000  0.5571820000000  0.5260380000000 1.0
C      1  0.5887190000000  0.4480710000000  0.4794690000000 1.0
C      1  0.6033570000000  0.5301090000000  0.4993990000000 1.0
C      1  0.4864860000000  0.5436170000000  0.5921570000000 1.0
C      1  0.4467710000000  0.5296710000000  0.5889650000000 1.0
C      1  0.5080680000000  0.3850290000000  0.5370350000000 1.0
C      1  0.4297710000000  0.4758130000000  0.5405990000000 1.0
C      1  0.5568590000000  0.5523980000000  0.4416170000000 1.0
C      1  0.4841770000000  0.4765140000000  0.3906690000000 1.0
C      1  0.6086990000000  0.5005310000000  0.4949580000000 1.0
C      1  0.5014910000000  0.4204550000000  0.5074910000000 1.0
C      1  0.4409760000000  0.5252960000000  0.4923320000000 1.0
C      1  0.5755230000000  0.4633440000000  0.4366660000000 1.0
C      1  0.5246760000000  0.5313420000000  0.4046520000000 1.0
C      1  0.5424460000000  0.5753190000000  0.4555270000000 1.0
C      1  0.5058920000000  0.5208660000000  0.4248610000000 1.0
C      1  0.5586620000000  0.5674090000000  0.5713810000000 1.0
C      1  0.4903430000000  0.5938190000000  0.4750340000000 1.0
C      1  0.4206310000000  0.5172190000000  0.5796280000000 1.0
C      1  0.6009310000000  0.4748670000000  0.4760150000000 1.0
C      1  0.4903910000000  0.5465780000000  0.4309430000000 1.0
C      1  0.4726320000000  0.4718000000000  0.5158740000000 1.0
C      1  0.5145500000000  0.5001390000000  0.4954370000000 1.0
C      1  0.5920860000000  0.4829030000000  0.4502500000000 1.0
C      1  0.3921450000000  0.4796370000000  0.5165830000000 1.0
C      1  0.4207040000000  0.5636270000000  0.4481550000000 1.0
C      1  0.5254570000000  0.5301840000000  0.5992180000000 1.0
C      1  0.5146690000000  0.5116970000000  0.3861610000000 1.0
C      1  0.5680970000000  0.4427370000000  0.5512720000000 1.0
C      1  0.4777360000000  0.5162150000000  0.5203840000000 1.0
C      1  0.4847400000000  0.4390460000000  0.5897530000000 1.0
C      1  0.5493650000000  0.4223220000000  0.4282240000000 1.0
C      1  0.4764830000000  0.4255670000000  0.5465070000000 1.0
C      1  0.5202300000000  0.3990230000000  0.5149940000000 1.0
C      1  0.4508990000000  0.5227670000000  0.5259050000000 1.0
C      1  0.4043540000000  0.5754670000000  0.4702520000000 1.0
C      1  0.4069580000000  0.5475520000000  0.5091250000000 1.0
C      1  0.5177840000000  0.5982360000000  0.5171350000000 1.0
C      1  0.5128040000000  0.4837850000000  0.3914260000000 1.0
C      1  0.4458670000000  0.4537500000000  0.4716640000000 1.0
C      1  0.4357740000000  0.4302900000000  0.4680120000000 1.0
C      1  0.4775290000000  0.3980810000000  0.4762710000000 1.0
C      1  0.5818280000000  0.4829880000000  0.5557530000000 1.0
C      1  0.5488430000000  0.4239710000000  0.5416510000000 1.0
C      1  0.5606380000000  0.4813060000000  0.4906170000000 1.0
C      1  0.5789020000000  0.5709730000000  0.4931860000000 1.0
C      1  0.5313440000000  0.4572740000000  0.4553670000000 1.0
C      1  0.4622300000000  0.5964990000000  0.5511360000000 1.0
C      1  0.4179780000000  0.5343470000000  0.4401520000000 1.0
C      1  0.4177340000000  0.4339420000000  0.4935670000000 1.0
C      1  0.5560060000000  0.5313280000000  0.4972990000000 1.0
C      1  0.4911860000000  0.5088570000000  0.4812530000000 1.0
C      1  0.5092310000000  0.5327770000000  0.5417730000000 1.0
C      1  0.4604430000000  0.4152300000000  0.4598680000000 1.0
C      1  0.4923780000000  0.6009840000000  0.5020470000000 1.0
C      1  0.5353270000000  0.5536250000000  0.4960500000000 1.0
C      1  0.5574510000000  0.4687150000000  0.5630310000000 1.0
C      1  0.5321120000000  0.4686940000000  0.4055850000000 1.0
C      1  0.5092090000000  0.4767380000000  0.4542840000000 1.0
C      1  0.5524530000000  0.5497840000000  0.5339290000000 1.0
C      1  0.4629410000000  0.4317260000000  0.5716690000000 1.0
C      1  0.5404740000000  0.4633780000000  0.5017400000000 1.0
C      1  0.5075120000000  0.5499020000000  0.4995570000000 1.0
C      1  0.5436670000000  0.5113610000000  0.5636240000000 1.0
C      1  0.4348000000000  0.4678630000000  0.4512900000000 1.0
C      1  0.5619470000000  0.5066430000000  0.4235120000000 1.0
C      1  0.4216150000000  0.4899410000000  0.5822800000000 1.0
C      1  0.4801460000000  0.4766310000000  0.4461740000000 1.0
C      1  0.5169990000000  0.4716660000000  0.4918330000000 1.0
C      1  0.4656990000000  0.5938500000000  0.5173670000000 1.0
C      1  0.5144310000000  0.5541580000000  0.5953310000000 1.0
C      1  0.4876000000000  0.3942730000000  0.5515630000000 1.0
C      1  0.5431550000000  0.5087730000000  0.5956610000000 1.0
C      1  0.4051150000000  0.4917700000000  0.5398170000000 1.0
C      1  0.4123330000000  0.4861430000000  0.4554240000000 1.0
C      1  0.5060400000000  0.4739270000000  0.5466440000000 1.0
C      1  0.5315220000000  0.5725020000000  0.5766650000000 1.0
C      1  0.4504550000000  0.5025920000000  0.4120080000000 1.0
C      1  0.4598190000000  0.5396480000000  0.4742520000000 1.0
C      1  0.5339660000000  0.5385840000000  0.5545040000000 1.0
C      1  0.5327590000000  0.4840010000000  0.5559230000000 1.0
C      1  0.5232660000000  0.4292470000000  0.5567950000000 1.0
END
