TITL C-883735-9890-369 74.5520099205277 125000 -25155.574899619 0 0 166 (C1) n - 1
REM
REM in /home/nfs/bkarasulu/CARBON/AIRSS/Generating-Clusters/ReaxFF-fromJPCA2015/Units_Real/with-SteepDescent/Only-C1/SD-CG/Try1-3A/FIRE-CG
REM
REM
REM
REM
REM
REM ./C.cell (11c1c37f851c82e70ff6c80c92926a4b)
REM
REM compiler GCC version 9.2.1 20190827 (Red Hat 9.2.1-1)
REM options -cpp -mtune=generic -march=x86-64 -g -O0 -fpre-include=/usr/include/finclude/math-vector-fortran.h
REM seed 911332128 209113339 1097360602 -1738719424 -884146110 -1856346004 1976641669 -1422766951 1921269757 -1346249497 1092860182 1006029365 1686949661 -1742398894 -159872357 1116525541 -879302971 1619136739 -989230764 532522634 1411735650 -582919199 931056746 -789066844 -2004442108 -2130497984 -2142723558 -1403856455 -459336744 -1852333754 100847494 2008291750 -206390660
REM
CELL 1.54180   50.00000   50.00000   50.00000   90.00000   90.00000   90.00000
LATT -1
SFAC C  
C      1  0.5188780000000  0.5092790000000  0.6071410000000 1.0
C      1  0.5516730000000  0.4934590000000  0.4604650000000 1.0
C      1  0.5929630000000  0.5106240000000  0.4561500000000 1.0
C      1  0.5099470000000  0.3800660000000  0.4704390000000 1.0
C      1  0.5384300000000  0.5261030000000  0.5954900000000 1.0
C      1  0.5364540000000  0.5878570000000  0.4531940000000 1.0
C      1  0.4973190000000  0.6121860000000  0.4976170000000 1.0
C      1  0.4652040000000  0.5301840000000  0.5298350000000 1.0
C      1  0.4475620000000  0.5390770000000  0.5829890000000 1.0
C      1  0.5780240000000  0.4499660000000  0.4755350000000 1.0
C      1  0.6109070000000  0.5045490000000  0.5128700000000 1.0
C      1  0.4952840000000  0.4454260000000  0.4651290000000 1.0
C      1  0.4597510000000  0.5461110000000  0.4093530000000 1.0
C      1  0.5360100000000  0.5941340000000  0.5121030000000 1.0
C      1  0.5323930000000  0.4343210000000  0.4797770000000 1.0
C      1  0.5152530000000  0.4567440000000  0.5992790000000 1.0
C      1  0.5401770000000  0.3978280000000  0.5488130000000 1.0
C      1  0.4708400000000  0.4111860000000  0.5524860000000 1.0
C      1  0.4670330000000  0.4280550000000  0.5732240000000 1.0
C      1  0.4051200000000  0.4966880000000  0.4443540000000 1.0
C      1  0.5841650000000  0.5278150000000  0.5650280000000 1.0
C      1  0.4796800000000  0.4211850000000  0.4316140000000 1.0
C      1  0.5160920000000  0.5436660000000  0.5088690000000 1.0
C      1  0.4777190000000  0.4940980000000  0.4791180000000 1.0
C      1  0.5092810000000  0.4328520000000  0.5265800000000 1.0
C      1  0.4394310000000  0.5843270000000  0.4367400000000 1.0
C      1  0.5754500000000  0.5002410000000  0.5466030000000 1.0
C      1  0.4583180000000  0.4975380000000  0.4994490000000 1.0
C      1  0.5012110000000  0.4139140000000  0.5459450000000 1.0
C      1  0.6179470000000  0.5435430000000  0.4801600000000 1.0
C      1  0.5598700000000  0.5473440000000  0.4316460000000 1.0
C      1  0.4636840000000  0.4452330000000  0.5941220000000 1.0
C      1  0.5270490000000  0.6155650000000  0.4966180000000 1.0
C      1  0.5071480000000  0.3935520000000  0.4469770000000 1.0
C      1  0.5474320000000  0.5065740000000  0.4102340000000 1.0
C      1  0.4775550000000  0.5334430000000  0.5832820000000 1.0
C      1  0.3966130000000  0.4614080000000  0.5099140000000 1.0
C      1  0.4225520000000  0.4561680000000  0.5649800000000 1.0
C      1  0.5062340000000  0.4953870000000  0.4321190000000 1.0
C      1  0.5423770000000  0.3847840000000  0.5109180000000 1.0
C      1  0.4582930000000  0.5902960000000  0.5236530000000 1.0
C      1  0.5079020000000  0.5778100000000  0.4536940000000 1.0
C      1  0.4848070000000  0.5430750000000  0.5126680000000 1.0
C      1  0.5004030000000  0.5200640000000  0.3935900000000 1.0
C      1  0.5453550000000  0.4370170000000  0.5054830000000 1.0
C      1  0.5488720000000  0.4445880000000  0.4239150000000 1.0
C      1  0.3989690000000  0.5360390000000  0.4725310000000 1.0
C      1  0.4580050000000  0.4990600000000  0.4091090000000 1.0
C      1  0.4252150000000  0.4344710000000  0.5444650000000 1.0
C      1  0.4646690000000  0.5983850000000  0.4735870000000 1.0
C      1  0.4147480000000  0.5641790000000  0.5168790000000 1.0
C      1  0.5056180000000  0.4087450000000  0.4236980000000 1.0
C      1  0.4197130000000  0.5751560000000  0.4916870000000 1.0
C      1  0.3995990000000  0.4634810000000  0.4807470000000 1.0
C      1  0.4481490000000  0.4196120000000  0.5356980000000 1.0
C      1  0.5833520000000  0.5835100000000  0.4592900000000 1.0
C      1  0.5171590000000  0.5597200000000  0.5645000000000 1.0
C      1  0.4713890000000  0.5212000000000  0.3973220000000 1.0
C      1  0.3936400000000  0.4901610000000  0.4701280000000 1.0
C      1  0.5723400000000  0.4416920000000  0.5524490000000 1.0
C      1  0.5303000000000  0.4353740000000  0.5841410000000 1.0
C      1  0.5596820000000  0.3960390000000  0.5286360000000 1.0
C      1  0.4920920000000  0.5589080000000  0.5765290000000 1.0
C      1  0.4542010000000  0.5795620000000  0.5510660000000 1.0
C      1  0.5705540000000  0.4633990000000  0.4283330000000 1.0
C      1  0.5197550000000  0.4877170000000  0.5075020000000 1.0
C      1  0.4269050000000  0.5276530000000  0.4701630000000 1.0
C      1  0.5631870000000  0.4741030000000  0.4833580000000 1.0
C      1  0.4589080000000  0.4785770000000  0.5217030000000 1.0
C      1  0.4193180000000  0.5503290000000  0.5412930000000 1.0
C      1  0.5891970000000  0.5793830000000  0.5005270000000 1.0
C      1  0.4904890000000  0.5130980000000  0.6024830000000 1.0
C      1  0.4754460000000  0.4888280000000  0.6057380000000 1.0
C      1  0.4929060000000  0.5957430000000  0.4748140000000 1.0
C      1  0.4358540000000  0.5309990000000  0.5269130000000 1.0
C      1  0.5308240000000  0.4805380000000  0.6064480000000 1.0
C      1  0.5214100000000  0.4560630000000  0.4642590000000 1.0
C      1  0.4344460000000  0.5134460000000  0.5870160000000 1.0
C      1  0.6028900000000  0.4847130000000  0.4659220000000 1.0
C      1  0.5897890000000  0.4617490000000  0.4515400000000 1.0
C      1  0.5846330000000  0.5524830000000  0.5456890000000 1.0
C      1  0.4840310000000  0.4723730000000  0.5344670000000 1.0
C      1  0.5712340000000  0.5306610000000  0.4553890000000 1.0
C      1  0.5558940000000  0.5381720000000  0.5779680000000 1.0
C      1  0.4524830000000  0.4939260000000  0.5493720000000 1.0
C      1  0.5414740000000  0.5347420000000  0.4139110000000 1.0
C      1  0.5535500000000  0.4391040000000  0.5701400000000 1.0
C      1  0.3921210000000  0.5131510000000  0.4891760000000 1.0
C      1  0.5364320000000  0.5267100000000  0.5299020000000 1.0
C      1  0.4947860000000  0.4452260000000  0.4359240000000 1.0
C      1  0.4336370000000  0.5077440000000  0.4907200000000 1.0
C      1  0.5534870000000  0.4815210000000  0.5898210000000 1.0
C      1  0.6089290000000  0.4809640000000  0.4956290000000 1.0
C      1  0.5586020000000  0.5068000000000  0.5233530000000 1.0
C      1  0.4960610000000  0.5982110000000  0.5483590000000 1.0
C      1  0.4840830000000  0.5611740000000  0.4141320000000 1.0
C      1  0.4871380000000  0.5825540000000  0.4320350000000 1.0
C      1  0.4627360000000  0.4712760000000  0.4147240000000 1.0
C      1  0.4392410000000  0.4574840000000  0.4284930000000 1.0
C      1  0.4605920000000  0.4529080000000  0.5010910000000 1.0
C      1  0.4257530000000  0.4819700000000  0.4333760000000 1.0
C      1  0.5497400000000  0.4111710000000  0.4734570000000 1.0
C      1  0.4628520000000  0.4067540000000  0.4786970000000 1.0
C      1  0.5192790000000  0.5007380000000  0.4040590000000 1.0
C      1  0.5612600000000  0.4905190000000  0.4307820000000 1.0
C      1  0.4880040000000  0.4710340000000  0.4263550000000 1.0
C      1  0.4213750000000  0.4268170000000  0.4959740000000 1.0
C      1  0.5756020000000  0.4210680000000  0.4824290000000 1.0
C      1  0.4791770000000  0.5826670000000  0.5660560000000 1.0
C      1  0.5876660000000  0.4418090000000  0.5295340000000 1.0
C      1  0.4168030000000  0.4413250000000  0.4714340000000 1.0
C      1  0.5231700000000  0.4924040000000  0.5548750000000 1.0
C      1  0.4275160000000  0.5022280000000  0.5603420000000 1.0
C      1  0.5994170000000  0.4887040000000  0.5348640000000 1.0
C      1  0.4741690000000  0.5391480000000  0.4663070000000 1.0
C      1  0.5722860000000  0.4222740000000  0.5123750000000 1.0
C      1  0.4500680000000  0.5052660000000  0.4367840000000 1.0
C      1  0.4115810000000  0.5095840000000  0.5121250000000 1.0
C      1  0.4509960000000  0.4241710000000  0.5041400000000 1.0
C      1  0.5510560000000  0.4869310000000  0.5639840000000 1.0
C      1  0.4749840000000  0.4614180000000  0.4793600000000 1.0
C      1  0.5032400000000  0.5432060000000  0.4580390000000 1.0
C      1  0.5371690000000  0.3859260000000  0.4838850000000 1.0
C      1  0.4681090000000  0.5528510000000  0.4912200000000 1.0
C      1  0.4873090000000  0.4620140000000  0.6029760000000 1.0
C      1  0.4090770000000  0.4798850000000  0.5542020000000 1.0
C      1  0.5281060000000  0.4289330000000  0.4214230000000 1.0
C      1  0.4516040000000  0.5801950000000  0.4950610000000 1.0
C      1  0.5508670000000  0.4830090000000  0.5083050000000 1.0
C      1  0.5222900000000  0.4109580000000  0.5670400000000 1.0
C      1  0.5222710000000  0.5299210000000  0.4811350000000 1.0
C      1  0.5452170000000  0.6064110000000  0.4742070000000 1.0
C      1  0.5358380000000  0.5403720000000  0.5571830000000 1.0
C      1  0.5200420000000  0.5814150000000  0.5473270000000 1.0
C      1  0.4629920000000  0.5968320000000  0.4436670000000 1.0
C      1  0.5992340000000  0.4654760000000  0.5193050000000 1.0
C      1  0.4333230000000  0.5463170000000  0.4233380000000 1.0
C      1  0.4747200000000  0.5124730000000  0.5548890000000 1.0
C      1  0.4378330000000  0.5587370000000  0.5636880000000 1.0
C      1  0.4467090000000  0.4890000000000  0.5979610000000 1.0
C      1  0.4025170000000  0.4841720000000  0.5264800000000 1.0
C      1  0.4266500000000  0.5218350000000  0.4411200000000 1.0
C      1  0.5032320000000  0.4608340000000  0.5169660000000 1.0
C      1  0.4186480000000  0.5669740000000  0.4386970000000 1.0
C      1  0.5722670000000  0.5970320000000  0.4824720000000 1.0
C      1  0.5492400000000  0.5218400000000  0.4715880000000 1.0
C      1  0.4396880000000  0.4626770000000  0.5876660000000 1.0
C      1  0.4940630000000  0.4884700000000  0.5562400000000 1.0
C      1  0.6046300000000  0.5709560000000  0.4770040000000 1.0
C      1  0.5185140000000  0.5051910000000  0.5294900000000 1.0
C      1  0.5309260000000  0.4514230000000  0.5255820000000 1.0
C      1  0.4830150000000  0.3871710000000  0.4838850000000 1.0
C      1  0.5222020000000  0.4849670000000  0.4602980000000 1.0
C      1  0.5095970000000  0.4997140000000  0.4828490000000 1.0
C      1  0.4070500000000  0.5636980000000  0.4677890000000 1.0
C      1  0.4824410000000  0.6053370000000  0.5233140000000 1.0
C      1  0.5598860000000  0.5745570000000  0.4428990000000 1.0
C      1  0.4369190000000  0.4375630000000  0.4497010000000 1.0
C      1  0.6074670000000  0.5331620000000  0.5056870000000 1.0
C      1  0.4583690000000  0.4179460000000  0.4517570000000 1.0
C      1  0.5087380000000  0.5403470000000  0.4119130000000 1.0
C      1  0.4679730000000  0.5119170000000  0.4591060000000 1.0
C      1  0.4084820000000  0.4363220000000  0.5198230000000 1.0
C      1  0.5280270000000  0.5692950000000  0.5207560000000 1.0
C      1  0.5039520000000  0.5251010000000  0.4355770000000 1.0
C      1  0.5902750000000  0.5554240000000  0.5182440000000 1.0
END
