TITL C-884131-4643-209 15.9319773703712 125000 -29068.7717133895 0 0 196 (C1) n - 1
REM
REM in /home/nfs/bkarasulu/CARBON/AIRSS/Generating-Clusters/ReaxFF-fromJPCA2015/Units_Real/with-SteepDescent/Only-C1/SD-CG/Try1-3A/FIRE-CG
REM
REM
REM
REM
REM
REM ./C.cell (11c1c37f851c82e70ff6c80c92926a4b)
REM
REM compiler GCC version 9.2.1 20190827 (Red Hat 9.2.1-1)
REM options -cpp -mtune=generic -march=x86-64 -g -O0 -fpre-include=/usr/include/finclude/math-vector-fortran.h
REM seed -335668694 983743295 1123877878 1547435833 -1178083908 -1723927554 427906664 1400378981 1249932632 -890526697 1002933713 374309773 610533804 1042346700 -1175400556 505464753 1209171001 -735932556 2081450015 -736849583 -1946974119 -1042088726 -1029324226 -530519411 940467527 -1013873094 -1495105126 430781630 -690495491 1903094606 -810513692 2133484613 -307404490
REM
CELL 1.54180   50.00000   50.00000   50.00000   90.00000   90.00000   90.00000
LATT -1
SFAC C  
C      1  0.5133780000000  0.4549470000000  0.4669700000000 1.0
C      1  0.4975280000000  0.4571650000000  0.5087460000000 1.0
C      1  0.5053050000000  0.4779440000000  0.4527950000000 1.0
C      1  0.5264790000000  0.5838490000000  0.5433310000000 1.0
C      1  0.5633700000000  0.4724220000000  0.5081070000000 1.0
C      1  0.5591440000000  0.5129820000000  0.4449040000000 1.0
C      1  0.4588380000000  0.5250750000000  0.5858950000000 1.0
C      1  0.4611620000000  0.5270930000000  0.4165950000000 1.0
C      1  0.4889340000000  0.4836290000000  0.4049790000000 1.0
C      1  0.6058340000000  0.5119360000000  0.5185330000000 1.0
C      1  0.5222640000000  0.5740630000000  0.4854760000000 1.0
C      1  0.4361800000000  0.5102950000000  0.4106630000000 1.0
C      1  0.4358140000000  0.4938110000000  0.5163170000000 1.0
C      1  0.4991050000000  0.4380150000000  0.4881710000000 1.0
C      1  0.5098130000000  0.4148500000000  0.4328800000000 1.0
C      1  0.4911190000000  0.4392020000000  0.5916160000000 1.0
C      1  0.5663880000000  0.4890530000000  0.5733310000000 1.0
C      1  0.5672940000000  0.4426050000000  0.5846010000000 1.0
C      1  0.5192880000000  0.4282650000000  0.4077800000000 1.0
C      1  0.5028460000000  0.4749620000000  0.5667290000000 1.0
C      1  0.4936740000000  0.4351410000000  0.3994200000000 1.0
C      1  0.4825300000000  0.5968740000000  0.5187200000000 1.0
C      1  0.5107380000000  0.5785860000000  0.4387150000000 1.0
C      1  0.4575890000000  0.5538490000000  0.4583750000000 1.0
C      1  0.5571760000000  0.5565680000000  0.4233810000000 1.0
C      1  0.5369590000000  0.5984130000000  0.4799940000000 1.0
C      1  0.4442510000000  0.4827910000000  0.4058810000000 1.0
C      1  0.3930320000000  0.5203870000000  0.5201720000000 1.0
C      1  0.5029090000000  0.3906830000000  0.5342970000000 1.0
C      1  0.4261600000000  0.4715030000000  0.5010540000000 1.0
C      1  0.4893510000000  0.5689500000000  0.5728880000000 1.0
C      1  0.4051980000000  0.5356320000000  0.5420330000000 1.0
C      1  0.4238560000000  0.4310520000000  0.4555680000000 1.0
C      1  0.4198850000000  0.4016770000000  0.5406630000000 1.0
C      1  0.4326680000000  0.5472720000000  0.5435960000000 1.0
C      1  0.5721000000000  0.4398640000000  0.5562520000000 1.0
C      1  0.4808250000000  0.3923840000000  0.5178750000000 1.0
C      1  0.5704090000000  0.5152720000000  0.5848490000000 1.0
C      1  0.4396800000000  0.4713080000000  0.4767360000000 1.0
C      1  0.5660720000000  0.5407650000000  0.4006780000000 1.0
C      1  0.4782090000000  0.4757020000000  0.5055160000000 1.0
C      1  0.5024960000000  0.5219480000000  0.5104610000000 1.0
C      1  0.4428540000000  0.4352940000000  0.4139690000000 1.0
C      1  0.5506460000000  0.5545670000000  0.5898740000000 1.0
C      1  0.4975710000000  0.5296740000000  0.5562810000000 1.0
C      1  0.4971660000000  0.5491800000000  0.5201990000000 1.0
C      1  0.4805040000000  0.4889880000000  0.5527260000000 1.0
C      1  0.5030800000000  0.6198450000000  0.4335160000000 1.0
C      1  0.5358050000000  0.4414170000000  0.5187700000000 1.0
C      1  0.4913390000000  0.4161050000000  0.5737530000000 1.0
C      1  0.5891070000000  0.4344990000000  0.4540070000000 1.0
C      1  0.5733330000000  0.5727340000000  0.4968640000000 1.0
C      1  0.4745920000000  0.5635270000000  0.5088560000000 1.0
C      1  0.5788780000000  0.5765660000000  0.4688660000000 1.0
C      1  0.5244150000000  0.4351900000000  0.4474240000000 1.0
C      1  0.6002990000000  0.4598630000000  0.4637490000000 1.0
C      1  0.5916820000000  0.4436190000000  0.5136320000000 1.0
C      1  0.4977660000000  0.5553150000000  0.5960610000000 1.0
C      1  0.4786630000000  0.5551870000000  0.4782900000000 1.0
C      1  0.4064840000000  0.5277600000000  0.5698520000000 1.0
C      1  0.5403250000000  0.5325300000000  0.4811160000000 1.0
C      1  0.4544800000000  0.5696490000000  0.4341540000000 1.0
C      1  0.5118160000000  0.3846250000000  0.4777000000000 1.0
C      1  0.4252700000000  0.5966740000000  0.5564020000000 1.0
C      1  0.4961350000000  0.5667940000000  0.4123370000000 1.0
C      1  0.4632630000000  0.6051730000000  0.4957640000000 1.0
C      1  0.5589330000000  0.4605370000000  0.4810610000000 1.0
C      1  0.5216510000000  0.5141300000000  0.6044060000000 1.0
C      1  0.4260680000000  0.4495890000000  0.5525730000000 1.0
C      1  0.4713920000000  0.4201290000000  0.5304530000000 1.0
C      1  0.4043550000000  0.4807900000000  0.5448900000000 1.0
C      1  0.5542750000000  0.5176550000000  0.3881990000000 1.0
C      1  0.4511900000000  0.4962550000000  0.5885950000000 1.0
C      1  0.5702710000000  0.4344220000000  0.4303790000000 1.0
C      1  0.4166860000000  0.5256620000000  0.4505660000000 1.0
C      1  0.4151740000000  0.5856860000000  0.4842670000000 1.0
C      1  0.5568290000000  0.4713030000000  0.4159240000000 1.0
C      1  0.4208890000000  0.5825770000000  0.4559940000000 1.0
C      1  0.5271430000000  0.4422450000000  0.5640740000000 1.0
C      1  0.4725600000000  0.4537130000000  0.4363350000000 1.0
C      1  0.4961580000000  0.4682290000000  0.4278650000000 1.0
C      1  0.5436060000000  0.5411830000000  0.5225230000000 1.0
C      1  0.4021880000000  0.5183120000000  0.4754650000000 1.0
C      1  0.4219550000000  0.4469870000000  0.4321050000000 1.0
C      1  0.4474470000000  0.4432940000000  0.5708410000000 1.0
C      1  0.4400110000000  0.3947370000000  0.5588100000000 1.0
C      1  0.5789610000000  0.4177880000000  0.5070150000000 1.0
C      1  0.5949540000000  0.5302260000000  0.4780430000000 1.0
C      1  0.5868350000000  0.4829910000000  0.5528160000000 1.0
C      1  0.5705860000000  0.5397420000000  0.4407590000000 1.0
C      1  0.4636800000000  0.4163780000000  0.5627700000000 1.0
C      1  0.5475300000000  0.4460330000000  0.4149620000000 1.0
C      1  0.5615670000000  0.4690920000000  0.5956480000000 1.0
C      1  0.5136710000000  0.5203150000000  0.3909530000000 1.0
C      1  0.6067750000000  0.5018330000000  0.4706380000000 1.0
C      1  0.5529800000000  0.5934670000000  0.5330500000000 1.0
C      1  0.5342610000000  0.4691780000000  0.5120970000000 1.0
C      1  0.4638160000000  0.5206830000000  0.4945780000000 1.0
C      1  0.4519530000000  0.4220020000000  0.5110210000000 1.0
C      1  0.5413830000000  0.5781140000000  0.4352180000000 1.0
C      1  0.4529090000000  0.4166530000000  0.4604600000000 1.0
C      1  0.5202730000000  0.5965960000000  0.5936160000000 1.0
C      1  0.4730960000000  0.3930620000000  0.4638560000000 1.0
C      1  0.5336280000000  0.3975240000000  0.4936290000000 1.0
C      1  0.4664780000000  0.5114620000000  0.4660240000000 1.0
C      1  0.5672110000000  0.5547430000000  0.5634010000000 1.0
C      1  0.6015090000000  0.5373460000000  0.5066480000000 1.0
C      1  0.6037060000000  0.4621090000000  0.4943210000000 1.0
C      1  0.4471050000000  0.5938590000000  0.4486530000000 1.0
C      1  0.5842420000000  0.4579380000000  0.5389010000000 1.0
C      1  0.4624150000000  0.4257980000000  0.4331380000000 1.0
C      1  0.5389570000000  0.4351870000000  0.5901590000000 1.0
C      1  0.5636280000000  0.5156500000000  0.4772810000000 1.0
C      1  0.4531720000000  0.4749620000000  0.4333080000000 1.0
C      1  0.4098800000000  0.4748300000000  0.4396130000000 1.0
C      1  0.5832480000000  0.5290940000000  0.5641140000000 1.0
C      1  0.4383850000000  0.5202900000000  0.5057020000000 1.0
C      1  0.5453750000000  0.5557770000000  0.4981220000000 1.0
C      1  0.3944090000000  0.4930190000000  0.4872530000000 1.0
C      1  0.4530540000000  0.4824820000000  0.5624510000000 1.0
C      1  0.5350240000000  0.4604230000000  0.6046740000000 1.0
C      1  0.5129950000000  0.5984440000000  0.5211280000000 1.0
C      1  0.4836210000000  0.5516050000000  0.5457700000000 1.0
C      1  0.4497010000000  0.4888650000000  0.4579900000000 1.0
C      1  0.4343350000000  0.6005600000000  0.5028030000000 1.0
C      1  0.5880170000000  0.5509210000000  0.4587370000000 1.0
C      1  0.4996270000000  0.3929200000000  0.4513240000000 1.0
C      1  0.4670240000000  0.4547560000000  0.5939570000000 1.0
C      1  0.5036910000000  0.5641020000000  0.4660890000000 1.0
C      1  0.5910310000000  0.5632070000000  0.5174080000000 1.0
C      1  0.4846070000000  0.3839450000000  0.4894730000000 1.0
C      1  0.5782160000000  0.5145630000000  0.4043930000000 1.0
C      1  0.5738910000000  0.5739330000000  0.5391870000000 1.0
C      1  0.5503420000000  0.4247240000000  0.4495440000000 1.0
C      1  0.4346820000000  0.5464970000000  0.5737150000000 1.0
C      1  0.5323760000000  0.4717710000000  0.4823950000000 1.0
C      1  0.4121570000000  0.5335930000000  0.4980670000000 1.0
C      1  0.4545450000000  0.5975290000000  0.5658220000000 1.0
C      1  0.4066310000000  0.4435890000000  0.4753060000000 1.0
C      1  0.5234600000000  0.4243590000000  0.4991870000000 1.0
C      1  0.5068500000000  0.5156130000000  0.4350350000000 1.0
C      1  0.4957940000000  0.5047830000000  0.6084180000000 1.0
C      1  0.5557440000000  0.4311940000000  0.4767400000000 1.0
C      1  0.4654310000000  0.4322820000000  0.4860630000000 1.0
C      1  0.5493650000000  0.5143030000000  0.5246870000000 1.0
C      1  0.4572840000000  0.5501030000000  0.5295460000000 1.0
C      1  0.4003700000000  0.4994030000000  0.5687820000000 1.0
C      1  0.5548400000000  0.5899650000000  0.4575820000000 1.0
C      1  0.4366930000000  0.5761030000000  0.5756620000000 1.0
C      1  0.5465230000000  0.4318070000000  0.5447080000000 1.0
C      1  0.5606630000000  0.5008730000000  0.5030630000000 1.0
C      1  0.5948490000000  0.5090490000000  0.5455290000000 1.0
C      1  0.5250220000000  0.5274710000000  0.5568830000000 1.0
C      1  0.3988420000000  0.4708060000000  0.4660460000000 1.0
C      1  0.4121400000000  0.4461510000000  0.5040840000000 1.0
C      1  0.4904000000000  0.5111160000000  0.4117790000000 1.0
C      1  0.5034810000000  0.5939280000000  0.5656990000000 1.0
C      1  0.5267550000000  0.5693060000000  0.5991360000000 1.0
C      1  0.4792490000000  0.5040310000000  0.5142100000000 1.0
C      1  0.5132990000000  0.4000080000000  0.5566450000000 1.0
C      1  0.4284260000000  0.5987900000000  0.5295730000000 1.0
C      1  0.5976680000000  0.4849550000000  0.4496250000000 1.0
C      1  0.5377150000000  0.5518660000000  0.5471960000000 1.0
C      1  0.5819530000000  0.4176380000000  0.4780410000000 1.0
C      1  0.5335570000000  0.5095270000000  0.4300650000000 1.0
C      1  0.4051740000000  0.5582640000000  0.4846520000000 1.0
C      1  0.5406010000000  0.5006960000000  0.5524210000000 1.0
C      1  0.4836210000000  0.5311880000000  0.6041040000000 1.0
C      1  0.4780510000000  0.6010860000000  0.5490140000000 1.0
C      1  0.6093900000000  0.4903360000000  0.4974460000000 1.0
C      1  0.3920170000000  0.4924590000000  0.5174920000000 1.0
C      1  0.4322530000000  0.4895820000000  0.5440940000000 1.0
C      1  0.5074200000000  0.4665070000000  0.5951800000000 1.0
C      1  0.5069610000000  0.5459820000000  0.3990310000000 1.0
C      1  0.5478940000000  0.5273690000000  0.5993950000000 1.0
C      1  0.4990300000000  0.5061310000000  0.4616480000000 1.0
C      1  0.4706840000000  0.4820380000000  0.6036030000000 1.0
C      1  0.4662360000000  0.4432300000000  0.3947110000000 1.0
C      1  0.4643800000000  0.4622190000000  0.4841650000000 1.0
C      1  0.5028020000000  0.4508030000000  0.5534320000000 1.0
C      1  0.5404240000000  0.4002160000000  0.5422670000000 1.0
C      1  0.4766680000000  0.5150200000000  0.5636220000000 1.0
C      1  0.4671240000000  0.6045580000000  0.4675310000000 1.0
C      1  0.5532120000000  0.4006890000000  0.5159350000000 1.0
C      1  0.4260360000000  0.4293910000000  0.5245730000000 1.0
C      1  0.4516960000000  0.5279640000000  0.4473370000000 1.0
C      1  0.5766990000000  0.4926280000000  0.4254880000000 1.0
C      1  0.4097640000000  0.5544970000000  0.4570950000000 1.0
C      1  0.4868650000000  0.4449900000000  0.5305090000000 1.0
C      1  0.4154840000000  0.5024320000000  0.4294530000000 1.0
C      1  0.4686960000000  0.5564920000000  0.4123630000000 1.0
C      1  0.5154810000000  0.5193760000000  0.4847970000000 1.0
C      1  0.5384250000000  0.6055000000000  0.5085920000000 1.0
C      1  0.4668930000000  0.4721970000000  0.3902590000000 1.0
C      1  0.4941510000000  0.6047500000000  0.4510860000000 1.0
C      1  0.5352470000000  0.5028190000000  0.4016970000000 1.0
END
