TITL C-883731-9874-72 7.41859231345303 125000 -22175.1222584145 0 0 150 (C1) n - 1
REM
REM in /home/nfs/bkarasulu/CARBON/AIRSS/Generating-Clusters/ReaxFF-fromJPCA2015/Units_Real/with-SteepDescent/Only-C1/SD-CG/Try1-3A/FIRE-CG
REM
REM
REM
REM
REM
REM ./C.cell (11c1c37f851c82e70ff6c80c92926a4b)
REM
REM compiler GCC version 9.2.1 20190827 (Red Hat 9.2.1-1)
REM options -cpp -mtune=generic -march=x86-64 -g -O0 -fpre-include=/usr/include/finclude/math-vector-fortran.h
REM seed 1177772247 -1165264704 -1321994389 -572893112 -1139755866 1695663193 1320838443 736624262 947887907 -2035836176 397337258 1658016125 369509318 -1504427003 932008448 961089642 1928905994 -400900362 -635712779 -1639382449 1699096210 1847257561 -97103693 21880560 -1770930527 1816211019 831821894 1737014670 -28678727 806283462 2053963446 606154404 1075107163
REM
CELL 1.54180   50.00000   50.00000   50.00000   90.00000   90.00000   90.00000
LATT -1
SFAC C  
C      1  0.4262500000000  0.4930800000000  0.4552220000000 1.0
C      1  0.5171820000000  0.4400450000000  0.5268000000000 1.0
C      1  0.4014270000000  0.5040460000000  0.5258540000000 1.0
C      1  0.5199980000000  0.4386900000000  0.4322860000000 1.0
C      1  0.4262110000000  0.5660470000000  0.4517080000000 1.0
C      1  0.5486440000000  0.4122750000000  0.5090550000000 1.0
C      1  0.5207840000000  0.4322590000000  0.5822490000000 1.0
C      1  0.4932300000000  0.4808180000000  0.5907040000000 1.0
C      1  0.4657680000000  0.4690320000000  0.6010060000000 1.0
C      1  0.5031820000000  0.6135780000000  0.4499050000000 1.0
C      1  0.6027010000000  0.5007540000000  0.4758810000000 1.0
C      1  0.4727940000000  0.5495310000000  0.4635390000000 1.0
C      1  0.4603880000000  0.4413940000000  0.5916250000000 1.0
C      1  0.4847520000000  0.5366040000000  0.3925280000000 1.0
C      1  0.4528960000000  0.5606880000000  0.5733730000000 1.0
C      1  0.4628190000000  0.4995930000000  0.4783700000000 1.0
C      1  0.4120310000000  0.4494670000000  0.5360830000000 1.0
C      1  0.5344080000000  0.5611130000000  0.5781520000000 1.0
C      1  0.4786200000000  0.5013630000000  0.5260110000000 1.0
C      1  0.5497390000000  0.5972630000000  0.5169130000000 1.0
C      1  0.4955750000000  0.5522220000000  0.5425330000000 1.0
C      1  0.4463670000000  0.4065590000000  0.5124950000000 1.0
C      1  0.5009930000000  0.3974670000000  0.5138800000000 1.0
C      1  0.5281930000000  0.4101030000000  0.4682500000000 1.0
C      1  0.5581300000000  0.4622480000000  0.5170340000000 1.0
C      1  0.4111120000000  0.5512390000000  0.5004310000000 1.0
C      1  0.5510570000000  0.4375460000000  0.5825590000000 1.0
C      1  0.4411390000000  0.4365020000000  0.4464090000000 1.0
C      1  0.4818060000000  0.5620480000000  0.5719870000000 1.0
C      1  0.5138150000000  0.4535820000000  0.4558570000000 1.0
C      1  0.5902940000000  0.4400280000000  0.4951000000000 1.0
C      1  0.5420650000000  0.5758090000000  0.5530110000000 1.0
C      1  0.5433800000000  0.5448980000000  0.4997310000000 1.0
C      1  0.4792440000000  0.5884720000000  0.4222410000000 1.0
C      1  0.4537970000000  0.4431080000000  0.4946090000000 1.0
C      1  0.4050990000000  0.4762910000000  0.5322050000000 1.0
C      1  0.4226660000000  0.4170560000000  0.4998230000000 1.0
C      1  0.4783480000000  0.4570000000000  0.4198300000000 1.0
C      1  0.5203920000000  0.4854800000000  0.5436870000000 1.0
C      1  0.4049410000000  0.5290400000000  0.4513810000000 1.0
C      1  0.4987140000000  0.4957340000000  0.4148900000000 1.0
C      1  0.4801060000000  0.4953910000000  0.5684860000000 1.0
C      1  0.5946240000000  0.4933970000000  0.5531130000000 1.0
C      1  0.5561340000000  0.5201790000000  0.5146420000000 1.0
C      1  0.4937710000000  0.6148600000000  0.4201140000000 1.0
C      1  0.5703210000000  0.4699390000000  0.4380040000000 1.0
C      1  0.5528010000000  0.4896500000000  0.5833790000000 1.0
C      1  0.4844650000000  0.5811920000000  0.5072910000000 1.0
C      1  0.4581070000000  0.5182060000000  0.5317020000000 1.0
C      1  0.5982350000000  0.5528270000000  0.5083410000000 1.0
C      1  0.4829750000000  0.6192400000000  0.4710940000000 1.0
C      1  0.5073690000000  0.4449200000000  0.5019640000000 1.0
C      1  0.6039480000000  0.4823840000000  0.5259630000000 1.0
C      1  0.4440420000000  0.5897370000000  0.4571690000000 1.0
C      1  0.5608430000000  0.5557460000000  0.4777060000000 1.0
C      1  0.5475460000000  0.4623900000000  0.5936200000000 1.0
C      1  0.5420860000000  0.4961180000000  0.5547830000000 1.0
C      1  0.5219360000000  0.4797160000000  0.4097690000000 1.0
C      1  0.5604940000000  0.4380210000000  0.4997760000000 1.0
C      1  0.5414330000000  0.4243080000000  0.4467270000000 1.0
C      1  0.4134440000000  0.4883640000000  0.4809460000000 1.0
C      1  0.5285660000000  0.4890510000000  0.4910670000000 1.0
C      1  0.4993570000000  0.4785060000000  0.4565350000000 1.0
C      1  0.5016720000000  0.4147070000000  0.5673190000000 1.0
C      1  0.5652650000000  0.5358820000000  0.5624160000000 1.0
C      1  0.4444170000000  0.4889160000000  0.6044370000000 1.0
C      1  0.4083160000000  0.5507040000000  0.4695000000000 1.0
C      1  0.5875200000000  0.5250810000000  0.5202720000000 1.0
C      1  0.5588320000000  0.5305880000000  0.4340260000000 1.0
C      1  0.5020870000000  0.5334700000000  0.5960860000000 1.0
C      1  0.4209290000000  0.5590020000000  0.5256500000000 1.0
C      1  0.4171850000000  0.5095550000000  0.4991950000000 1.0
C      1  0.4625060000000  0.5250930000000  0.3893050000000 1.0
C      1  0.4557540000000  0.5056940000000  0.5613770000000 1.0
C      1  0.4408840000000  0.5478120000000  0.4322740000000 1.0
C      1  0.5067810000000  0.4547630000000  0.4112020000000 1.0
C      1  0.5418630000000  0.5232870000000  0.5444810000000 1.0
C      1  0.5061470000000  0.4320820000000  0.4744120000000 1.0
C      1  0.5134520000000  0.5295870000000  0.5441460000000 1.0
C      1  0.5516750000000  0.4905020000000  0.5069360000000 1.0
C      1  0.4645680000000  0.4068470000000  0.4759210000000 1.0
C      1  0.5108430000000  0.5082810000000  0.6015000000000 1.0
C      1  0.4930300000000  0.5258670000000  0.4177390000000 1.0
C      1  0.5055480000000  0.5601080000000  0.5885870000000 1.0
C      1  0.4772590000000  0.6057740000000  0.4958220000000 1.0
C      1  0.4407530000000  0.5409880000000  0.5920660000000 1.0
C      1  0.5202710000000  0.5320660000000  0.4825490000000 1.0
C      1  0.5504560000000  0.5386150000000  0.5873910000000 1.0
C      1  0.4559820000000  0.5010710000000  0.4500800000000 1.0
C      1  0.5885610000000  0.4903490000000  0.4498960000000 1.0
C      1  0.4697630000000  0.5441230000000  0.5310510000000 1.0
C      1  0.4987000000000  0.5415630000000  0.4741820000000 1.0
C      1  0.5062880000000  0.4565630000000  0.5756610000000 1.0
C      1  0.3978210000000  0.4606470000000  0.4873090000000 1.0
C      1  0.4548590000000  0.5444100000000  0.4876680000000 1.0
C      1  0.5546350000000  0.6002960000000  0.5504620000000 1.0
C      1  0.4472570000000  0.5176550000000  0.4981380000000 1.0
C      1  0.4743240000000  0.4203670000000  0.5763620000000 1.0
C      1  0.5007360000000  0.4722380000000  0.5007050000000 1.0
C      1  0.5334570000000  0.4156680000000  0.5339510000000 1.0
C      1  0.5767580000000  0.4509150000000  0.5369400000000 1.0
C      1  0.5053110000000  0.5735620000000  0.5237980000000 1.0
C      1  0.4817390000000  0.4218430000000  0.4595540000000 1.0
C      1  0.6014900000000  0.5014650000000  0.5050900000000 1.0
C      1  0.4066740000000  0.4401600000000  0.5090460000000 1.0
C      1  0.5277080000000  0.5657620000000  0.4376150000000 1.0
C      1  0.4435710000000  0.4733160000000  0.4126050000000 1.0
C      1  0.6004100000000  0.4538890000000  0.5199630000000 1.0
C      1  0.5516420000000  0.5552560000000  0.4503880000000 1.0
C      1  0.5875960000000  0.5216630000000  0.5513050000000 1.0
C      1  0.4572400000000  0.4541190000000  0.5182160000000 1.0
C      1  0.5902790000000  0.5515680000000  0.4808050000000 1.0
C      1  0.5423890000000  0.5066450000000  0.4430410000000 1.0
C      1  0.5673380000000  0.4421560000000  0.4474470000000 1.0
C      1  0.4725130000000  0.3987180000000  0.5039550000000 1.0
C      1  0.5090100000000  0.4008250000000  0.5415530000000 1.0
C      1  0.5263140000000  0.3997130000000  0.4952560000000 1.0
C      1  0.4088070000000  0.5055870000000  0.4360240000000 1.0
C      1  0.4431360000000  0.4266210000000  0.4768330000000 1.0
C      1  0.5386560000000  0.5141250000000  0.5992830000000 1.0
C      1  0.4635080000000  0.5298690000000  0.4376280000000 1.0
C      1  0.4684630000000  0.4342680000000  0.4372190000000 1.0
C      1  0.4393740000000  0.5118180000000  0.5853560000000 1.0
C      1  0.4327960000000  0.5649660000000  0.5491440000000 1.0
C      1  0.5753480000000  0.4500090000000  0.5662780000000 1.0
C      1  0.5468740000000  0.4840890000000  0.4256410000000 1.0
C      1  0.5543290000000  0.6130380000000  0.4974310000000 1.0
C      1  0.4417490000000  0.5095780000000  0.3947340000000 1.0
C      1  0.4240700000000  0.4936400000000  0.4102230000000 1.0
C      1  0.4779710000000  0.4750450000000  0.5188850000000 1.0
C      1  0.5877670000000  0.5177250000000  0.4407320000000 1.0
C      1  0.5165590000000  0.5894950000000  0.4452630000000 1.0
C      1  0.5854970000000  0.4453440000000  0.4681100000000 1.0
C      1  0.5337920000000  0.5706300000000  0.5198740000000 1.0
C      1  0.4810170000000  0.4825510000000  0.4339420000000 1.0
C      1  0.5429460000000  0.5370350000000  0.4054840000000 1.0
C      1  0.4647550000000  0.5606740000000  0.5088220000000 1.0
C      1  0.5235650000000  0.5035900000000  0.4661020000000 1.0
C      1  0.5177000000000  0.5471390000000  0.4126670000000 1.0
C      1  0.4555060000000  0.6091740000000  0.4757590000000 1.0
C      1  0.5001480000000  0.5047170000000  0.5428620000000 1.0
C      1  0.4834440000000  0.4807840000000  0.4791610000000 1.0
C      1  0.4344900000000  0.4578240000000  0.4303830000000 1.0
C      1  0.4490310000000  0.4321110000000  0.5658850000000 1.0
C      1  0.6016860000000  0.5275980000000  0.4641460000000 1.0
C      1  0.5123830000000  0.4601810000000  0.5478400000000 1.0
C      1  0.4695790000000  0.5790800000000  0.4491190000000 1.0
C      1  0.3809790000000  0.4519710000000  0.4697950000000 1.0
C      1  0.5812100000000  0.4774390000000  0.5730810000000 1.0
C      1  0.4409290000000  0.4462780000000  0.5422520000000 1.0
END
