TITL C-883733-4178-62 28.0349413543276 125000 -14870.3901454126 0 0 100 (C1) n - 1
REM
REM in /home/nfs/bkarasulu/CARBON/AIRSS/Generating-Clusters/ReaxFF-fromJPCA2015/Units_Real/with-SteepDescent/Only-C1/SD-CG/Try1-3A/FIRE-CG
REM
REM
REM
REM
REM
REM ./C.cell (11c1c37f851c82e70ff6c80c92926a4b)
REM
REM compiler GCC version 9.2.1 20190827 (Red Hat 9.2.1-1)
REM options -cpp -mtune=generic -march=x86-64 -g -O0 -fpre-include=/usr/include/finclude/math-vector-fortran.h
REM seed -177475062 -927579210 697238189 -2083394379 -132063052 -1982446394 385415988 -1868340212 406462808 -1768618148 301726206 -1963699459 1530729086 1370305115 1208565790 -852236906 313334048 -229130281 -1871542301 1388819642 -343947983 -1027598999 -46193785 -1331479848 1609995631 1589162167 16988564 1094652692 -1572201402 -1621511064 949544261 -2134804816 -1709876788
REM
CELL 1.54180   50.00000   50.00000   50.00000   90.00000   90.00000   90.00000
LATT -1
SFAC C  
C      1  0.5750510000000  0.5559140000000  0.4953400000000 1.0
C      1  0.5255740000000  0.5249250000000  0.4835650000000 1.0
C      1  0.5388010000000  0.4987450000000  0.5208710000000 1.0
C      1  0.5637640000000  0.5011290000000  0.4393070000000 1.0
C      1  0.5215010000000  0.5232310000000  0.5651470000000 1.0
C      1  0.5488940000000  0.4422090000000  0.4465850000000 1.0
C      1  0.4813540000000  0.5052390000000  0.4666590000000 1.0
C      1  0.4595740000000  0.4793010000000  0.5948830000000 1.0
C      1  0.4875570000000  0.4163130000000  0.5059490000000 1.0
C      1  0.5116560000000  0.5812050000000  0.4960790000000 1.0
C      1  0.5574290000000  0.4925240000000  0.4668280000000 1.0
C      1  0.4226790000000  0.5032400000000  0.4959720000000 1.0
C      1  0.4800400000000  0.4295970000000  0.5518800000000 1.0
C      1  0.5058530000000  0.4460840000000  0.5505020000000 1.0
C      1  0.4488490000000  0.5840040000000  0.5304990000000 1.0
C      1  0.4428910000000  0.5271860000000  0.5553530000000 1.0
C      1  0.4578290000000  0.4704290000000  0.5089170000000 1.0
C      1  0.5850280000000  0.5346670000000  0.4613880000000 1.0
C      1  0.4807790000000  0.5046780000000  0.4947370000000 1.0
C      1  0.5231100000000  0.5002420000000  0.4101790000000 1.0
C      1  0.4762300000000  0.5320350000000  0.5024520000000 1.0
C      1  0.4258820000000  0.5017390000000  0.4654560000000 1.0
C      1  0.4487440000000  0.4846160000000  0.4267760000000 1.0
C      1  0.4848410000000  0.4770170000000  0.4653350000000 1.0
C      1  0.4891360000000  0.5555220000000  0.4546300000000 1.0
C      1  0.5690660000000  0.5305090000000  0.4385390000000 1.0
C      1  0.5257540000000  0.5245190000000  0.5098190000000 1.0
C      1  0.4772240000000  0.5796420000000  0.5397190000000 1.0
C      1  0.4234690000000  0.5687270000000  0.5343430000000 1.0
C      1  0.5253820000000  0.5253570000000  0.4557300000000 1.0
C      1  0.4325350000000  0.4772590000000  0.4502610000000 1.0
C      1  0.5108100000000  0.4701320000000  0.4525980000000 1.0
C      1  0.5545710000000  0.4468270000000  0.5357710000000 1.0
C      1  0.4334340000000  0.5266130000000  0.4537490000000 1.0
C      1  0.4321290000000  0.4481250000000  0.4593650000000 1.0
C      1  0.4854780000000  0.5185950000000  0.5405480000000 1.0
C      1  0.5280000000000  0.4350450000000  0.5318410000000 1.0
C      1  0.5563550000000  0.5737850000000  0.4809990000000 1.0
C      1  0.5312760000000  0.4145330000000  0.4839640000000 1.0
C      1  0.4703850000000  0.4229130000000  0.5267810000000 1.0
C      1  0.5481380000000  0.4613860000000  0.4336250000000 1.0
C      1  0.5380930000000  0.5677710000000  0.4590480000000 1.0
C      1  0.5319290000000  0.4803810000000  0.4731640000000 1.0
C      1  0.4361700000000  0.4704740000000  0.5805170000000 1.0
C      1  0.4969170000000  0.4847600000000  0.5095770000000 1.0
C      1  0.4351220000000  0.4398210000000  0.5404750000000 1.0
C      1  0.4575180000000  0.5133370000000  0.5347020000000 1.0
C      1  0.5695380000000  0.4613850000000  0.5146310000000 1.0
C      1  0.4353950000000  0.5511210000000  0.4728160000000 1.0
C      1  0.5726100000000  0.4880650000000  0.5566410000000 1.0
C      1  0.5633560000000  0.4462390000000  0.4939160000000 1.0
C      1  0.4577720000000  0.4451640000000  0.5577140000000 1.0
C      1  0.4133910000000  0.5234270000000  0.5152620000000 1.0
C      1  0.4290310000000  0.4444510000000  0.4862290000000 1.0
C      1  0.5331550000000  0.4997480000000  0.5533060000000 1.0
C      1  0.5598820000000  0.4629130000000  0.5604420000000 1.0
C      1  0.4799010000000  0.4291950000000  0.4447340000000 1.0
C      1  0.4512560000000  0.5700640000000  0.4583450000000 1.0
C      1  0.5649660000000  0.5376320000000  0.5430880000000 1.0
C      1  0.5242800000000  0.4828850000000  0.5001190000000 1.0
C      1  0.4191870000000  0.4569100000000  0.5595590000000 1.0
C      1  0.5556560000000  0.4295050000000  0.4728920000000 1.0
C      1  0.5740450000000  0.5048290000000  0.4877630000000 1.0
C      1  0.5395550000000  0.5876830000000  0.5003360000000 1.0
C      1  0.5692210000000  0.4942580000000  0.5144400000000 1.0
C      1  0.5090260000000  0.4649890000000  0.5734850000000 1.0
C      1  0.4883750000000  0.4701330000000  0.5327900000000 1.0
C      1  0.4577310000000  0.5488240000000  0.4901570000000 1.0
C      1  0.4556610000000  0.4277500000000  0.4593380000000 1.0
C      1  0.4650040000000  0.5583150000000  0.4366700000000 1.0
C      1  0.4208620000000  0.5395400000000  0.5393690000000 1.0
C      1  0.5026960000000  0.5700880000000  0.5240780000000 1.0
C      1  0.5353280000000  0.4765540000000  0.5716910000000 1.0
C      1  0.5493930000000  0.5795890000000  0.5271040000000 1.0
C      1  0.4992640000000  0.5371070000000  0.5213910000000 1.0
C      1  0.4716080000000  0.4316300000000  0.4852670000000 1.0
C      1  0.4657590000000  0.5371880000000  0.5718320000000 1.0
C      1  0.5273740000000  0.5689650000000  0.5420030000000 1.0
C      1  0.5176800000000  0.4204740000000  0.5096300000000 1.0
C      1  0.4725040000000  0.4609300000000  0.4854500000000 1.0
C      1  0.5062800000000  0.4814310000000  0.4228130000000 1.0
C      1  0.5172070000000  0.4188070000000  0.4598570000000 1.0
C      1  0.4650090000000  0.5082680000000  0.4190050000000 1.0
C      1  0.5067720000000  0.4387860000000  0.4429180000000 1.0
C      1  0.4957840000000  0.5268690000000  0.4528420000000 1.0
C      1  0.4913840000000  0.5176900000000  0.5693930000000 1.0
C      1  0.4347500000000  0.4504340000000  0.5129180000000 1.0
C      1  0.4692870000000  0.4733950000000  0.5545870000000 1.0
C      1  0.4521640000000  0.5315070000000  0.4321860000000 1.0
C      1  0.4931420000000  0.5029520000000  0.4092850000000 1.0
C      1  0.5700340000000  0.5588250000000  0.5241980000000 1.0
C      1  0.5382140000000  0.5448210000000  0.5543050000000 1.0
C      1  0.4704520000000  0.5606110000000  0.5580720000000 1.0
C      1  0.4862330000000  0.4842820000000  0.5772020000000 1.0
C      1  0.5483640000000  0.4864190000000  0.4189370000000 1.0
C      1  0.5100210000000  0.5723500000000  0.4686570000000 1.0
C      1  0.4452310000000  0.4966610000000  0.5135610000000 1.0
C      1  0.5857410000000  0.5308200000000  0.4843350000000 1.0
C      1  0.5436810000000  0.5447630000000  0.4422350000000 1.0
C      1  0.5769890000000  0.5104570000000  0.5397800000000 1.0
END
