TITL C-883733-4178-72 -2.89873614126912 125000 -20334.7632538188 0 0 136 (C1) n - 1
REM
REM in /home/nfs/bkarasulu/CARBON/AIRSS/Generating-Clusters/ReaxFF-fromJPCA2015/Units_Real/with-SteepDescent/Only-C1/SD-CG/Try1-3A/FIRE-CG
REM
REM
REM
REM
REM
REM ./C.cell (11c1c37f851c82e70ff6c80c92926a4b)
REM
REM compiler GCC version 9.2.1 20190827 (Red Hat 9.2.1-1)
REM options -cpp -mtune=generic -march=x86-64 -g -O0 -fpre-include=/usr/include/finclude/math-vector-fortran.h
REM seed -1131710 -535465235 987622981 -1192341448 -1261401614 -204322230 1485369081 -246967691 934542940 1381108953 1868976433 -330556163 -820329673 -1239664433 554428285 1520078363 1478005626 769247539 312444538 838014844 464706167 1427998381 987204153 1334492556 1584486049 -1382503197 909553738 2026224444 1740182571 -1640766984 -916251420 842116295 -870443247
REM
CELL 1.54180   50.00000   50.00000   50.00000   90.00000   90.00000   90.00000
LATT -1
SFAC C  
C      1  0.5257000000000  0.5237880000000  0.6028600000000 1.0
C      1  0.4149130000000  0.5211450000000  0.5743740000000 1.0
C      1  0.4109670000000  0.5405060000000  0.5535110000000 1.0
C      1  0.5072200000000  0.5641700000000  0.4347370000000 1.0
C      1  0.5000150000000  0.4280100000000  0.4752400000000 1.0
C      1  0.4939410000000  0.4593770000000  0.6016010000000 1.0
C      1  0.5111920000000  0.4121660000000  0.5217190000000 1.0
C      1  0.4918650000000  0.5950820000000  0.5119900000000 1.0
C      1  0.5793340000000  0.5359340000000  0.4989530000000 1.0
C      1  0.4273790000000  0.4963420000000  0.4693420000000 1.0
C      1  0.4752990000000  0.4179660000000  0.5450040000000 1.0
C      1  0.4750640000000  0.5279610000000  0.4628530000000 1.0
C      1  0.4897040000000  0.4255230000000  0.4464520000000 1.0
C      1  0.5405670000000  0.4719800000000  0.5882560000000 1.0
C      1  0.4898380000000  0.5699060000000  0.4560640000000 1.0
C      1  0.4735630000000  0.5295810000000  0.5857540000000 1.0
C      1  0.5162490000000  0.5414820000000  0.3894940000000 1.0
C      1  0.5696620000000  0.5295780000000  0.5682730000000 1.0
C      1  0.4214640000000  0.4547890000000  0.5142600000000 1.0
C      1  0.4921990000000  0.4793900000000  0.4703110000000 1.0
C      1  0.5106180000000  0.5369000000000  0.4990920000000 1.0
C      1  0.4258060000000  0.4950700000000  0.5387670000000 1.0
C      1  0.5693550000000  0.5811130000000  0.5526390000000 1.0
C      1  0.5733850000000  0.5065430000000  0.4993070000000 1.0
C      1  0.5662340000000  0.4205510000000  0.5090660000000 1.0
C      1  0.5430070000000  0.4477790000000  0.4025980000000 1.0
C      1  0.5835140000000  0.4445430000000  0.5069470000000 1.0
C      1  0.3984490000000  0.4634330000000  0.4987830000000 1.0
C      1  0.4653040000000  0.5034360000000  0.5024740000000 1.0
C      1  0.5554830000000  0.4880880000000  0.4239960000000 1.0
C      1  0.5443790000000  0.5859600000000  0.5656110000000 1.0
C      1  0.5342090000000  0.5995700000000  0.5184010000000 1.0
C      1  0.4186790000000  0.5724620000000  0.5064830000000 1.0
C      1  0.3995470000000  0.5517960000000  0.5038570000000 1.0
C      1  0.4467770000000  0.4866270000000  0.4878590000000 1.0
C      1  0.4443930000000  0.4756160000000  0.5872910000000 1.0
C      1  0.5504800000000  0.5638730000000  0.4625470000000 1.0
C      1  0.5136190000000  0.5543460000000  0.5415300000000 1.0
C      1  0.5922990000000  0.4624800000000  0.4860060000000 1.0
C      1  0.4283670000000  0.4659970000000  0.4404110000000 1.0
C      1  0.5197600000000  0.4513350000000  0.5928490000000 1.0
C      1  0.5030200000000  0.5634250000000  0.5875760000000 1.0
C      1  0.5172810000000  0.4375640000000  0.4023770000000 1.0
C      1  0.5451420000000  0.5054720000000  0.5044790000000 1.0
C      1  0.5006870000000  0.5189770000000  0.4475440000000 1.0
C      1  0.5373360000000  0.5594510000000  0.4381960000000 1.0
C      1  0.4871970000000  0.4859310000000  0.5708180000000 1.0
C      1  0.4675160000000  0.4206950000000  0.5166850000000 1.0
C      1  0.5492470000000  0.4349380000000  0.4521410000000 1.0
C      1  0.5651940000000  0.4616690000000  0.4135100000000 1.0
C      1  0.5803930000000  0.4722860000000  0.4618910000000 1.0
C      1  0.5339930000000  0.4997300000000  0.5902360000000 1.0
C      1  0.4653480000000  0.5535190000000  0.4994360000000 1.0
C      1  0.4263930000000  0.4374750000000  0.4745990000000 1.0
C      1  0.5109080000000  0.4191350000000  0.4278420000000 1.0
C      1  0.5362070000000  0.4098580000000  0.4379310000000 1.0
C      1  0.5915320000000  0.5041110000000  0.4560590000000 1.0
C      1  0.5758770000000  0.5526770000000  0.5495970000000 1.0
C      1  0.5290930000000  0.5630610000000  0.4972430000000 1.0
C      1  0.5520310000000  0.4061410000000  0.4619340000000 1.0
C      1  0.4952290000000  0.5780210000000  0.5357040000000 1.0
C      1  0.5047480000000  0.4146020000000  0.5481210000000 1.0
C      1  0.5233190000000  0.4480440000000  0.4708300000000 1.0
C      1  0.5445280000000  0.5236080000000  0.5813430000000 1.0
C      1  0.4708020000000  0.5727910000000  0.4788550000000 1.0
C      1  0.4743600000000  0.5309960000000  0.4054030000000 1.0
C      1  0.5059540000000  0.4918640000000  0.3909940000000 1.0
C      1  0.4527770000000  0.4665630000000  0.4268200000000 1.0
C      1  0.5279000000000  0.5194550000000  0.4851370000000 1.0
C      1  0.4981730000000  0.4636230000000  0.4270020000000 1.0
C      1  0.5590220000000  0.4651170000000  0.5671590000000 1.0
C      1  0.5945690000000  0.5283280000000  0.4712410000000 1.0
C      1  0.5925260000000  0.4849480000000  0.5037400000000 1.0
C      1  0.4852970000000  0.4882420000000  0.5172250000000 1.0
C      1  0.4714260000000  0.5723600000000  0.5510530000000 1.0
C      1  0.3877560000000  0.4909260000000  0.5041140000000 1.0
C      1  0.4581860000000  0.4930610000000  0.4142790000000 1.0
C      1  0.5802230000000  0.5276370000000  0.4458680000000 1.0
C      1  0.5172230000000  0.4383530000000  0.5643160000000 1.0
C      1  0.4760980000000  0.5616380000000  0.5769070000000 1.0
C      1  0.4490970000000  0.5125530000000  0.5449530000000 1.0
C      1  0.5010410000000  0.5380910000000  0.6010000000000 1.0
C      1  0.5877950000000  0.4673660000000  0.5265530000000 1.0
C      1  0.4724130000000  0.4768480000000  0.5968170000000 1.0
C      1  0.4431820000000  0.4579840000000  0.5643590000000 1.0
C      1  0.4020980000000  0.4541740000000  0.4705210000000 1.0
C      1  0.5529290000000  0.4771070000000  0.4725540000000 1.0
C      1  0.4832370000000  0.5013030000000  0.4571510000000 1.0
C      1  0.4406470000000  0.5868470000000  0.5130940000000 1.0
C      1  0.5589100000000  0.4216810000000  0.5376610000000 1.0
C      1  0.4961540000000  0.5509400000000  0.4088320000000 1.0
C      1  0.4732520000000  0.5093880000000  0.5612420000000 1.0
C      1  0.4932470000000  0.4592880000000  0.5592230000000 1.0
C      1  0.4654610000000  0.5946880000000  0.4981320000000 1.0
C      1  0.3994040000000  0.5371940000000  0.4768830000000 1.0
C      1  0.5066410000000  0.4655010000000  0.4011510000000 1.0
C      1  0.4512320000000  0.5219080000000  0.4218610000000 1.0
C      1  0.5758880000000  0.4811060000000  0.5491270000000 1.0
C      1  0.4493000000000  0.5168580000000  0.5966740000000 1.0
C      1  0.5508800000000  0.6019970000000  0.5403710000000 1.0
C      1  0.5463140000000  0.4074890000000  0.4902220000000 1.0
C      1  0.4536430000000  0.5610780000000  0.5270340000000 1.0
C      1  0.5107780000000  0.4999580000000  0.5268080000000 1.0
C      1  0.5566170000000  0.5579830000000  0.4892550000000 1.0
C      1  0.5482980000000  0.5127100000000  0.4112280000000 1.0
C      1  0.5278050000000  0.5169060000000  0.4563790000000 1.0
C      1  0.5385790000000  0.4881750000000  0.4499500000000 1.0
C      1  0.5709280000000  0.4522160000000  0.4405250000000 1.0
C      1  0.4798890000000  0.5029100000000  0.3974060000000 1.0
C      1  0.5312410000000  0.4820670000000  0.5153700000000 1.0
C      1  0.5173940000000  0.4100030000000  0.4950780000000 1.0
C      1  0.5845560000000  0.5334280000000  0.5296400000000 1.0
C      1  0.4688330000000  0.4440830000000  0.5587570000000 1.0
C      1  0.5262920000000  0.5129500000000  0.3918480000000 1.0
C      1  0.4470500000000  0.5329010000000  0.4481280000000 1.0
C      1  0.5503860000000  0.5324330000000  0.4345280000000 1.0
C      1  0.5793080000000  0.5104700000000  0.5483900000000 1.0
C      1  0.3964620000000  0.5343890000000  0.5281090000000 1.0
C      1  0.5131990000000  0.5295520000000  0.5269410000000 1.0
C      1  0.5245410000000  0.5647160000000  0.5667510000000 1.0
C      1  0.5178770000000  0.5909920000000  0.4977650000000 1.0
C      1  0.5473390000000  0.4400210000000  0.5575780000000 1.0
C      1  0.5122370000000  0.4688420000000  0.4520580000000 1.0
C      1  0.4436990000000  0.4557230000000  0.4929320000000 1.0
C      1  0.4262010000000  0.5010350000000  0.5921610000000 1.0
C      1  0.4777040000000  0.5297600000000  0.4925540000000 1.0
C      1  0.4119470000000  0.4762780000000  0.4530610000000 1.0
C      1  0.4753330000000  0.4398650000000  0.4950010000000 1.0
C      1  0.4389150000000  0.5399420000000  0.5434450000000 1.0
C      1  0.4268060000000  0.4662790000000  0.5409330000000 1.0
C      1  0.4235380000000  0.5255840000000  0.4630420000000 1.0
C      1  0.5368650000000  0.4641740000000  0.4925470000000 1.0
C      1  0.4750840000000  0.4466790000000  0.4318150000000 1.0
C      1  0.4877600000000  0.4677350000000  0.4965570000000 1.0
C      1  0.4006610000000  0.5057460000000  0.5269780000000 1.0
C      1  0.3887980000000  0.5136150000000  0.4872990000000 1.0
END
