TITL C-883731-9874-137 80.6960582003206 125000 -18252.638189608 0 0 123 (C1) n - 1
REM
REM in /home/nfs/bkarasulu/CARBON/AIRSS/Generating-Clusters/ReaxFF-fromJPCA2015/Units_Real/with-SteepDescent/Only-C1/SD-CG/Try1-3A/FIRE-CG
REM
REM
REM
REM
REM
REM ./C.cell (11c1c37f851c82e70ff6c80c92926a4b)
REM
REM compiler GCC version 9.2.1 20190827 (Red Hat 9.2.1-1)
REM options -cpp -mtune=generic -march=x86-64 -g -O0 -fpre-include=/usr/include/finclude/math-vector-fortran.h
REM seed -1264860594 1068495883 445241237 -427572265 -532679353 1581577915 518654412 237664279 131696064 1352374110 -1528995352 211246477 735709386 1933254016 -2025604115 -201512791 -708718953 -1899415750 -942778917 1746675979 578456143 -1617001842 -793761510 872170204 849459283 -2066818078 74564992 -439537136 1843995690 1541246485 -1896233129 1886488918 1062738321
REM
CELL 1.54180   50.00000   50.00000   50.00000   90.00000   90.00000   90.00000
LATT -1
SFAC C  
C      1  0.5006340000000  0.5291710000000  0.4102770000000 1.0
C      1  0.4334560000000  0.5653410000000  0.4851470000000 1.0
C      1  0.5379090000000  0.4358330000000  0.5315010000000 1.0
C      1  0.5345380000000  0.4469230000000  0.4488690000000 1.0
C      1  0.5362160000000  0.4960370000000  0.5228510000000 1.0
C      1  0.4924560000000  0.5467320000000  0.5898520000000 1.0
C      1  0.5024750000000  0.5901430000000  0.4384750000000 1.0
C      1  0.4341840000000  0.4678020000000  0.5420480000000 1.0
C      1  0.5054870000000  0.5884960000000  0.4980160000000 1.0
C      1  0.5734000000000  0.4734610000000  0.5365840000000 1.0
C      1  0.5072560000000  0.5846290000000  0.5264830000000 1.0
C      1  0.4839290000000  0.4810330000000  0.5123900000000 1.0
C      1  0.5392640000000  0.4967790000000  0.4173960000000 1.0
C      1  0.5899240000000  0.5104910000000  0.5043050000000 1.0
C      1  0.4923970000000  0.3991740000000  0.5263680000000 1.0
C      1  0.4402530000000  0.5713440000000  0.5146040000000 1.0
C      1  0.4604910000000  0.4666030000000  0.5558780000000 1.0
C      1  0.4386360000000  0.5476200000000  0.4630680000000 1.0
C      1  0.4965180000000  0.4521870000000  0.3955850000000 1.0
C      1  0.4339830000000  0.5375010000000  0.5586730000000 1.0
C      1  0.5440720000000  0.5503830000000  0.5782090000000 1.0
C      1  0.5195590000000  0.4223490000000  0.4493680000000 1.0
C      1  0.5745020000000  0.4666390000000  0.4832440000000 1.0
C      1  0.4848470000000  0.5837950000000  0.5474720000000 1.0
C      1  0.4442300000000  0.5054700000000  0.4893690000000 1.0
C      1  0.4716090000000  0.5308100000000  0.5118470000000 1.0
C      1  0.4651530000000  0.4257700000000  0.4568180000000 1.0
C      1  0.5509010000000  0.4192700000000  0.5135210000000 1.0
C      1  0.5539450000000  0.4458090000000  0.4709600000000 1.0
C      1  0.5136420000000  0.3900770000000  0.4809590000000 1.0
C      1  0.5338870000000  0.5718040000000  0.5322470000000 1.0
C      1  0.5420150000000  0.4898480000000  0.5728950000000 1.0
C      1  0.5894160000000  0.5169180000000  0.5303110000000 1.0
C      1  0.5172240000000  0.4889550000000  0.4564460000000 1.0
C      1  0.4938770000000  0.5296560000000  0.4795410000000 1.0
C      1  0.4535600000000  0.5522970000000  0.5751150000000 1.0
C      1  0.5210600000000  0.5351120000000  0.5935220000000 1.0
C      1  0.5405730000000  0.4914340000000  0.4739780000000 1.0
C      1  0.4814990000000  0.4471120000000  0.4699750000000 1.0
C      1  0.4883650000000  0.3945400000000  0.4714400000000 1.0
C      1  0.4287950000000  0.5165040000000  0.4652610000000 1.0
C      1  0.4523050000000  0.5862630000000  0.4929210000000 1.0
C      1  0.4264840000000  0.4545700000000  0.5169360000000 1.0
C      1  0.5288490000000  0.5082940000000  0.5952800000000 1.0
C      1  0.5008180000000  0.5501370000000  0.4310300000000 1.0
C      1  0.5330970000000  0.4045660000000  0.4683650000000 1.0
C      1  0.5642400000000  0.5042490000000  0.4253190000000 1.0
C      1  0.4263890000000  0.4974200000000  0.4416910000000 1.0
C      1  0.4903720000000  0.4125890000000  0.4494610000000 1.0
C      1  0.5850380000000  0.5181150000000  0.5588950000000 1.0
C      1  0.4398450000000  0.4306670000000  0.4722240000000 1.0
C      1  0.5162660000000  0.4475750000000  0.5835930000000 1.0
C      1  0.5001660000000  0.4450380000000  0.5410830000000 1.0
C      1  0.4208880000000  0.4928010000000  0.5490940000000 1.0
C      1  0.5327950000000  0.4780950000000  0.5014040000000 1.0
C      1  0.5504810000000  0.4207780000000  0.4849540000000 1.0
C      1  0.5096480000000  0.5256250000000  0.5030870000000 1.0
C      1  0.4795690000000  0.5670350000000  0.5722640000000 1.0
C      1  0.5798220000000  0.4815900000000  0.5079420000000 1.0
C      1  0.4449500000000  0.5249530000000  0.5107150000000 1.0
C      1  0.4251780000000  0.5347400000000  0.5302300000000 1.0
C      1  0.4367230000000  0.4286790000000  0.5022140000000 1.0
C      1  0.5701520000000  0.4834670000000  0.4607110000000 1.0
C      1  0.5812780000000  0.5336710000000  0.4582030000000 1.0
C      1  0.4616530000000  0.4835250000000  0.4924070000000 1.0
C      1  0.4626550000000  0.5704850000000  0.5337680000000 1.0
C      1  0.5376140000000  0.4071690000000  0.5355410000000 1.0
C      1  0.4628140000000  0.5366440000000  0.4282490000000 1.0
C      1  0.4585780000000  0.4195170000000  0.5157810000000 1.0
C      1  0.5248800000000  0.5934550000000  0.4546370000000 1.0
C      1  0.5440440000000  0.5180310000000  0.4813480000000 1.0
C      1  0.4921110000000  0.4627630000000  0.5850600000000 1.0
C      1  0.5229360000000  0.4937150000000  0.5480250000000 1.0
C      1  0.4031300000000  0.4960340000000  0.5015740000000 1.0
C      1  0.4998020000000  0.4389220000000  0.4900540000000 1.0
C      1  0.5020370000000  0.5407030000000  0.5483590000000 1.0
C      1  0.4099730000000  0.5094840000000  0.5280760000000 1.0
C      1  0.4965220000000  0.5058560000000  0.4617750000000 1.0
C      1  0.5491290000000  0.5532730000000  0.5162120000000 1.0
C      1  0.5828050000000  0.5063000000000  0.4466080000000 1.0
C      1  0.5586950000000  0.5535820000000  0.4490810000000 1.0
C      1  0.5654190000000  0.5362060000000  0.5697920000000 1.0
C      1  0.4849270000000  0.4695310000000  0.5405260000000 1.0
C      1  0.4677460000000  0.4769610000000  0.5834010000000 1.0
C      1  0.5243850000000  0.5584980000000  0.5568170000000 1.0
C      1  0.4782310000000  0.4231350000000  0.5323020000000 1.0
C      1  0.5847280000000  0.5350840000000  0.4858080000000 1.0
C      1  0.5041140000000  0.4278310000000  0.5645440000000 1.0
C      1  0.4566940000000  0.5049280000000  0.5863050000000 1.0
C      1  0.5083040000000  0.5451160000000  0.4590120000000 1.0
C      1  0.4745420000000  0.5164480000000  0.4129650000000 1.0
C      1  0.5550170000000  0.4534100000000  0.5490060000000 1.0
C      1  0.5317120000000  0.5904350000000  0.4814090000000 1.0
C      1  0.5357660000000  0.5376410000000  0.4622550000000 1.0
C      1  0.5682400000000  0.5588600000000  0.4952960000000 1.0
C      1  0.5552290000000  0.5740710000000  0.4741490000000 1.0
C      1  0.4145790000000  0.4675670000000  0.4953300000000 1.0
C      1  0.5194980000000  0.5707000000000  0.4209350000000 1.0
C      1  0.4793520000000  0.5808330000000  0.4541030000000 1.0
C      1  0.4588900000000  0.5584930000000  0.4457000000000 1.0
C      1  0.4238440000000  0.4547190000000  0.4698640000000 1.0
C      1  0.4966870000000  0.4669910000000  0.4154730000000 1.0
C      1  0.5718050000000  0.4913400000000  0.5588820000000 1.0
C      1  0.4804780000000  0.5872110000000  0.4822270000000 1.0
C      1  0.5114270000000  0.4042010000000  0.5474620000000 1.0
C      1  0.5228430000000  0.4722790000000  0.4322680000000 1.0
C      1  0.5082870000000  0.4630080000000  0.5025250000000 1.0
C      1  0.4239480000000  0.4696640000000  0.4440820000000 1.0
C      1  0.4912610000000  0.5113410000000  0.5187040000000 1.0
C      1  0.3998860000000  0.5137850000000  0.4795210000000 1.0
C      1  0.4791220000000  0.5476240000000  0.5316860000000 1.0
C      1  0.4339060000000  0.5104570000000  0.5693720000000 1.0
C      1  0.4775620000000  0.4888330000000  0.4508970000000 1.0
C      1  0.5000410000000  0.4071200000000  0.4985470000000 1.0
C      1  0.5409430000000  0.5508040000000  0.4230320000000 1.0
C      1  0.4704760000000  0.4864110000000  0.4228390000000 1.0
C      1  0.4691020000000  0.4719040000000  0.4694670000000 1.0
C      1  0.5303600000000  0.5246570000000  0.4125560000000 1.0
C      1  0.5417530000000  0.4597550000000  0.5738670000000 1.0
C      1  0.5372010000000  0.5244450000000  0.5077820000000 1.0
C      1  0.4672340000000  0.5318710000000  0.5920780000000 1.0
C      1  0.4419640000000  0.4811110000000  0.4254940000000 1.0
C      1  0.5016310000000  0.5124910000000  0.5466810000000 1.0
END
