TITL C-883730-8503-170 58.9442220535654 125000 -29918.5392871179 0 0 199 (C1) n - 1
REM
REM in /home/nfs/bkarasulu/CARBON/AIRSS/Generating-Clusters/ReaxFF-fromJPCA2015/Units_Real/with-SteepDescent/Only-C1/SD-CG/Try1-3A/FIRE-CG
REM
REM
REM
REM
REM
REM ./C.cell (11c1c37f851c82e70ff6c80c92926a4b)
REM
REM compiler GCC version 9.2.1 20190827 (Red Hat 9.2.1-1)
REM options -cpp -mtune=generic -march=x86-64 -g -O0 -fpre-include=/usr/include/finclude/math-vector-fortran.h
REM seed -1583186602 -1539895657 249374302 -134396722 760734587 -195710448 -546073905 -1587190267 -179890301 -697167583 1937483645 -1166645992 -1754613240 -475622015 280561407 1323590087 1544877234 1228340721 1121776564 -156247490 -91514496 353882805 605350330 -1748673263 767790630 2027703561 -653533354 1507614975 -1511730993 -1793513729 1781502480 1834228456 1058464094
REM
CELL 1.54180   50.00000   50.00000   50.00000   90.00000   90.00000   90.00000
LATT -1
SFAC C  
C      1  0.4382580000000  0.4402220000000  0.4211140000000 1.0
C      1  0.4182390000000  0.4482920000000  0.4677130000000 1.0
C      1  0.4936950000000  0.5617930000000  0.5376250000000 1.0
C      1  0.5012220000000  0.4920080000000  0.5550300000000 1.0
C      1  0.5552560000000  0.4146780000000  0.5225090000000 1.0
C      1  0.4676500000000  0.4987920000000  0.5795440000000 1.0
C      1  0.5719060000000  0.4969670000000  0.5810440000000 1.0
C      1  0.5364890000000  0.5739640000000  0.5628970000000 1.0
C      1  0.3830730000000  0.4744960000000  0.4895140000000 1.0
C      1  0.4928310000000  0.5081940000000  0.5317930000000 1.0
C      1  0.5233410000000  0.5173390000000  0.4036980000000 1.0
C      1  0.4944900000000  0.5645910000000  0.4052240000000 1.0
C      1  0.4353570000000  0.4744950000000  0.4790030000000 1.0
C      1  0.4619630000000  0.4241360000000  0.4185990000000 1.0
C      1  0.5096120000000  0.6044470000000  0.4536190000000 1.0
C      1  0.5362870000000  0.5421500000000  0.4085530000000 1.0
C      1  0.4474420000000  0.5300890000000  0.5500280000000 1.0
C      1  0.4946100000000  0.5847000000000  0.5864460000000 1.0
C      1  0.5757440000000  0.4433930000000  0.4278360000000 1.0
C      1  0.5467650000000  0.6023060000000  0.4931960000000 1.0
C      1  0.4164070000000  0.4950580000000  0.5852270000000 1.0
C      1  0.4443230000000  0.5879740000000  0.4927340000000 1.0
C      1  0.4431710000000  0.4875230000000  0.4231340000000 1.0
C      1  0.6022960000000  0.4610750000000  0.4652260000000 1.0
C      1  0.4373400000000  0.5717900000000  0.4481230000000 1.0
C      1  0.5538130000000  0.6016020000000  0.5220120000000 1.0
C      1  0.4613660000000  0.4264720000000  0.5649580000000 1.0
C      1  0.4667380000000  0.5738120000000  0.4478780000000 1.0
C      1  0.3858130000000  0.5433010000000  0.5147840000000 1.0
C      1  0.5249390000000  0.4759880000000  0.5598150000000 1.0
C      1  0.5143140000000  0.3843120000000  0.5031290000000 1.0
C      1  0.4683470000000  0.5329700000000  0.4855270000000 1.0
C      1  0.4312500000000  0.4861900000000  0.5045680000000 1.0
C      1  0.6021210000000  0.4983590000000  0.5003990000000 1.0
C      1  0.4397780000000  0.5651660000000  0.5041140000000 1.0
C      1  0.5895550000000  0.5260250000000  0.5469680000000 1.0
C      1  0.5295790000000  0.5778650000000  0.4411080000000 1.0
C      1  0.5277890000000  0.4038740000000  0.5532480000000 1.0
C      1  0.4700710000000  0.4473100000000  0.4616960000000 1.0
C      1  0.4749490000000  0.5336080000000  0.5378780000000 1.0
C      1  0.4821810000000  0.5246300000000  0.5829480000000 1.0
C      1  0.5240060000000  0.5587150000000  0.5418600000000 1.0
C      1  0.5742330000000  0.5551220000000  0.4389470000000 1.0
C      1  0.4102070000000  0.4365860000000  0.5132450000000 1.0
C      1  0.4371780000000  0.5863900000000  0.5420880000000 1.0
C      1  0.5065430000000  0.4627950000000  0.4934940000000 1.0
C      1  0.4568330000000  0.5065540000000  0.4456820000000 1.0
C      1  0.4785160000000  0.5391520000000  0.4074840000000 1.0
C      1  0.3963660000000  0.5027910000000  0.4427950000000 1.0
C      1  0.4931830000000  0.4618600000000  0.4495090000000 1.0
C      1  0.5813800000000  0.4200620000000  0.4781120000000 1.0
C      1  0.5909270000000  0.4983180000000  0.5591140000000 1.0
C      1  0.5103130000000  0.4827280000000  0.6059040000000 1.0
C      1  0.4424500000000  0.5283010000000  0.4606760000000 1.0
C      1  0.5984640000000  0.4738870000000  0.5437700000000 1.0
C      1  0.5289330000000  0.6105240000000  0.5301480000000 1.0
C      1  0.5374330000000  0.4413810000000  0.3945260000000 1.0
C      1  0.5194470000000  0.4465620000000  0.5634730000000 1.0
C      1  0.4120620000000  0.4808430000000  0.4307600000000 1.0
C      1  0.5889330000000  0.5788530000000  0.4922210000000 1.0
C      1  0.4146100000000  0.4528770000000  0.4372490000000 1.0
C      1  0.5661490000000  0.4708780000000  0.4221800000000 1.0
C      1  0.4825280000000  0.5920450000000  0.4115370000000 1.0
C      1  0.5082730000000  0.4776480000000  0.4681760000000 1.0
C      1  0.4019630000000  0.5689020000000  0.4843530000000 1.0
C      1  0.5349150000000  0.3944180000000  0.4844580000000 1.0
C      1  0.5234160000000  0.5784200000000  0.5890010000000 1.0
C      1  0.6100700000000  0.5260330000000  0.5022280000000 1.0
C      1  0.5589080000000  0.5766430000000  0.4510340000000 1.0
C      1  0.4316710000000  0.4174340000000  0.5046060000000 1.0
C      1  0.5187370000000  0.5417490000000  0.4787500000000 1.0
C      1  0.5147600000000  0.4948370000000  0.5793690000000 1.0
C      1  0.5219400000000  0.5651790000000  0.4145980000000 1.0
C      1  0.4272990000000  0.5496510000000  0.5592220000000 1.0
C      1  0.4596410000000  0.4183910000000  0.4648180000000 1.0
C      1  0.5765880000000  0.5139160000000  0.4140280000000 1.0
C      1  0.5071780000000  0.3944000000000  0.5291930000000 1.0
C      1  0.5601570000000  0.4973150000000  0.5259330000000 1.0
C      1  0.5172110000000  0.5539270000000  0.6045710000000 1.0
C      1  0.5928640000000  0.5699660000000  0.5206200000000 1.0
C      1  0.5146040000000  0.4071740000000  0.5790920000000 1.0
C      1  0.4709970000000  0.5177390000000  0.3860920000000 1.0
C      1  0.6078870000000  0.4567920000000  0.4946350000000 1.0
C      1  0.3980900000000  0.5429400000000  0.4698300000000 1.0
C      1  0.5059660000000  0.3903780000000  0.4545220000000 1.0
C      1  0.4674810000000  0.5512830000000  0.5844000000000 1.0
C      1  0.5127470000000  0.5571290000000  0.4551990000000 1.0
C      1  0.4617470000000  0.5976790000000  0.5482940000000 1.0
C      1  0.4334230000000  0.4216340000000  0.4761330000000 1.0
C      1  0.3878510000000  0.5165860000000  0.5110260000000 1.0
C      1  0.4172690000000  0.4456300000000  0.5633680000000 1.0
C      1  0.5863210000000  0.4378170000000  0.4545740000000 1.0
C      1  0.3975600000000  0.5682650000000  0.5139300000000 1.0
C      1  0.5122440000000  0.5106160000000  0.5044010000000 1.0
C      1  0.4681200000000  0.3971420000000  0.4828630000000 1.0
C      1  0.4193290000000  0.5241210000000  0.4767110000000 1.0
C      1  0.5501220000000  0.4583780000000  0.4658870000000 1.0
C      1  0.5809660000000  0.4274130000000  0.5270810000000 1.0
C      1  0.5667180000000  0.5902120000000  0.4755410000000 1.0
C      1  0.5504320000000  0.4788930000000  0.4447670000000 1.0
C      1  0.4286500000000  0.5451860000000  0.4400650000000 1.0
C      1  0.5386240000000  0.4988840000000  0.3877660000000 1.0
C      1  0.5005200000000  0.5024780000000  0.4794700000000 1.0
C      1  0.5436500000000  0.5426620000000  0.5273250000000 1.0
C      1  0.4193700000000  0.5149350000000  0.5029510000000 1.0
C      1  0.5313780000000  0.5016430000000  0.4454170000000 1.0
C      1  0.3801540000000  0.4889700000000  0.5158540000000 1.0
C      1  0.6022900000000  0.5420120000000  0.5258260000000 1.0
C      1  0.5642160000000  0.4915560000000  0.4006770000000 1.0
C      1  0.5276280000000  0.4346540000000  0.5197410000000 1.0
C      1  0.4949160000000  0.3829310000000  0.4799150000000 1.0
C      1  0.5955060000000  0.4308650000000  0.5009490000000 1.0
C      1  0.5961240000000  0.5109010000000  0.4367360000000 1.0
C      1  0.5695010000000  0.4937240000000  0.4986530000000 1.0
C      1  0.4854430000000  0.5506890000000  0.4475770000000 1.0
C      1  0.4568390000000  0.4014830000000  0.5095890000000 1.0
C      1  0.5186350000000  0.4543970000000  0.6100780000000 1.0
C      1  0.5164100000000  0.4540260000000  0.3826180000000 1.0
C      1  0.4311300000000  0.4675270000000  0.5805620000000 1.0
C      1  0.3980990000000  0.4490990000000  0.4902660000000 1.0
C      1  0.4894530000000  0.4221580000000  0.4151500000000 1.0
C      1  0.4736340000000  0.4936110000000  0.5158370000000 1.0
C      1  0.5551780000000  0.4280040000000  0.4121590000000 1.0
C      1  0.5696030000000  0.5461150000000  0.5783390000000 1.0
C      1  0.5730230000000  0.5828790000000  0.5364960000000 1.0
C      1  0.4580230000000  0.4876500000000  0.4677600000000 1.0
C      1  0.4339610000000  0.5400080000000  0.5128810000000 1.0
C      1  0.5125240000000  0.4345320000000  0.4954330000000 1.0
C      1  0.4513610000000  0.4838090000000  0.5604970000000 1.0
C      1  0.4043190000000  0.4515650000000  0.5384820000000 1.0
C      1  0.4740780000000  0.5014390000000  0.4874540000000 1.0
C      1  0.4646380000000  0.4501770000000  0.5150760000000 1.0
C      1  0.5560400000000  0.5167940000000  0.4859310000000 1.0
C      1  0.4525370000000  0.4543660000000  0.5999240000000 1.0
C      1  0.5609110000000  0.4056250000000  0.4952030000000 1.0
C      1  0.5218120000000  0.6099750000000  0.4796920000000 1.0
C      1  0.5165640000000  0.4838720000000  0.3748640000000 1.0
C      1  0.5774890000000  0.5527000000000  0.4870460000000 1.0
C      1  0.4239200000000  0.5848210000000  0.4714860000000 1.0
C      1  0.4964840000000  0.4500180000000  0.4052260000000 1.0
C      1  0.5469450000000  0.4558820000000  0.5165170000000 1.0
C      1  0.4323830000000  0.4195450000000  0.5641970000000 1.0
C      1  0.6106130000000  0.4762540000000  0.5167130000000 1.0
C      1  0.4789150000000  0.5771970000000  0.5620580000000 1.0
C      1  0.4724260000000  0.4367860000000  0.5899680000000 1.0
C      1  0.5386990000000  0.4327480000000  0.4575450000000 1.0
C      1  0.4065440000000  0.4981790000000  0.5579940000000 1.0
C      1  0.4015780000000  0.5343790000000  0.4420240000000 1.0
C      1  0.5950710000000  0.5373640000000  0.4499880000000 1.0
C      1  0.4159670000000  0.5712880000000  0.5398070000000 1.0
C      1  0.5061530000000  0.4404160000000  0.5397080000000 1.0
C      1  0.4525200000000  0.4759640000000  0.5244390000000 1.0
C      1  0.4544970000000  0.4611780000000  0.4321640000000 1.0
C      1  0.4947000000000  0.6088130000000  0.4785400000000 1.0
C      1  0.4580780000000  0.5033510000000  0.6076200000000 1.0
C      1  0.3891450000000  0.4890690000000  0.4656080000000 1.0
C      1  0.4330790000000  0.5163480000000  0.5970530000000 1.0
C      1  0.5106230000000  0.4048070000000  0.4304780000000 1.0
C      1  0.4606720000000  0.5328690000000  0.5129580000000 1.0
C      1  0.4913250000000  0.4978270000000  0.3762670000000 1.0
C      1  0.4816970000000  0.5988970000000  0.4404140000000 1.0
C      1  0.5572540000000  0.4663000000000  0.4918890000000 1.0
C      1  0.3929540000000  0.4787670000000  0.5396380000000 1.0
C      1  0.5369340000000  0.4179010000000  0.4330030000000 1.0
C      1  0.6003700000000  0.4862120000000  0.4514130000000 1.0
C      1  0.4776070000000  0.4537790000000  0.4900680000000 1.0
C      1  0.5545510000000  0.5414930000000  0.4998030000000 1.0
C      1  0.5054890000000  0.6127030000000  0.5313710000000 1.0
C      1  0.4761540000000  0.5963090000000  0.4993740000000 1.0
C      1  0.5631980000000  0.5394300000000  0.4168970000000 1.0
C      1  0.4783830000000  0.6106020000000  0.5269330000000 1.0
C      1  0.4527070000000  0.4977650000000  0.3944680000000 1.0
C      1  0.4924960000000  0.5486420000000  0.4907200000000 1.0
C      1  0.5234150000000  0.4195530000000  0.4756460000000 1.0
C      1  0.5449090000000  0.4590730000000  0.6025890000000 1.0
C      1  0.4773800000000  0.4328320000000  0.5373460000000 1.0
C      1  0.5352920000000  0.5192310000000  0.4683000000000 1.0
C      1  0.4371030000000  0.5440810000000  0.5866110000000 1.0
C      1  0.4796570000000  0.4029570000000  0.5279940000000 1.0
C      1  0.4834380000000  0.5189280000000  0.6122710000000 1.0
C      1  0.4881160000000  0.5622530000000  0.6037750000000 1.0
C      1  0.5863960000000  0.4476890000000  0.5485380000000 1.0
C      1  0.6031760000000  0.5416720000000  0.4775230000000 1.0
C      1  0.5047160000000  0.4342870000000  0.5910120000000 1.0
C      1  0.5433950000000  0.4295230000000  0.5589960000000 1.0
C      1  0.5394230000000  0.4792490000000  0.5308510000000 1.0
C      1  0.4985280000000  0.4722420000000  0.4236650000000 1.0
C      1  0.5580010000000  0.5222660000000  0.5908260000000 1.0
C      1  0.4339000000000  0.5046090000000  0.5485810000000 1.0
C      1  0.4823940000000  0.5241420000000  0.4325830000000 1.0
C      1  0.4897880000000  0.5707450000000  0.5091460000000 1.0
C      1  0.5313920000000  0.5282510000000  0.6052270000000 1.0
C      1  0.5659150000000  0.5716290000000  0.5628050000000 1.0
C      1  0.5670210000000  0.4439910000000  0.5695930000000 1.0
C      1  0.5668020000000  0.4682370000000  0.5882140000000 1.0
C      1  0.5607300000000  0.5222200000000  0.5406020000000 1.0
C      1  0.5184700000000  0.4838960000000  0.5116900000000 1.0
C      1  0.5081490000000  0.5029220000000  0.4249360000000 1.0
C      1  0.5116070000000  0.5098870000000  0.6175320000000 1.0
END
