TITL C-884137-4758-238 116.509750740481 125000 -19192.0779716167 0 0 131 (C1) n - 1
REM
REM in /home/nfs/bkarasulu/CARBON/AIRSS/Generating-Clusters/ReaxFF-fromJPCA2015/Units_Real/with-SteepDescent/Only-C1/SD-CG/Try1-3A/FIRE-CG
REM
REM
REM
REM
REM
REM ./C.cell (11c1c37f851c82e70ff6c80c92926a4b)
REM
REM compiler GCC version 9.2.1 20190827 (Red Hat 9.2.1-1)
REM options -cpp -mtune=generic -march=x86-64 -g -O0 -fpre-include=/usr/include/finclude/math-vector-fortran.h
REM seed -321534416 467427430 771304360 1170815256 1345578377 840645523 -1686144761 -979839926 -1431789734 1192662176 -975388845 2004161142 1899787892 -516379111 1428330861 -1616166920 817750978 -1607837190 -2094764207 -494008457 756878245 275649353 -1408089602 -1067584384 -430370594 1522540061 377692061 -366070847 957481860 -593321002 -1928479163 -1302215610 -2061395203
REM
CELL 1.54180   50.00000   50.00000   50.00000   90.00000   90.00000   90.00000
LATT -1
SFAC C  
C      1  0.4234730000000  0.5325660000000  0.5608780000000 1.0
C      1  0.5070400000000  0.5718460000000  0.4494070000000 1.0
C      1  0.4509560000000  0.5409440000000  0.5685740000000 1.0
C      1  0.4521170000000  0.5189670000000  0.5886570000000 1.0
C      1  0.5444570000000  0.5175660000000  0.5018290000000 1.0
C      1  0.5600690000000  0.5641010000000  0.5406430000000 1.0
C      1  0.5880840000000  0.4888390000000  0.4630640000000 1.0
C      1  0.5603570000000  0.5649100000000  0.5116810000000 1.0
C      1  0.4305550000000  0.4885310000000  0.5556610000000 1.0
C      1  0.5401800000000  0.4335500000000  0.5686990000000 1.0
C      1  0.5331290000000  0.4806780000000  0.5855030000000 1.0
C      1  0.4247240000000  0.4913230000000  0.4530610000000 1.0
C      1  0.4864370000000  0.5607790000000  0.4674140000000 1.0
C      1  0.5291700000000  0.5107040000000  0.5911280000000 1.0
C      1  0.5353080000000  0.5230990000000  0.4587530000000 1.0
C      1  0.5183750000000  0.4992390000000  0.5411390000000 1.0
C      1  0.5386080000000  0.4617620000000  0.4222390000000 1.0
C      1  0.4989280000000  0.4349540000000  0.4411620000000 1.0
C      1  0.5579030000000  0.4655730000000  0.5424410000000 1.0
C      1  0.4248290000000  0.5103440000000  0.4754970000000 1.0
C      1  0.4921820000000  0.5008100000000  0.4974670000000 1.0
C      1  0.4656810000000  0.5203050000000  0.4526880000000 1.0
C      1  0.5469530000000  0.4861580000000  0.4863180000000 1.0
C      1  0.4806560000000  0.5092480000000  0.4083300000000 1.0
C      1  0.5094790000000  0.4637410000000  0.5873070000000 1.0
C      1  0.5356260000000  0.5796360000000  0.4648010000000 1.0
C      1  0.4849280000000  0.4719640000000  0.4611000000000 1.0
C      1  0.5814000000000  0.5380540000000  0.4525230000000 1.0
C      1  0.4088420000000  0.4741130000000  0.5223340000000 1.0
C      1  0.4153670000000  0.5300790000000  0.5324840000000 1.0
C      1  0.5381500000000  0.5392980000000  0.5849200000000 1.0
C      1  0.5506460000000  0.4616950000000  0.5704100000000 1.0
C      1  0.5553910000000  0.4108530000000  0.5170480000000 1.0
C      1  0.4783370000000  0.5403630000000  0.4153140000000 1.0
C      1  0.3928970000000  0.5185510000000  0.4997180000000 1.0
C      1  0.4248740000000  0.4602510000000  0.4973110000000 1.0
C      1  0.4766300000000  0.4506920000000  0.5173660000000 1.0
C      1  0.4269890000000  0.5081840000000  0.5773500000000 1.0
C      1  0.4994010000000  0.4095580000000  0.5241350000000 1.0
C      1  0.5850820000000  0.4626550000000  0.5093300000000 1.0
C      1  0.5414070000000  0.4202390000000  0.4934690000000 1.0
C      1  0.4984980000000  0.5382830000000  0.4793620000000 1.0
C      1  0.5307970000000  0.5232390000000  0.5307550000000 1.0
C      1  0.5198390000000  0.5293790000000  0.4137570000000 1.0
C      1  0.5524100000000  0.4477760000000  0.4445780000000 1.0
C      1  0.5372760000000  0.4527780000000  0.5260690000000 1.0
C      1  0.5068440000000  0.4998710000000  0.4086580000000 1.0
C      1  0.4345880000000  0.5539470000000  0.4449700000000 1.0
C      1  0.4972910000000  0.6012500000000  0.4891940000000 1.0
C      1  0.5304590000000  0.4680460000000  0.5023280000000 1.0
C      1  0.4251450000000  0.5464700000000  0.5118700000000 1.0
C      1  0.5019390000000  0.5483840000000  0.5629990000000 1.0
C      1  0.4894440000000  0.4710720000000  0.5312030000000 1.0
C      1  0.5186030000000  0.4443790000000  0.4856920000000 1.0
C      1  0.4800870000000  0.5279520000000  0.5003490000000 1.0
C      1  0.4934380000000  0.5720940000000  0.5726560000000 1.0
C      1  0.5847970000000  0.4770540000000  0.5313930000000 1.0
C      1  0.5207500000000  0.4294420000000  0.5321350000000 1.0
C      1  0.4608460000000  0.4894780000000  0.4173620000000 1.0
C      1  0.4669660000000  0.4878850000000  0.4875360000000 1.0
C      1  0.5104720000000  0.5495820000000  0.5356100000000 1.0
C      1  0.4501790000000  0.4286480000000  0.4738890000000 1.0
C      1  0.4185590000000  0.4632600000000  0.5479620000000 1.0
C      1  0.5697860000000  0.4217090000000  0.4928850000000 1.0
C      1  0.4813990000000  0.4743810000000  0.5805580000000 1.0
C      1  0.4845920000000  0.4291890000000  0.5657110000000 1.0
C      1  0.4390090000000  0.4344460000000  0.4999010000000 1.0
C      1  0.5588840000000  0.5453320000000  0.5641420000000 1.0
C      1  0.4903640000000  0.5869770000000  0.5475260000000 1.0
C      1  0.5622750000000  0.5187480000000  0.4502990000000 1.0
C      1  0.4424980000000  0.4463350000000  0.5524230000000 1.0
C      1  0.4960950000000  0.5998390000000  0.4585600000000 1.0
C      1  0.4544150000000  0.5165040000000  0.4801450000000 1.0
C      1  0.5115730000000  0.4710480000000  0.4133780000000 1.0
C      1  0.5675050000000  0.5373530000000  0.5008860000000 1.0
C      1  0.4723130000000  0.5775030000000  0.5266570000000 1.0
C      1  0.5020630000000  0.5085760000000  0.5944150000000 1.0
C      1  0.4537620000000  0.5500490000000  0.4275630000000 1.0
C      1  0.4671570000000  0.4640380000000  0.4329770000000 1.0
C      1  0.4712330000000  0.5057900000000  0.5400010000000 1.0
C      1  0.5960560000000  0.5060890000000  0.5234470000000 1.0
C      1  0.5432300000000  0.4159800000000  0.5444360000000 1.0
C      1  0.4948090000000  0.5194980000000  0.4561060000000 1.0
C      1  0.4471540000000  0.4792640000000  0.5071490000000 1.0
C      1  0.4923850000000  0.4092050000000  0.4943370000000 1.0
C      1  0.5090830000000  0.4856380000000  0.5167820000000 1.0
C      1  0.5833940000000  0.4476080000000  0.4869580000000 1.0
C      1  0.5803750000000  0.5163910000000  0.5435990000000 1.0
C      1  0.4645070000000  0.4496390000000  0.5706880000000 1.0
C      1  0.4909490000000  0.4514690000000  0.4200750000000 1.0
C      1  0.4460460000000  0.5039280000000  0.4368370000000 1.0
C      1  0.5488030000000  0.5327270000000  0.4146880000000 1.0
C      1  0.5536850000000  0.5182000000000  0.5520860000000 1.0
C      1  0.5023180000000  0.4949280000000  0.4666480000000 1.0
C      1  0.5141680000000  0.5795370000000  0.5324710000000 1.0
C      1  0.4798920000000  0.5471460000000  0.5240940000000 1.0
C      1  0.5317890000000  0.4935100000000  0.4622600000000 1.0
C      1  0.5607370000000  0.5079970000000  0.4241410000000 1.0
C      1  0.4022840000000  0.5293870000000  0.4749270000000 1.0
C      1  0.5195150000000  0.5927150000000  0.5064890000000 1.0
C      1  0.5408530000000  0.4232860000000  0.4503920000000 1.0
C      1  0.4932490000000  0.4097830000000  0.4524660000000 1.0
C      1  0.4677020000000  0.5952760000000  0.4546030000000 1.0
C      1  0.5683740000000  0.4674320000000  0.4680780000000 1.0
C      1  0.5956420000000  0.5166100000000  0.4692400000000 1.0
C      1  0.5531460000000  0.5675410000000  0.4486550000000 1.0
C      1  0.5033850000000  0.5509930000000  0.4235020000000 1.0
C      1  0.4731410000000  0.5914030000000  0.5014170000000 1.0
C      1  0.4916000000000  0.4387090000000  0.4966240000000 1.0
C      1  0.4008540000000  0.5023110000000  0.5216470000000 1.0
C      1  0.4533780000000  0.4316790000000  0.5276520000000 1.0
C      1  0.5152900000000  0.5572460000000  0.5856450000000 1.0
C      1  0.5053910000000  0.4516730000000  0.4607670000000 1.0
C      1  0.4753530000000  0.5014170000000  0.5948100000000 1.0
C      1  0.5228000000000  0.4007790000000  0.4545890000000 1.0
C      1  0.4268550000000  0.4646640000000  0.4643120000000 1.0
C      1  0.5453260000000  0.4865280000000  0.4350070000000 1.0
C      1  0.4618850000000  0.5745310000000  0.4787150000000 1.0
C      1  0.5292810000000  0.5353050000000  0.4840730000000 1.0
C      1  0.4329850000000  0.5605800000000  0.4891610000000 1.0
C      1  0.4468530000000  0.4923200000000  0.5321900000000 1.0
C      1  0.4914060000000  0.4904410000000  0.5518620000000 1.0
C      1  0.4460160000000  0.4488190000000  0.4521710000000 1.0
C      1  0.4680940000000  0.5331400000000  0.5465090000000 1.0
C      1  0.4165030000000  0.5547110000000  0.4664850000000 1.0
C      1  0.5925260000000  0.5226160000000  0.4991490000000 1.0
C      1  0.5424060000000  0.5816890000000  0.4935100000000 1.0
C      1  0.4728860000000  0.4086900000000  0.4729570000000 1.0
C      1  0.5663920000000  0.5516500000000  0.4304760000000 1.0
C      1  0.5120550000000  0.4371950000000  0.5763090000000 1.0
C      1  0.4774280000000  0.4153160000000  0.5413040000000 1.0
END
