TITL C-883737-113-271 -4.28600489631998 125000 -18502.0654703218 0 0 125 (C1) n - 1
REM
REM in /home/nfs/bkarasulu/CARBON/AIRSS/Generating-Clusters/ReaxFF-fromJPCA2015/Units_Real/with-SteepDescent/Only-C1/SD-CG/Try1-3A/FIRE-CG
REM
REM
REM
REM
REM
REM ./C.cell (11c1c37f851c82e70ff6c80c92926a4b)
REM
REM compiler GCC version 9.2.1 20190827 (Red Hat 9.2.1-1)
REM options -cpp -mtune=generic -march=x86-64 -g -O0 -fpre-include=/usr/include/finclude/math-vector-fortran.h
REM seed -663975565 -1186985096 1331533862 -1599944646 436062158 -343266981 538121168 1252556245 2104385321 -1065130594 647968813 1723784934 -14169088 362343785 -64995294 -264065185 -2136993141 -1111020974 2028011337 -241213549 2014133797 848896853 1114128619 439882707 613657511 -1863817508 627938607 413488042 996814976 -547910027 -138742940 47785286 1911289551
REM
CELL 1.54180   50.00000   50.00000   50.00000   90.00000   90.00000   90.00000
LATT -1
SFAC C  
C      1  0.4761870000000  0.4525290000000  0.4151500000000 1.0
C      1  0.4840450000000  0.5781310000000  0.4999110000000 1.0
C      1  0.4836650000000  0.4331880000000  0.4376820000000 1.0
C      1  0.5399540000000  0.4587400000000  0.4390680000000 1.0
C      1  0.4145980000000  0.5500020000000  0.5197170000000 1.0
C      1  0.4794370000000  0.5724960000000  0.4661830000000 1.0
C      1  0.5959220000000  0.5166830000000  0.4860900000000 1.0
C      1  0.4054300000000  0.5245290000000  0.5299410000000 1.0
C      1  0.5334340000000  0.5416200000000  0.4963820000000 1.0
C      1  0.4630890000000  0.5561300000000  0.4304150000000 1.0
C      1  0.5750680000000  0.4455090000000  0.4669460000000 1.0
C      1  0.5434510000000  0.4098820000000  0.5291910000000 1.0
C      1  0.4954560000000  0.5038730000000  0.5837310000000 1.0
C      1  0.5933290000000  0.4720750000000  0.5200320000000 1.0
C      1  0.5522760000000  0.4726300000000  0.5644260000000 1.0
C      1  0.5202020000000  0.5135980000000  0.4671300000000 1.0
C      1  0.4534000000000  0.5367380000000  0.5437460000000 1.0
C      1  0.5255300000000  0.4090310000000  0.4872130000000 1.0
C      1  0.5225410000000  0.4234970000000  0.5427810000000 1.0
C      1  0.5710740000000  0.4352990000000  0.4953270000000 1.0
C      1  0.5509990000000  0.4128150000000  0.5018930000000 1.0
C      1  0.4536300000000  0.5651690000000  0.4569700000000 1.0
C      1  0.4432460000000  0.4554810000000  0.4781430000000 1.0
C      1  0.4477320000000  0.4961520000000  0.4675710000000 1.0
C      1  0.4904510000000  0.5078530000000  0.5376760000000 1.0
C      1  0.4621240000000  0.5650710000000  0.5760320000000 1.0
C      1  0.4813610000000  0.4500880000000  0.5790450000000 1.0
C      1  0.5115500000000  0.4249190000000  0.4376420000000 1.0
C      1  0.5038370000000  0.5312200000000  0.5823650000000 1.0
C      1  0.4425780000000  0.4175370000000  0.5073470000000 1.0
C      1  0.4396690000000  0.5612230000000  0.5336720000000 1.0
C      1  0.5747740000000  0.5562590000000  0.4552650000000 1.0
C      1  0.4357560000000  0.5651470000000  0.5669260000000 1.0
C      1  0.5310700000000  0.5760230000000  0.4521880000000 1.0
C      1  0.5751190000000  0.4524530000000  0.5185180000000 1.0
C      1  0.4437860000000  0.4487350000000  0.4493010000000 1.0
C      1  0.4889860000000  0.3975070000000  0.5217320000000 1.0
C      1  0.6037940000000  0.4955670000000  0.5214790000000 1.0
C      1  0.5141820000000  0.4733240000000  0.4946380000000 1.0
C      1  0.4524030000000  0.4944060000000  0.4271610000000 1.0
C      1  0.5085920000000  0.5497780000000  0.4275000000000 1.0
C      1  0.4348800000000  0.5783830000000  0.4966510000000 1.0
C      1  0.4842850000000  0.5370570000000  0.4210710000000 1.0
C      1  0.4466080000000  0.5004500000000  0.5171310000000 1.0
C      1  0.5447160000000  0.5162210000000  0.4820070000000 1.0
C      1  0.5662430000000  0.4987910000000  0.5654860000000 1.0
C      1  0.4278240000000  0.5496600000000  0.4669600000000 1.0
C      1  0.5835870000000  0.4902230000000  0.4765850000000 1.0
C      1  0.5490970000000  0.4655910000000  0.5347220000000 1.0
C      1  0.4092970000000  0.4841710000000  0.4942710000000 1.0
C      1  0.5638530000000  0.4221690000000  0.4559900000000 1.0
C      1  0.4508390000000  0.5310090000000  0.4392850000000 1.0
C      1  0.4168130000000  0.5243440000000  0.4561630000000 1.0
C      1  0.5620450000000  0.5557990000000  0.5437060000000 1.0
C      1  0.4889320000000  0.5569300000000  0.5758440000000 1.0
C      1  0.5598780000000  0.5599760000000  0.5026720000000 1.0
C      1  0.4607750000000  0.4266600000000  0.4547320000000 1.0
C      1  0.4200270000000  0.4894360000000  0.5627660000000 1.0
C      1  0.4906080000000  0.4899960000000  0.4523080000000 1.0
C      1  0.4123010000000  0.5175300000000  0.5581110000000 1.0
C      1  0.4944220000000  0.4143290000000  0.5439930000000 1.0
C      1  0.5071890000000  0.4534740000000  0.5908550000000 1.0
C      1  0.5107770000000  0.4829170000000  0.5957970000000 1.0
C      1  0.4298980000000  0.5127100000000  0.4320080000000 1.0
C      1  0.5683170000000  0.5744180000000  0.4787990000000 1.0
C      1  0.5785910000000  0.5504450000000  0.5228170000000 1.0
C      1  0.5018670000000  0.4652530000000  0.4094810000000 1.0
C      1  0.4567220000000  0.5805600000000  0.5139190000000 1.0
C      1  0.4640450000000  0.5171630000000  0.5301440000000 1.0
C      1  0.5026000000000  0.5714410000000  0.4484260000000 1.0
C      1  0.5298320000000  0.4224600000000  0.4612610000000 1.0
C      1  0.4701870000000  0.4766660000000  0.5745430000000 1.0
C      1  0.4830850000000  0.4587070000000  0.5319440000000 1.0
C      1  0.5531640000000  0.5197820000000  0.5830440000000 1.0
C      1  0.5129400000000  0.5385250000000  0.5196910000000 1.0
C      1  0.5687350000000  0.5083520000000  0.5372400000000 1.0
C      1  0.4897290000000  0.4641450000000  0.4525940000000 1.0
C      1  0.5434150000000  0.4971050000000  0.5292470000000 1.0
C      1  0.4875980000000  0.4344480000000  0.4986040000000 1.0
C      1  0.5274320000000  0.4477020000000  0.5253530000000 1.0
C      1  0.5936940000000  0.5219490000000  0.5175100000000 1.0
C      1  0.4298220000000  0.4405720000000  0.5210740000000 1.0
C      1  0.5411290000000  0.4657420000000  0.4912180000000 1.0
C      1  0.5222650000000  0.5814190000000  0.5478220000000 1.0
C      1  0.5415110000000  0.5629680000000  0.5607240000000 1.0
C      1  0.4951550000000  0.5706570000000  0.5498040000000 1.0
C      1  0.5081280000000  0.4934300000000  0.4140710000000 1.0
C      1  0.4602540000000  0.4317890000000  0.4841330000000 1.0
C      1  0.5752130000000  0.4752530000000  0.4533170000000 1.0
C      1  0.5026980000000  0.4553300000000  0.5120310000000 1.0
C      1  0.5485550000000  0.5546830000000  0.4405750000000 1.0
C      1  0.4827510000000  0.5057500000000  0.4933050000000 1.0
C      1  0.5335260000000  0.4663220000000  0.5854160000000 1.0
C      1  0.4918870000000  0.5584860000000  0.5227380000000 1.0
C      1  0.4179520000000  0.4978710000000  0.4691150000000 1.0
C      1  0.4437790000000  0.4464070000000  0.5456130000000 1.0
C      1  0.4523220000000  0.4654370000000  0.4263300000000 1.0
C      1  0.4826060000000  0.5309750000000  0.4802310000000 1.0
C      1  0.4216480000000  0.4580930000000  0.4981940000000 1.0
C      1  0.5333840000000  0.4521240000000  0.4667240000000 1.0
C      1  0.5855960000000  0.5363060000000  0.4705180000000 1.0
C      1  0.4144210000000  0.5594630000000  0.4913900000000 1.0
C      1  0.5339590000000  0.5040160000000  0.4239700000000 1.0
C      1  0.4343720000000  0.5356850000000  0.5663600000000 1.0
C      1  0.4585850000000  0.3962910000000  0.5189000000000 1.0
C      1  0.4826620000000  0.5068580000000  0.4238170000000 1.0
C      1  0.5184510000000  0.5135660000000  0.5325330000000 1.0
C      1  0.5539740000000  0.4839200000000  0.4346120000000 1.0
C      1  0.5206630000000  0.4459230000000  0.4210680000000 1.0
C      1  0.5438560000000  0.5899540000000  0.4742150000000 1.0
C      1  0.4629040000000  0.5200640000000  0.4616090000000 1.0
C      1  0.5104370000000  0.5392240000000  0.4758650000000 1.0
C      1  0.5338870000000  0.5334620000000  0.4277210000000 1.0
C      1  0.5007710000000  0.4096510000000  0.4987830000000 1.0
C      1  0.5032930000000  0.4940610000000  0.4793730000000 1.0
C      1  0.5325590000000  0.5397270000000  0.5794590000000 1.0
C      1  0.4593390000000  0.4884930000000  0.4937440000000 1.0
C      1  0.4176500000000  0.5014170000000  0.5164260000000 1.0
C      1  0.5571760000000  0.4909160000000  0.4888290000000 1.0
C      1  0.4413440000000  0.4692990000000  0.5625460000000 1.0
C      1  0.5294570000000  0.6024500000000  0.4962770000000 1.0
C      1  0.5038450000000  0.5993160000000  0.5052260000000 1.0
C      1  0.4747460000000  0.4366950000000  0.5517860000000 1.0
C      1  0.4867070000000  0.4811240000000  0.5500760000000 1.0
C      1  0.5241870000000  0.5989620000000  0.5246070000000 1.0
END
