TITL C-883726-8501-445 77.5095496425592 125000 -19658.4094921643 0 0 131 (C1) n - 1
REM
REM in /home/nfs/bkarasulu/CARBON/AIRSS/Generating-Clusters/ReaxFF-fromJPCA2015/Units_Real/with-SteepDescent/Only-C1/SD-CG/Try1-3A/FIRE-CG
REM
REM
REM
REM
REM
REM ./C.cell (11c1c37f851c82e70ff6c80c92926a4b)
REM
REM compiler GCC version 9.2.1 20190827 (Red Hat 9.2.1-1)
REM options -cpp -mtune=generic -march=x86-64 -g -O0 -fpre-include=/usr/include/finclude/math-vector-fortran.h
REM seed 1757782689 -1645627866 1692082955 -871239494 1834188085 -2039528469 -1978929782 387785049 1753646717 -1105274245 -2070945262 -439159084 23405185 2140820084 1703231197 2088012941 -834500151 -1327502432 788442659 -1817060599 1971770771 1608179535 -1060531264 1342091893 951965714 195927747 -1105793714 -1460730484 -810550484 -421161740 1098868895 1307921221 -32736966
REM
CELL 1.54180   50.00000   50.00000   50.00000   90.00000   90.00000   90.00000
LATT -1
SFAC C  
C      1  0.4380080000000  0.5741100000000  0.5050950000000 1.0
C      1  0.4583560000000  0.4852070000000  0.5896850000000 1.0
C      1  0.4391700000000  0.5691470000000  0.5343110000000 1.0
C      1  0.4028360000000  0.4988460000000  0.4783390000000 1.0
C      1  0.5174600000000  0.4373520000000  0.5813520000000 1.0
C      1  0.5455600000000  0.5769590000000  0.4966530000000 1.0
C      1  0.5235820000000  0.5787560000000  0.4239550000000 1.0
C      1  0.4622570000000  0.4774910000000  0.4155200000000 1.0
C      1  0.5015250000000  0.5943720000000  0.4367730000000 1.0
C      1  0.4987380000000  0.5454010000000  0.5711670000000 1.0
C      1  0.4804970000000  0.4077740000000  0.4716030000000 1.0
C      1  0.5107690000000  0.4586920000000  0.4265220000000 1.0
C      1  0.4322880000000  0.4825550000000  0.5664080000000 1.0
C      1  0.5347840000000  0.6014760000000  0.5084270000000 1.0
C      1  0.5445310000000  0.5279900000000  0.5739860000000 1.0
C      1  0.4906090000000  0.4483320000000  0.5848600000000 1.0
C      1  0.5862780000000  0.5130270000000  0.4534800000000 1.0
C      1  0.5115410000000  0.5670840000000  0.5523020000000 1.0
C      1  0.5120620000000  0.6016180000000  0.5078330000000 1.0
C      1  0.5537680000000  0.5023640000000  0.5659660000000 1.0
C      1  0.5783690000000  0.5364100000000  0.4694810000000 1.0
C      1  0.5501320000000  0.4768900000000  0.4923910000000 1.0
C      1  0.5539460000000  0.4731910000000  0.4383510000000 1.0
C      1  0.4597940000000  0.5097760000000  0.5885440000000 1.0
C      1  0.4821490000000  0.6022090000000  0.5072210000000 1.0
C      1  0.5673090000000  0.4996030000000  0.4341640000000 1.0
C      1  0.5455060000000  0.5167660000000  0.4306450000000 1.0
C      1  0.4932980000000  0.4365980000000  0.4370480000000 1.0
C      1  0.4201990000000  0.5099990000000  0.4303880000000 1.0
C      1  0.5252620000000  0.5524410000000  0.4125900000000 1.0
C      1  0.5685930000000  0.5017870000000  0.5403750000000 1.0
C      1  0.4423010000000  0.4968160000000  0.4177470000000 1.0
C      1  0.4793940000000  0.5318980000000  0.4997230000000 1.0
C      1  0.5372780000000  0.5519890000000  0.5098770000000 1.0
C      1  0.5357450000000  0.5582440000000  0.5389940000000 1.0
C      1  0.4741800000000  0.4573150000000  0.4956580000000 1.0
C      1  0.4943560000000  0.4126050000000  0.4974050000000 1.0
C      1  0.4018470000000  0.5086240000000  0.5056370000000 1.0
C      1  0.5319730000000  0.4987550000000  0.4935870000000 1.0
C      1  0.4246110000000  0.5293440000000  0.5605100000000 1.0
C      1  0.5008880000000  0.5346540000000  0.4078500000000 1.0
C      1  0.5103860000000  0.4483660000000  0.5289810000000 1.0
C      1  0.4145830000000  0.4633100000000  0.5242470000000 1.0
C      1  0.5003370000000  0.4415580000000  0.5023880000000 1.0
C      1  0.4409150000000  0.5532820000000  0.4496000000000 1.0
C      1  0.4632240000000  0.5718110000000  0.5514250000000 1.0
C      1  0.4862600000000  0.4773210000000  0.5912520000000 1.0
C      1  0.4553150000000  0.4216820000000  0.4681030000000 1.0
C      1  0.4923050000000  0.4793160000000  0.4111210000000 1.0
C      1  0.4232700000000  0.5455280000000  0.5374440000000 1.0
C      1  0.5720630000000  0.4293420000000  0.4648300000000 1.0
C      1  0.5201570000000  0.4128810000000  0.5636620000000 1.0
C      1  0.4741850000000  0.5877260000000  0.4432460000000 1.0
C      1  0.4641130000000  0.5598420000000  0.4361840000000 1.0
C      1  0.5194640000000  0.4207160000000  0.5350110000000 1.0
C      1  0.4558990000000  0.4511730000000  0.5535140000000 1.0
C      1  0.5496710000000  0.4265580000000  0.4445780000000 1.0
C      1  0.5357770000000  0.4829330000000  0.5796870000000 1.0
C      1  0.4654070000000  0.4126040000000  0.5508230000000 1.0
C      1  0.4487170000000  0.5337590000000  0.5798550000000 1.0
C      1  0.5021420000000  0.4138110000000  0.4517280000000 1.0
C      1  0.4371620000000  0.4281150000000  0.4915840000000 1.0
C      1  0.5169200000000  0.5234880000000  0.5832080000000 1.0
C      1  0.4645400000000  0.4374260000000  0.4452810000000 1.0
C      1  0.5596450000000  0.4272710000000  0.4917270000000 1.0
C      1  0.5937070000000  0.4873480000000  0.5410550000000 1.0
C      1  0.5948310000000  0.4729660000000  0.4474090000000 1.0
C      1  0.5272660000000  0.5290270000000  0.4934950000000 1.0
C      1  0.4685370000000  0.5535880000000  0.5728660000000 1.0
C      1  0.5583420000000  0.5476240000000  0.5553790000000 1.0
C      1  0.4499920000000  0.5176780000000  0.4968060000000 1.0
C      1  0.4085550000000  0.5181070000000  0.4570730000000 1.0
C      1  0.5863920000000  0.4509450000000  0.4565450000000 1.0
C      1  0.4049320000000  0.4914330000000  0.5285250000000 1.0
C      1  0.5013950000000  0.4724140000000  0.5442990000000 1.0
C      1  0.5631680000000  0.4472070000000  0.5599630000000 1.0
C      1  0.4555930000000  0.4177950000000  0.5263520000000 1.0
C      1  0.5640180000000  0.5146140000000  0.5139380000000 1.0
C      1  0.4909890000000  0.4712050000000  0.4736040000000 1.0
C      1  0.4204170000000  0.5326630000000  0.5087570000000 1.0
C      1  0.5410390000000  0.4548470000000  0.5773170000000 1.0
C      1  0.4730950000000  0.4741900000000  0.5504130000000 1.0
C      1  0.4148600000000  0.4714340000000  0.4764170000000 1.0
C      1  0.5852950000000  0.4598910000000  0.5466070000000 1.0
C      1  0.4697030000000  0.4317010000000  0.5716770000000 1.0
C      1  0.4831140000000  0.5371280000000  0.4306540000000 1.0
C      1  0.5079450000000  0.4848570000000  0.4933990000000 1.0
C      1  0.5528520000000  0.4514410000000  0.5060870000000 1.0
C      1  0.4927130000000  0.5000900000000  0.5105080000000 1.0
C      1  0.4872640000000  0.5440740000000  0.5259880000000 1.0
C      1  0.4501530000000  0.4617640000000  0.4373840000000 1.0
C      1  0.4788420000000  0.4942950000000  0.4608730000000 1.0
C      1  0.5481120000000  0.5450260000000  0.4283450000000 1.0
C      1  0.5191130000000  0.4037460000000  0.5093490000000 1.0
C      1  0.5625630000000  0.4522730000000  0.5324870000000 1.0
C      1  0.5796770000000  0.5353110000000  0.4996350000000 1.0
C      1  0.5106990000000  0.4953470000000  0.5879640000000 1.0
C      1  0.4555200000000  0.4327200000000  0.5068300000000 1.0
C      1  0.5608130000000  0.5538150000000  0.4541910000000 1.0
C      1  0.4388720000000  0.4780310000000  0.4605030000000 1.0
C      1  0.6076150000000  0.5012970000000  0.5192320000000 1.0
C      1  0.4961200000000  0.5257180000000  0.5460360000000 1.0
C      1  0.6010930000000  0.5311590000000  0.5201550000000 1.0
C      1  0.4764580000000  0.6224030000000  0.4841780000000 1.0
C      1  0.4485270000000  0.4968920000000  0.5179870000000 1.0
C      1  0.5051960000000  0.5002040000000  0.5367240000000 1.0
C      1  0.5836460000000  0.5427250000000  0.5413090000000 1.0
C      1  0.4179140000000  0.5466420000000  0.4629640000000 1.0
C      1  0.5227140000000  0.5072290000000  0.4431810000000 1.0
C      1  0.4530950000000  0.4948290000000  0.5468630000000 1.0
C      1  0.5256920000000  0.4790690000000  0.4454770000000 1.0
C      1  0.5222710000000  0.5823740000000  0.4535720000000 1.0
C      1  0.5435050000000  0.4484680000000  0.4266630000000 1.0
C      1  0.4967060000000  0.5200360000000  0.4533830000000 1.0
C      1  0.4637940000000  0.5998970000000  0.4680980000000 1.0
C      1  0.4631110000000  0.5836880000000  0.4933250000000 1.0
C      1  0.4721850000000  0.4821470000000  0.5105430000000 1.0
C      1  0.5385040000000  0.4078440000000  0.4876640000000 1.0
C      1  0.4273570000000  0.4577250000000  0.5498460000000 1.0
C      1  0.4884340000000  0.5728830000000  0.5354230000000 1.0
C      1  0.5722820000000  0.4939260000000  0.4951320000000 1.0
C      1  0.5303260000000  0.4109000000000  0.4593710000000 1.0
C      1  0.5017270000000  0.5336780000000  0.4806970000000 1.0
C      1  0.6014760000000  0.4885970000000  0.4939240000000 1.0
C      1  0.4197030000000  0.5564020000000  0.4911530000000 1.0
C      1  0.4132040000000  0.5030190000000  0.5550060000000 1.0
C      1  0.4527290000000  0.5016460000000  0.4708500000000 1.0
C      1  0.6049350000000  0.4936140000000  0.4649990000000 1.0
C      1  0.4195520000000  0.4520540000000  0.4973160000000 1.0
C      1  0.4984220000000  0.5062460000000  0.4075890000000 1.0
C      1  0.5471230000000  0.5758100000000  0.4667380000000 1.0
END
