TITL C-884136-4169-35 760109.391033368 125000 -21826.7026441739 0 0 147 (C1) n - 1
REM
REM in /home/nfs/bkarasulu/CARBON/AIRSS/Generating-Clusters/ReaxFF-fromJPCA2015/Units_Real/with-SteepDescent/Only-C1/SD-CG/Try1-3A/FIRE-CG
REM
REM
REM
REM
REM
REM ./C.cell (11c1c37f851c82e70ff6c80c92926a4b)
REM
REM compiler GCC version 9.2.1 20190827 (Red Hat 9.2.1-1)
REM options -cpp -mtune=generic -march=x86-64 -g -O0 -fpre-include=/usr/include/finclude/math-vector-fortran.h
REM seed 22213339 -276860370 612417629 1270062492 1265905279 -476824780 -1690376303 624242661 1755391789 806737691 1893708559 -1618107138 1046633730 649824739 -1803279772 863073974 -99582741 -1782787024 -45227964 -2051604835 -982092319 -1325753970 1647295788 1281732272 -1122829362 3766852 512836170 -1732504827 -1972576159 351695689 160030957 -1465106989 -746455421
REM
CELL 1.54180   50.00000   50.00000   50.00000   90.00000   90.00000   90.00000
LATT -1
SFAC C  
C      1  0.4307150000000  0.4459400000000  0.5014620000000 1.0
C      1  0.4081750000000  0.4588760000000  0.4843240000000 1.0
C      1  0.3963040000000  0.4722790000000  0.5451620000000 1.0
C      1  0.4770560000000  0.4671950000000  0.4560010000000 1.0
C      1  0.5905320000000  0.4983990000000  0.5384570000000 1.0
C      1  0.4827690000000  0.4941760000000  0.4471920000000 1.0
C      1  0.4489310000000  0.4684200000000  0.5086110000000 1.0
C      1  0.4564280000000  0.4508460000000  0.5846020000000 1.0
C      1  0.3982860000000  0.5181180000000  0.5248370000000 1.0
C      1  0.4783740000000  0.4958640000000  0.4863090000000 1.0
C      1  0.4987350000000  0.4555440000000  0.4995430000000 1.0
C      1  0.4427810000000  0.5190710000000  0.5729930000000 1.0
C      1  0.4675740000000  0.4249550000000  0.4363980000000 1.0
C      1  0.4123230000000  0.5291520000000  0.5471760000000 1.0
C      1  0.5375200000000  0.4101260000000  0.5286830000000 1.0
C      1  0.4841510000000  0.4061910000000  0.4767360000000 1.0
C      1  0.5035060000000  0.5382340000000  0.4418340000000 1.0
C      1  0.4612640000000  0.4267420000000  0.5689760000000 1.0
C      1  0.5786060000000  0.5449950000000  0.5338620000000 1.0
C      1  0.5289020000000  0.5869310000000  0.4497780000000 1.0
C      1  0.5311400000000  0.4812750000000  0.5512880000000 1.0
C      1  0.4827610000000  0.5700580000000  0.5585080000000 1.0
C      1  0.5759010000000  0.4668410000000  0.5605050000000 1.0
C      1  0.4269210000000  0.5039360000000  0.5533480000000 1.0
C      1  0.5497440000000  0.5220580000000  0.4140550000000 1.0
C      1  0.5118440000000  0.5003120000000  0.4823600000000 1.0
C      1  0.5232250000000  0.5706020000000  0.5504760000000 1.0
C      1  0.5405010000000  0.4972690000000  0.5269370000000 1.0
C      1  0.4030810000000  0.5487090000000  0.4829330000000 1.0
C      1  0.4404310000000  0.4956430000000  0.4290320000000 1.0
C      1  0.5953570000000  0.4506200000000  0.4761360000000 1.0
C      1  0.4514410000000  0.4971720000000  0.5898740000000 1.0
C      1  0.5848250000000  0.4904170000000  0.4411240000000 1.0
C      1  0.4916520000000  0.4959750000000  0.5312380000000 1.0
C      1  0.5983530000000  0.4852220000000  0.5133780000000 1.0
C      1  0.5180690000000  0.5920300000000  0.4762510000000 1.0
C      1  0.4684730000000  0.5625580000000  0.5831780000000 1.0
C      1  0.5794860000000  0.4408220000000  0.4544520000000 1.0
C      1  0.4899540000000  0.4257600000000  0.5610950000000 1.0
C      1  0.5399730000000  0.4369220000000  0.4169140000000 1.0
C      1  0.5753010000000  0.5722360000000  0.4951510000000 1.0
C      1  0.5809150000000  0.4937680000000  0.5659380000000 1.0
C      1  0.5348520000000  0.5428380000000  0.4689820000000 1.0
C      1  0.5545290000000  0.5818610000000  0.5130310000000 1.0
C      1  0.5912800000000  0.4578130000000  0.5047440000000 1.0
C      1  0.4355040000000  0.4683510000000  0.4365740000000 1.0
C      1  0.5951240000000  0.4636780000000  0.4480530000000 1.0
C      1  0.5098940000000  0.4093000000000  0.5188940000000 1.0
C      1  0.5394920000000  0.4312190000000  0.5508470000000 1.0
C      1  0.4569670000000  0.5420060000000  0.5287490000000 1.0
C      1  0.5069800000000  0.5230220000000  0.5434190000000 1.0
C      1  0.4647790000000  0.5090860000000  0.4640240000000 1.0
C      1  0.4844940000000  0.4026140000000  0.5056770000000 1.0
C      1  0.4479760000000  0.4172290000000  0.5445550000000 1.0
C      1  0.4147790000000  0.4811950000000  0.5665710000000 1.0
C      1  0.5095600000000  0.4562990000000  0.5864490000000 1.0
C      1  0.5386550000000  0.4668190000000  0.4583300000000 1.0
C      1  0.5621360000000  0.5683040000000  0.5383490000000 1.0
C      1  0.4227010000000  0.4526540000000  0.4598780000000 1.0
C      1  0.5815740000000  0.5705290000000  0.4665820000000 1.0
C      1  0.5688060000000  0.5177140000000  0.5358780000000 1.0
C      1  0.5555510000000  0.5460930000000  0.4297190000000 1.0
C      1  0.5231270000000  0.5398100000000  0.5089350000000 1.0
C      1  0.4756090000000  0.5726460000000  0.4257610000000 1.0
C      1  0.5388740000000  0.4235900000000  0.4908730000000 1.0
C      1  0.3918730000000  0.4904980000000  0.5215510000000 1.0
C      1  0.5324330000000  0.5552550000000  0.4446180000000 1.0
C      1  0.5228130000000  0.5193280000000  0.4026700000000 1.0
C      1  0.5343710000000  0.4186990000000  0.4639040000000 1.0
C      1  0.4104330000000  0.4488120000000  0.5420870000000 1.0
C      1  0.5112290000000  0.4941900000000  0.3937730000000 1.0
C      1  0.4928250000000  0.5488690000000  0.5932110000000 1.0
C      1  0.5139820000000  0.5860190000000  0.4262860000000 1.0
C      1  0.5837900000000  0.4981080000000  0.4698980000000 1.0
C      1  0.4613150000000  0.4537960000000  0.4354170000000 1.0
C      1  0.5352430000000  0.4583700000000  0.5366300000000 1.0
C      1  0.4544740000000  0.5826470000000  0.5150290000000 1.0
C      1  0.5477290000000  0.5631490000000  0.5633810000000 1.0
C      1  0.4372640000000  0.4311780000000  0.4729710000000 1.0
C      1  0.4734940000000  0.4653360000000  0.4867190000000 1.0
C      1  0.4481530000000  0.4833990000000  0.5334770000000 1.0
C      1  0.5165020000000  0.5312060000000  0.5884220000000 1.0
C      1  0.5606730000000  0.4973000000000  0.4258760000000 1.0
C      1  0.6034720000000  0.5037690000000  0.4911810000000 1.0
C      1  0.5223880000000  0.5455340000000  0.5359900000000 1.0
C      1  0.4595160000000  0.4154170000000  0.4631210000000 1.0
C      1  0.4404430000000  0.5414840000000  0.5060430000000 1.0
C      1  0.5703700000000  0.4421490000000  0.5497400000000 1.0
C      1  0.4991600000000  0.5706870000000  0.4090050000000 1.0
C      1  0.4101060000000  0.5257820000000  0.4637790000000 1.0
C      1  0.5143810000000  0.5517990000000  0.4854260000000 1.0
C      1  0.4404000000000  0.5182720000000  0.4513230000000 1.0
C      1  0.4873150000000  0.5401110000000  0.5545150000000 1.0
C      1  0.4603100000000  0.5027370000000  0.4085980000000 1.0
C      1  0.5584210000000  0.4184390000000  0.5106080000000 1.0
C      1  0.5444600000000  0.4714950000000  0.5132100000000 1.0
C      1  0.4250390000000  0.5550450000000  0.5510980000000 1.0
C      1  0.5978530000000  0.5473040000000  0.4634720000000 1.0
C      1  0.5380910000000  0.4926400000000  0.4447490000000 1.0
C      1  0.4710010000000  0.4862820000000  0.5500610000000 1.0
C      1  0.4133330000000  0.5709850000000  0.4996990000000 1.0
C      1  0.4961810000000  0.4642620000000  0.5262390000000 1.0
C      1  0.4409990000000  0.5519860000000  0.5751630000000 1.0
C      1  0.4283710000000  0.5746340000000  0.5251520000000 1.0
C      1  0.5068060000000  0.4119950000000  0.4582130000000 1.0
C      1  0.5368220000000  0.4769800000000  0.4848480000000 1.0
C      1  0.4626680000000  0.5272850000000  0.5518700000000 1.0
C      1  0.4780620000000  0.4905750000000  0.5829970000000 1.0
C      1  0.4675670000000  0.5325680000000  0.5047090000000 1.0
C      1  0.4662040000000  0.4201080000000  0.5216560000000 1.0
C      1  0.4008850000000  0.5039620000000  0.4758940000000 1.0
C      1  0.5581640000000  0.4987990000000  0.4831020000000 1.0
C      1  0.4807250000000  0.5871740000000  0.5041130000000 1.0
C      1  0.5287100000000  0.5933210000000  0.5036480000000 1.0
C      1  0.4839340000000  0.4397840000000  0.5356180000000 1.0
C      1  0.5450460000000  0.5371090000000  0.5759200000000 1.0
C      1  0.4816820000000  0.4629060000000  0.5914950000000 1.0
C      1  0.3929510000000  0.4828510000000  0.4928550000000 1.0
C      1  0.4700180000000  0.5299040000000  0.4058380000000 1.0
C      1  0.4253670000000  0.4292860000000  0.5301410000000 1.0
C      1  0.5039120000000  0.5953980000000  0.5197770000000 1.0
C      1  0.5226800000000  0.4820900000000  0.5791830000000 1.0
C      1  0.5471040000000  0.5171890000000  0.4652260000000 1.0
C      1  0.5774560000000  0.4380670000000  0.5216510000000 1.0
C      1  0.5076200000000  0.5090050000000  0.4528780000000 1.0
C      1  0.5224660000000  0.5118230000000  0.5072150000000 1.0
C      1  0.5018730000000  0.5900560000000  0.5486030000000 1.0
C      1  0.4804040000000  0.5561200000000  0.4517750000000 1.0
C      1  0.5121390000000  0.4398740000000  0.4145060000000 1.0
C      1  0.5789360000000  0.5539840000000  0.4436120000000 1.0
C      1  0.5651310000000  0.5200740000000  0.5641960000000 1.0
C      1  0.6020650000000  0.5329420000000  0.4887310000000 1.0
C      1  0.4141810000000  0.5307460000000  0.5035020000000 1.0
C      1  0.4960590000000  0.4216350000000  0.4331480000000 1.0
C      1  0.4767950000000  0.5070650000000  0.5094020000000 1.0
C      1  0.5161060000000  0.4328790000000  0.5713000000000 1.0
C      1  0.4555320000000  0.5517940000000  0.4180450000000 1.0
C      1  0.5899940000000  0.5508200000000  0.5078630000000 1.0
C      1  0.4531310000000  0.5439630000000  0.4461720000000 1.0
C      1  0.5028040000000  0.4690450000000  0.4063900000000 1.0
C      1  0.4821740000000  0.4857770000000  0.3963790000000 1.0
C      1  0.4369280000000  0.4732050000000  0.5838030000000 1.0
C      1  0.5069740000000  0.5043470000000  0.5882550000000 1.0
C      1  0.5480280000000  0.4405000000000  0.4487950000000 1.0
C      1  0.5140990000000  0.4314570000000  0.5008880000000 1.0
C      1  0.4997480000000  0.5382480000000  0.4102570000000 1.0
C      1  0.4943240000000  0.5733820000000  0.4794570000000 1.0
END
