TITL C-884140-4336-139 -37.1568506386811 125000 -8998.39546828772 0 0 61 (C1) n - 1
REM
REM in /home/nfs/bkarasulu/CARBON/AIRSS/Generating-Clusters/ReaxFF-fromJPCA2015/Units_Real/with-SteepDescent/Only-C1/SD-CG/Try1-3A/FIRE-CG
REM
REM
REM
REM
REM
REM ./C.cell (11c1c37f851c82e70ff6c80c92926a4b)
REM
REM compiler GCC version 9.2.1 20190827 (Red Hat 9.2.1-1)
REM options -cpp -mtune=generic -march=x86-64 -g -O0 -fpre-include=/usr/include/finclude/math-vector-fortran.h
REM seed 1927497861 1483067815 176030981 -50869248 -1273384531 1037657041 467357930 213995147 1870744715 1378008332 -376845638 2032935973 729481160 177624337 -849446566 377998721 49108017 -1971364049 -2108269467 1049400793 1502699873 -868862243 -301175116 -728422864 -1156028643 -1793369036 -1145469617 -758407090 -50708032 823880629 602273679 1740536872 -137545973
REM
CELL 1.54180   50.00000   50.00000   50.00000   90.00000   90.00000   90.00000
LATT -1
SFAC C  
C      1  0.5189570000000  0.4813450000000  0.5405620000000 1.0
C      1  0.4950630000000  0.4311910000000  0.5374290000000 1.0
C      1  0.5157100000000  0.5109630000000  0.4818460000000 1.0
C      1  0.5844080000000  0.5038910000000  0.4961750000000 1.0
C      1  0.5163460000000  0.4880820000000  0.5814470000000 1.0
C      1  0.4716990000000  0.5050880000000  0.4454400000000 1.0
C      1  0.5179100000000  0.4432950000000  0.5037700000000 1.0
C      1  0.4670270000000  0.4324830000000  0.5481790000000 1.0
C      1  0.5346540000000  0.4851410000000  0.4782430000000 1.0
C      1  0.5040620000000  0.4511780000000  0.4577590000000 1.0
C      1  0.5159480000000  0.4920680000000  0.4323270000000 1.0
C      1  0.4949140000000  0.5411820000000  0.4350270000000 1.0
C      1  0.4820820000000  0.4519230000000  0.4771140000000 1.0
C      1  0.5170010000000  0.5498630000000  0.5382860000000 1.0
C      1  0.5405710000000  0.5436630000000  0.5250200000000 1.0
C      1  0.5310510000000  0.5359360000000  0.4713210000000 1.0
C      1  0.4597670000000  0.5672990000000  0.4983270000000 1.0
C      1  0.4777250000000  0.5209150000000  0.5133740000000 1.0
C      1  0.4725470000000  0.5097810000000  0.5611860000000 1.0
C      1  0.4628910000000  0.4774540000000  0.5357430000000 1.0
C      1  0.4904040000000  0.5020300000000  0.4726160000000 1.0
C      1  0.5234600000000  0.4574260000000  0.4786560000000 1.0
C      1  0.4839970000000  0.5647780000000  0.5161850000000 1.0
C      1  0.4765960000000  0.5578810000000  0.4760640000000 1.0
C      1  0.4487950000000  0.4700120000000  0.4597730000000 1.0
C      1  0.5614000000000  0.4761500000000  0.5607700000000 1.0
C      1  0.4314640000000  0.4969620000000  0.4954060000000 1.0
C      1  0.4478700000000  0.4995680000000  0.5472040000000 1.0
C      1  0.4819060000000  0.5350140000000  0.5556800000000 1.0
C      1  0.5174350000000  0.5527270000000  0.4478490000000 1.0
C      1  0.4370170000000  0.5220160000000  0.4822780000000 1.0
C      1  0.5396920000000  0.4808970000000  0.5776640000000 1.0
C      1  0.4950170000000  0.4247290000000  0.5084850000000 1.0
C      1  0.4787140000000  0.4917100000000  0.5149710000000 1.0
C      1  0.4366140000000  0.4690870000000  0.4853200000000 1.0
C      1  0.4831050000000  0.4792760000000  0.4891540000000 1.0
C      1  0.4403060000000  0.5450420000000  0.5016210000000 1.0
C      1  0.4663630000000  0.4754070000000  0.4391320000000 1.0
C      1  0.4964410000000  0.4705100000000  0.4368800000000 1.0
C      1  0.5568270000000  0.5193290000000  0.5341310000000 1.0
C      1  0.5405690000000  0.4942010000000  0.4496050000000 1.0
C      1  0.4913460000000  0.5597530000000  0.5456640000000 1.0
C      1  0.5800160000000  0.4644120000000  0.4991210000000 1.0
C      1  0.4503980000000  0.5249450000000  0.4561350000000 1.0
C      1  0.4499320000000  0.4504660000000  0.5313780000000 1.0
C      1  0.4957080000000  0.5123010000000  0.4278950000000 1.0
C      1  0.5454310000000  0.5509830000000  0.4959860000000 1.0
C      1  0.5842950000000  0.5187620000000  0.5222830000000 1.0
C      1  0.5543510000000  0.5186460000000  0.4560900000000 1.0
C      1  0.4468250000000  0.4465320000000  0.5026500000000 1.0
C      1  0.4702160000000  0.4314550000000  0.4935400000000 1.0
C      1  0.5008810000000  0.4921160000000  0.5625700000000 1.0
C      1  0.5697430000000  0.5447110000000  0.4841050000000 1.0
C      1  0.5475540000000  0.4908730000000  0.5346100000000 1.0
C      1  0.5790320000000  0.5208710000000  0.4718510000000 1.0
C      1  0.4681970000000  0.5465320000000  0.4510320000000 1.0
C      1  0.5598040000000  0.4830910000000  0.5024980000000 1.0
C      1  0.4921580000000  0.5417880000000  0.4989160000000 1.0
C      1  0.5150460000000  0.4535930000000  0.5313440000000 1.0
C      1  0.4332270000000  0.5096430000000  0.5220190000000 1.0
C      1  0.4515170000000  0.5310360000000  0.5222980000000 1.0
END
