TITL C-883731-9874-174 2.56660302125582 125000 -24546.2558552309 0 0 165 (C1) n - 1
REM
REM in /home/nfs/bkarasulu/CARBON/AIRSS/Generating-Clusters/ReaxFF-fromJPCA2015/Units_Real/with-SteepDescent/Only-C1/SD-CG/Try1-3A/FIRE-CG
REM
REM
REM
REM
REM
REM ./C.cell (11c1c37f851c82e70ff6c80c92926a4b)
REM
REM compiler GCC version 9.2.1 20190827 (Red Hat 9.2.1-1)
REM options -cpp -mtune=generic -march=x86-64 -g -O0 -fpre-include=/usr/include/finclude/math-vector-fortran.h
REM seed -1825239221 1521145857 626271432 -1938757794 1949668819 -1629530843 -881943447 -1730542426 818325217 -484037737 233059607 1575049893 1441945223 -6537332 1773120512 -559322424 364719209 -994190325 -748468780 -822452685 -711611930 -1567696097 -834738399 -211438336 -430184498 258050364 -1184983841 -239161712 2133398229 -1617667761 564865872 -1745260881 -1712786770
REM
CELL 1.54180   50.00000   50.00000   50.00000   90.00000   90.00000   90.00000
LATT -1
SFAC C  
C      1  0.5949800000000  0.5294050000000  0.4660360000000 1.0
C      1  0.4922450000000  0.5488950000000  0.4035470000000 1.0
C      1  0.4093280000000  0.4455150000000  0.4390170000000 1.0
C      1  0.4711970000000  0.4058240000000  0.5441740000000 1.0
C      1  0.5451220000000  0.5510900000000  0.5960090000000 1.0
C      1  0.4691840000000  0.4538470000000  0.4658160000000 1.0
C      1  0.5238270000000  0.5866940000000  0.4370740000000 1.0
C      1  0.4801280000000  0.5997050000000  0.5235610000000 1.0
C      1  0.5362500000000  0.4826800000000  0.5406680000000 1.0
C      1  0.4570730000000  0.5854680000000  0.4575640000000 1.0
C      1  0.5347790000000  0.3974900000000  0.4606250000000 1.0
C      1  0.4872430000000  0.6080600000000  0.4990510000000 1.0
C      1  0.4789280000000  0.4382060000000  0.5855290000000 1.0
C      1  0.5518380000000  0.6049700000000  0.5140060000000 1.0
C      1  0.5548030000000  0.5673120000000  0.5726570000000 1.0
C      1  0.4217460000000  0.4273540000000  0.4898460000000 1.0
C      1  0.4011920000000  0.4759700000000  0.4760630000000 1.0
C      1  0.5239370000000  0.4481350000000  0.4815400000000 1.0
C      1  0.5398200000000  0.4224530000000  0.5730970000000 1.0
C      1  0.5304070000000  0.4798710000000  0.5118680000000 1.0
C      1  0.5940870000000  0.4880300000000  0.4946530000000 1.0
C      1  0.4491560000000  0.4480570000000  0.5534540000000 1.0
C      1  0.5160740000000  0.4580870000000  0.4291850000000 1.0
C      1  0.4155410000000  0.4509870000000  0.4670220000000 1.0
C      1  0.4480770000000  0.4585740000000  0.5032850000000 1.0
C      1  0.5754050000000  0.5279620000000  0.4225940000000 1.0
C      1  0.4575050000000  0.4311600000000  0.4517920000000 1.0
C      1  0.5527960000000  0.4857390000000  0.4241430000000 1.0
C      1  0.5783490000000  0.5527420000000  0.4638810000000 1.0
C      1  0.6036080000000  0.5173810000000  0.4941730000000 1.0
C      1  0.5101380000000  0.5933360000000  0.5619850000000 1.0
C      1  0.5541720000000  0.4885060000000  0.4961940000000 1.0
C      1  0.4745090000000  0.4468190000000  0.5375850000000 1.0
C      1  0.4390020000000  0.5710970000000  0.5230900000000 1.0
C      1  0.4832480000000  0.4595960000000  0.3881360000000 1.0
C      1  0.6000760000000  0.4978640000000  0.5406380000000 1.0
C      1  0.4552090000000  0.5493180000000  0.5935560000000 1.0
C      1  0.5655960000000  0.5221280000000  0.5622820000000 1.0
C      1  0.4722220000000  0.5179200000000  0.5010120000000 1.0
C      1  0.5462180000000  0.4767200000000  0.5948140000000 1.0
C      1  0.5398930000000  0.5706000000000  0.4209070000000 1.0
C      1  0.5175570000000  0.5614410000000  0.4063850000000 1.0
C      1  0.5081020000000  0.5516000000000  0.5657640000000 1.0
C      1  0.5523410000000  0.4957320000000  0.4682390000000 1.0
C      1  0.4683160000000  0.4060720000000  0.5126600000000 1.0
C      1  0.5508630000000  0.5521040000000  0.4603360000000 1.0
C      1  0.4837720000000  0.4213250000000  0.4202050000000 1.0
C      1  0.5723730000000  0.4852770000000  0.5879280000000 1.0
C      1  0.5504760000000  0.6072530000000  0.5417110000000 1.0
C      1  0.6149250000000  0.4985920000000  0.4853580000000 1.0
C      1  0.5893930000000  0.4808840000000  0.5632710000000 1.0
C      1  0.4948620000000  0.4605810000000  0.5949380000000 1.0
C      1  0.4531050000000  0.5614140000000  0.4409180000000 1.0
C      1  0.5618040000000  0.4469900000000  0.5170480000000 1.0
C      1  0.4202540000000  0.4483590000000  0.5090520000000 1.0
C      1  0.4863470000000  0.4157280000000  0.5662260000000 1.0
C      1  0.4747930000000  0.5303490000000  0.5818490000000 1.0
C      1  0.5878970000000  0.4534740000000  0.5279200000000 1.0
C      1  0.5183980000000  0.4087110000000  0.5064790000000 1.0
C      1  0.4704850000000  0.5692120000000  0.5157930000000 1.0
C      1  0.4822610000000  0.4747660000000  0.5316860000000 1.0
C      1  0.5422910000000  0.4431030000000  0.5368770000000 1.0
C      1  0.5269020000000  0.4192980000000  0.5345770000000 1.0
C      1  0.4091090000000  0.5167870000000  0.4404780000000 1.0
C      1  0.4342780000000  0.5284560000000  0.5994850000000 1.0
C      1  0.4516650000000  0.4803760000000  0.5213460000000 1.0
C      1  0.4167650000000  0.5608560000000  0.5062640000000 1.0
C      1  0.4342590000000  0.4695320000000  0.5421530000000 1.0
C      1  0.4349380000000  0.5800170000000  0.4731310000000 1.0
C      1  0.4312870000000  0.5020640000000  0.5866100000000 1.0
C      1  0.4519820000000  0.4499900000000  0.5825740000000 1.0
C      1  0.5854620000000  0.4574820000000  0.4511700000000 1.0
C      1  0.4881690000000  0.5226980000000  0.4747910000000 1.0
C      1  0.4857000000000  0.5948110000000  0.4730800000000 1.0
C      1  0.5367230000000  0.5179180000000  0.4595660000000 1.0
C      1  0.5040590000000  0.6090780000000  0.5372650000000 1.0
C      1  0.5185210000000  0.5287160000000  0.5532010000000 1.0
C      1  0.4784110000000  0.4821200000000  0.5836950000000 1.0
C      1  0.4073210000000  0.5427140000000  0.4539330000000 1.0
C      1  0.5304050000000  0.5044390000000  0.4340700000000 1.0
C      1  0.5054780000000  0.5234210000000  0.3947540000000 1.0
C      1  0.5536400000000  0.5374380000000  0.5046800000000 1.0
C      1  0.4913390000000  0.5730130000000  0.5720300000000 1.0
C      1  0.4795410000000  0.4968310000000  0.4579090000000 1.0
C      1  0.5176870000000  0.5062240000000  0.6069430000000 1.0
C      1  0.4739110000000  0.5465160000000  0.4723390000000 1.0
C      1  0.4957970000000  0.5081410000000  0.5115590000000 1.0
C      1  0.5165440000000  0.5273310000000  0.4775880000000 1.0
C      1  0.5399800000000  0.5768040000000  0.4743730000000 1.0
C      1  0.5433670000000  0.4015310000000  0.4864770000000 1.0
C      1  0.5720570000000  0.5496800000000  0.5556780000000 1.0
C      1  0.4108720000000  0.4439220000000  0.4161250000000 1.0
C      1  0.5201530000000  0.4752260000000  0.6027630000000 1.0
C      1  0.4522690000000  0.4933970000000  0.4682090000000 1.0
C      1  0.5589380000000  0.5110300000000  0.4054180000000 1.0
C      1  0.4821710000000  0.5474840000000  0.5304940000000 1.0
C      1  0.4477510000000  0.5410260000000  0.4633380000000 1.0
C      1  0.5023240000000  0.4810110000000  0.5035940000000 1.0
C      1  0.5525740000000  0.4444560000000  0.4895800000000 1.0
C      1  0.4412770000000  0.4825710000000  0.4076980000000 1.0
C      1  0.5046740000000  0.4355500000000  0.4991800000000 1.0
C      1  0.5074140000000  0.5340900000000  0.5237210000000 1.0
C      1  0.3852030000000  0.5176650000000  0.5240080000000 1.0
C      1  0.5986570000000  0.5232290000000  0.5269340000000 1.0
C      1  0.4682120000000  0.5315070000000  0.5498100000000 1.0
C      1  0.5728190000000  0.5591430000000  0.5042510000000 1.0
C      1  0.4468150000000  0.5101900000000  0.5122010000000 1.0
C      1  0.5710830000000  0.4333000000000  0.4502850000000 1.0
C      1  0.5845430000000  0.4535540000000  0.5565110000000 1.0
C      1  0.5656380000000  0.5546770000000  0.4350540000000 1.0
C      1  0.5887800000000  0.5131660000000  0.4430570000000 1.0
C      1  0.5134350000000  0.4610040000000  0.4573270000000 1.0
C      1  0.4991560000000  0.4078700000000  0.4419580000000 1.0
C      1  0.4772640000000  0.5042720000000  0.4279570000000 1.0
C      1  0.4134160000000  0.5626870000000  0.4763060000000 1.0
C      1  0.4597980000000  0.5709440000000  0.5739910000000 1.0
C      1  0.5166450000000  0.4994600000000  0.5562530000000 1.0
C      1  0.5282880000000  0.4103210000000  0.4368370000000 1.0
C      1  0.4908180000000  0.4989820000000  0.4029300000000 1.0
C      1  0.4083970000000  0.5030800000000  0.4669490000000 1.0
C      1  0.3970540000000  0.5455100000000  0.5222050000000 1.0
C      1  0.4463570000000  0.4664570000000  0.4751240000000 1.0
C      1  0.5551700000000  0.5818280000000  0.4980920000000 1.0
C      1  0.4983870000000  0.4445800000000  0.4091200000000 1.0
C      1  0.5312810000000  0.5194440000000  0.4089370000000 1.0
C      1  0.4498460000000  0.4791040000000  0.5894600000000 1.0
C      1  0.4378290000000  0.4523250000000  0.4098660000000 1.0
C      1  0.4448440000000  0.5198550000000  0.5397880000000 1.0
C      1  0.4758450000000  0.4374420000000  0.5094280000000 1.0
C      1  0.4451870000000  0.5718210000000  0.5499580000000 1.0
C      1  0.5251400000000  0.5395990000000  0.5005260000000 1.0
C      1  0.3998770000000  0.4696100000000  0.5041810000000 1.0
C      1  0.5641730000000  0.4202300000000  0.4783500000000 1.0
C      1  0.4565190000000  0.4319520000000  0.4227030000000 1.0
C      1  0.5607560000000  0.5109290000000  0.5139830000000 1.0
C      1  0.6026300000000  0.4773610000000  0.5184310000000 1.0
C      1  0.3941540000000  0.4894780000000  0.5249620000000 1.0
C      1  0.4654850000000  0.5495140000000  0.4174120000000 1.0
C      1  0.4913100000000  0.4717860000000  0.4704780000000 1.0
C      1  0.4108970000000  0.4849730000000  0.5476210000000 1.0
C      1  0.4919830000000  0.3961370000000  0.4960320000000 1.0
C      1  0.4299980000000  0.5067920000000  0.4194490000000 1.0
C      1  0.5482040000000  0.4330040000000  0.4306370000000 1.0
C      1  0.5416910000000  0.4588220000000  0.4203220000000 1.0
C      1  0.5728360000000  0.4865920000000  0.4487530000000 1.0
C      1  0.5295670000000  0.6175370000000  0.5253520000000 1.0
C      1  0.3979660000000  0.5298480000000  0.5464040000000 1.0
C      1  0.4803410000000  0.5690140000000  0.4885220000000 1.0
C      1  0.5575640000000  0.5035110000000  0.5412420000000 1.0
C      1  0.4898810000000  0.4884720000000  0.5570700000000 1.0
C      1  0.4668290000000  0.4844200000000  0.3916320000000 1.0
C      1  0.5573460000000  0.4401200000000  0.5620320000000 1.0
C      1  0.4355870000000  0.5155960000000  0.4733810000000 1.0
C      1  0.4201380000000  0.5105640000000  0.5577280000000 1.0
C      1  0.4551960000000  0.5218210000000  0.4179910000000 1.0
C      1  0.4573460000000  0.4052350000000  0.4671860000000 1.0
C      1  0.4858910000000  0.3982850000000  0.4675970000000 1.0
C      1  0.5661770000000  0.5139940000000  0.5912230000000 1.0
C      1  0.5174600000000  0.5913610000000  0.4631550000000 1.0
C      1  0.5174130000000  0.4116300000000  0.5609140000000 1.0
C      1  0.5392690000000  0.5899920000000  0.5622950000000 1.0
C      1  0.5860890000000  0.5488750000000  0.5297510000000 1.0
C      1  0.5428000000000  0.5239360000000  0.6066160000000 1.0
C      1  0.4964740000000  0.5185870000000  0.5950080000000 1.0
C      1  0.4430150000000  0.4084210000000  0.4918560000000 1.0
END
