TITL C-884140-4336-349 0.609914665169149 125000 -2903.99799300018 0 0 21 (C1) n - 1
REM
REM in /home/nfs/bkarasulu/CARBON/AIRSS/Generating-Clusters/ReaxFF-fromJPCA2015/Units_Real/with-SteepDescent/Only-C1/SD-CG/Try1-3A/FIRE-CG
REM
REM
REM
REM
REM
REM ./C.cell (11c1c37f851c82e70ff6c80c92926a4b)
REM
REM compiler GCC version 9.2.1 20190827 (Red Hat 9.2.1-1)
REM options -cpp -mtune=generic -march=x86-64 -g -O0 -fpre-include=/usr/include/finclude/math-vector-fortran.h
REM seed 817024462 -359764051 -1442984988 492616652 775858130 -1487808480 1381794070 1672647907 840022015 1041003761 -1598789649 -1781239645 -1212356281 -1799621844 -1356263716 1532149289 -1315467264 1888711477 1947380435 1046341619 -276141879 1720594995 -1755462775 351479917 -939347500 -513614671 436995523 1113422279 -1031453495 1432747344 -491231364 647535780 -139241234
REM
CELL 1.54180   50.00000   50.00000   50.00000   90.00000   90.00000   90.00000
LATT -1
SFAC C  
C      1  0.5308610000000  0.4868970000000  0.4732470000000 1.0
C      1  0.4642940000000  0.4571000000000  0.4330260000000 1.0
C      1  0.4695220000000  0.5274420000000  0.4837310000000 1.0
C      1  0.5215410000000  0.5310250000000  0.4846350000000 1.0
C      1  0.5287870000000  0.4785130000000  0.5242270000000 1.0
C      1  0.4691860000000  0.5370370000000  0.5111510000000 1.0
C      1  0.5070450000000  0.5472910000000  0.5347000000000 1.0
C      1  0.5090940000000  0.5214530000000  0.5531150000000 1.0
C      1  0.5098420000000  0.4568130000000  0.5196270000000 1.0
C      1  0.5422130000000  0.5095650000000  0.4833920000000 1.0
C      1  0.5030790000000  0.4915430000000  0.4663370000000 1.0
C      1  0.4794990000000  0.5258060000000  0.5603780000000 1.0
C      1  0.5188170000000  0.4998450000000  0.5393930000000 1.0
C      1  0.4927130000000  0.4427830000000  0.5092880000000 1.0
C      1  0.4969520000000  0.5181610000000  0.4733790000000 1.0
C      1  0.5427480000000  0.4858630000000  0.4984990000000 1.0
C      1  0.4530120000000  0.4739510000000  0.4512750000000 1.0
C      1  0.4831480000000  0.4695760000000  0.4661180000000 1.0
C      1  0.5160840000000  0.5415650000000  0.5097980000000 1.0
C      1  0.4849630000000  0.4527040000000  0.4875750000000 1.0
C      1  0.4765990000000  0.5450660000000  0.5371090000000 1.0
END
