TITL C-884135-4325-408 -6.20498944090157 125000 -26077.7910597292 0 0 173 (C1) n - 1
REM
REM in /home/nfs/bkarasulu/CARBON/AIRSS/Generating-Clusters/ReaxFF-fromJPCA2015/Units_Real/with-SteepDescent/Only-C1/SD-CG/Try1-3A/FIRE-CG
REM
REM
REM
REM
REM
REM ./C.cell (11c1c37f851c82e70ff6c80c92926a4b)
REM
REM compiler GCC version 9.2.1 20190827 (Red Hat 9.2.1-1)
REM options -cpp -mtune=generic -march=x86-64 -g -O0 -fpre-include=/usr/include/finclude/math-vector-fortran.h
REM seed 101604450 928261048 255408252 -1917075372 1680265463 -2109330933 1557455097 272808659 713547338 387972025 -915771408 -2138654596 1161662144 564204047 946193368 -1429111283 1351197066 -1897525712 1681349211 1743599235 1222145629 480750243 -1619897984 -1541621402 -2088260562 1451911504 -581289228 -1120544266 289743552 1085691392 -540204203 1063638230 -1697739732
REM
CELL 1.54180   50.00000   50.00000   50.00000   90.00000   90.00000   90.00000
LATT -1
SFAC C  
C      1  0.5291210000000  0.4364160000000  0.5517060000000 1.0
C      1  0.5289920000000  0.4775000000000  0.5621340000000 1.0
C      1  0.4415540000000  0.4802180000000  0.5026290000000 1.0
C      1  0.4670960000000  0.5380470000000  0.5989660000000 1.0
C      1  0.4355340000000  0.4202320000000  0.4913340000000 1.0
C      1  0.5212830000000  0.3832000000000  0.4505510000000 1.0
C      1  0.4935610000000  0.5156590000000  0.4505160000000 1.0
C      1  0.4160280000000  0.4691300000000  0.5146480000000 1.0
C      1  0.4321260000000  0.5720530000000  0.4597620000000 1.0
C      1  0.5308620000000  0.4513720000000  0.5258620000000 1.0
C      1  0.4520180000000  0.5604020000000  0.5843960000000 1.0
C      1  0.4591410000000  0.4885910000000  0.4004430000000 1.0
C      1  0.5551340000000  0.5465460000000  0.5748430000000 1.0
C      1  0.5654730000000  0.5900450000000  0.5143580000000 1.0
C      1  0.4991060000000  0.5705190000000  0.5821790000000 1.0
C      1  0.5996300000000  0.5338930000000  0.5523810000000 1.0
C      1  0.5181580000000  0.5789430000000  0.5615150000000 1.0
C      1  0.5904010000000  0.4551640000000  0.4918100000000 1.0
C      1  0.4448180000000  0.5391010000000  0.4261080000000 1.0
C      1  0.5114490000000  0.6070140000000  0.4802640000000 1.0
C      1  0.4772940000000  0.3910110000000  0.4816130000000 1.0
C      1  0.4412910000000  0.5095670000000  0.4931850000000 1.0
C      1  0.4880150000000  0.4642010000000  0.5023330000000 1.0
C      1  0.5041850000000  0.4313930000000  0.5679770000000 1.0
C      1  0.4655910000000  0.4718800000000  0.5189660000000 1.0
C      1  0.4612440000000  0.5135210000000  0.6205140000000 1.0
C      1  0.5040140000000  0.4883910000000  0.5705500000000 1.0
C      1  0.4396040000000  0.4579940000000  0.4178310000000 1.0
C      1  0.5345740000000  0.4199670000000  0.4171490000000 1.0
C      1  0.6015290000000  0.5035710000000  0.4854340000000 1.0
C      1  0.5099410000000  0.5348760000000  0.4054180000000 1.0
C      1  0.4862910000000  0.4722440000000  0.6034240000000 1.0
C      1  0.4652960000000  0.5301730000000  0.4074510000000 1.0
C      1  0.4487770000000  0.5078240000000  0.4653190000000 1.0
C      1  0.5116290000000  0.4370240000000  0.4068880000000 1.0
C      1  0.5019620000000  0.3847690000000  0.4713040000000 1.0
C      1  0.4810290000000  0.4923600000000  0.3872920000000 1.0
C      1  0.5326940000000  0.5157200000000  0.4879590000000 1.0
C      1  0.5683080000000  0.5325900000000  0.4210930000000 1.0
C      1  0.5579380000000  0.4312070000000  0.5580640000000 1.0
C      1  0.5770960000000  0.5537890000000  0.5573740000000 1.0
C      1  0.5242610000000  0.5701600000000  0.4207340000000 1.0
C      1  0.4775470000000  0.5974400000000  0.4406560000000 1.0
C      1  0.4138570000000  0.4657750000000  0.5711250000000 1.0
C      1  0.6066070000000  0.5314390000000  0.4980370000000 1.0
C      1  0.5595060000000  0.5404600000000  0.5213710000000 1.0
C      1  0.5403860000000  0.6075810000000  0.4759240000000 1.0
C      1  0.4509340000000  0.5840360000000  0.4399660000000 1.0
C      1  0.4176090000000  0.4210300000000  0.5111470000000 1.0
C      1  0.5923620000000  0.5551160000000  0.4858490000000 1.0
C      1  0.4931580000000  0.4173540000000  0.4195940000000 1.0
C      1  0.3898140000000  0.5168110000000  0.4971040000000 1.0
C      1  0.5960010000000  0.5047770000000  0.5560890000000 1.0
C      1  0.5542950000000  0.5168040000000  0.5100080000000 1.0
C      1  0.4085800000000  0.4436680000000  0.5268250000000 1.0
C      1  0.5452630000000  0.5524380000000  0.4180610000000 1.0
C      1  0.4955890000000  0.4084010000000  0.5510020000000 1.0
C      1  0.5830790000000  0.5282820000000  0.4464940000000 1.0
C      1  0.4135970000000  0.5433700000000  0.5504450000000 1.0
C      1  0.4367960000000  0.4486510000000  0.5706040000000 1.0
C      1  0.5202770000000  0.5064570000000  0.4440060000000 1.0
C      1  0.5727050000000  0.4289030000000  0.4525990000000 1.0
C      1  0.5098740000000  0.4972450000000  0.4938920000000 1.0
C      1  0.5154360000000  0.6138310000000  0.5075770000000 1.0
C      1  0.5917460000000  0.5022010000000  0.4580160000000 1.0
C      1  0.5421690000000  0.3921880000000  0.4672060000000 1.0
C      1  0.5100970000000  0.4934820000000  0.5996360000000 1.0
C      1  0.5688950000000  0.5050080000000  0.4156580000000 1.0
C      1  0.5172410000000  0.5245450000000  0.6007570000000 1.0
C      1  0.4824190000000  0.5333200000000  0.5000870000000 1.0
C      1  0.5372820000000  0.4710030000000  0.4102080000000 1.0
C      1  0.4998740000000  0.5285470000000  0.3774420000000 1.0
C      1  0.5793270000000  0.4364330000000  0.5382640000000 1.0
C      1  0.5307170000000  0.5532430000000  0.5604800000000 1.0
C      1  0.4634850000000  0.5953490000000  0.4911790000000 1.0
C      1  0.5400420000000  0.4698140000000  0.4768970000000 1.0
C      1  0.5107930000000  0.5393190000000  0.5398420000000 1.0
C      1  0.4948540000000  0.5094500000000  0.5135950000000 1.0
C      1  0.4537090000000  0.5333440000000  0.5047830000000 1.0
C      1  0.6056620000000  0.5316180000000  0.5254590000000 1.0
C      1  0.5228320000000  0.5488010000000  0.4866110000000 1.0
C      1  0.5137390000000  0.5584060000000  0.5137630000000 1.0
C      1  0.3928480000000  0.5076260000000  0.5250900000000 1.0
C      1  0.4681790000000  0.4857180000000  0.4621910000000 1.0
C      1  0.5787820000000  0.4339360000000  0.5091350000000 1.0
C      1  0.5463230000000  0.5267420000000  0.5957930000000 1.0
C      1  0.4162110000000  0.4704050000000  0.4240340000000 1.0
C      1  0.5444080000000  0.4673890000000  0.5061610000000 1.0
C      1  0.4714870000000  0.5379410000000  0.3787290000000 1.0
C      1  0.5295890000000  0.4479380000000  0.4598360000000 1.0
C      1  0.5029380000000  0.4556660000000  0.4503210000000 1.0
C      1  0.5580760000000  0.5849040000000  0.4701700000000 1.0
C      1  0.3895630000000  0.4793360000000  0.5168040000000 1.0
C      1  0.4512400000000  0.4641760000000  0.4750550000000 1.0
C      1  0.5655520000000  0.4780410000000  0.4207650000000 1.0
C      1  0.5664250000000  0.4054250000000  0.4709430000000 1.0
C      1  0.4737880000000  0.5680370000000  0.5644910000000 1.0
C      1  0.4617510000000  0.4333600000000  0.4868090000000 1.0
C      1  0.4401100000000  0.5791330000000  0.4869520000000 1.0
C      1  0.5419560000000  0.4637730000000  0.5855150000000 1.0
C      1  0.4732800000000  0.4948300000000  0.5342700000000 1.0
C      1  0.4731250000000  0.4013170000000  0.5348160000000 1.0
C      1  0.4827030000000  0.5614120000000  0.4606510000000 1.0
C      1  0.3933220000000  0.4749350000000  0.4684550000000 1.0
C      1  0.5852830000000  0.4934620000000  0.5805230000000 1.0
C      1  0.5623610000000  0.5024980000000  0.5979160000000 1.0
C      1  0.4647920000000  0.5210920000000  0.5490590000000 1.0
C      1  0.5646250000000  0.5650920000000  0.5324360000000 1.0
C      1  0.4186090000000  0.5454060000000  0.4588800000000 1.0
C      1  0.5610120000000  0.4127680000000  0.4991630000000 1.0
C      1  0.5015150000000  0.5861210000000  0.4264130000000 1.0
C      1  0.4887840000000  0.5259740000000  0.4237870000000 1.0
C      1  0.5717800000000  0.5450320000000  0.4679950000000 1.0
C      1  0.3810710000000  0.4891430000000  0.4882790000000 1.0
C      1  0.4136950000000  0.5579450000000  0.5243480000000 1.0
C      1  0.5116200000000  0.5807740000000  0.5320200000000 1.0
C      1  0.4379850000000  0.5583770000000  0.5082520000000 1.0
C      1  0.4076470000000  0.5151090000000  0.5496430000000 1.0
C      1  0.4785830000000  0.4314230000000  0.4426510000000 1.0
C      1  0.4803720000000  0.4783200000000  0.5565450000000 1.0
C      1  0.5120010000000  0.4620800000000  0.4226140000000 1.0
C      1  0.4855630000000  0.5915080000000  0.4703820000000 1.0
C      1  0.4941620000000  0.4781710000000  0.4758520000000 1.0
C      1  0.5367130000000  0.4957260000000  0.5419250000000 1.0
C      1  0.4648160000000  0.5587370000000  0.4381730000000 1.0
C      1  0.4176480000000  0.4947570000000  0.5691430000000 1.0
C      1  0.4354950000000  0.5876570000000  0.5556410000000 1.0
C      1  0.5882400000000  0.4646110000000  0.5760720000000 1.0
C      1  0.3919960000000  0.5598400000000  0.5028890000000 1.0
C      1  0.5916040000000  0.4847000000000  0.5324420000000 1.0
C      1  0.5152720000000  0.3990370000000  0.4239670000000 1.0
C      1  0.4371920000000  0.4008440000000  0.5142190000000 1.0
C      1  0.5284720000000  0.5150500000000  0.4162090000000 1.0
C      1  0.5399520000000  0.4852130000000  0.6047930000000 1.0
C      1  0.4616440000000  0.5936990000000  0.5444260000000 1.0
C      1  0.5171900000000  0.5133650000000  0.5301220000000 1.0
C      1  0.4965610000000  0.6056160000000  0.5265700000000 1.0
C      1  0.4748920000000  0.4159040000000  0.4676330000000 1.0
C      1  0.4816130000000  0.5434230000000  0.5483350000000 1.0
C      1  0.4863770000000  0.4485710000000  0.5849920000000 1.0
C      1  0.4072060000000  0.4599440000000  0.4502490000000 1.0
C      1  0.5586310000000  0.4899490000000  0.5227660000000 1.0
C      1  0.4644840000000  0.3907210000000  0.5112230000000 1.0
C      1  0.4504440000000  0.4412670000000  0.4375450000000 1.0
C      1  0.4931790000000  0.5389690000000  0.4732970000000 1.0
C      1  0.4698140000000  0.6027990000000  0.5180100000000 1.0
C      1  0.5797960000000  0.5809800000000  0.4910550000000 1.0
C      1  0.5941650000000  0.4593610000000  0.5482350000000 1.0
C      1  0.5052390000000  0.4169820000000  0.5061770000000 1.0
C      1  0.4140360000000  0.4433450000000  0.5554700000000 1.0
C      1  0.5991180000000  0.4807340000000  0.5025890000000 1.0
C      1  0.5851900000000  0.4530550000000  0.4627180000000 1.0
C      1  0.5057750000000  0.4991900000000  0.3770390000000 1.0
C      1  0.5331940000000  0.4103470000000  0.5098660000000 1.0
C      1  0.5384020000000  0.4967840000000  0.4652150000000 1.0
C      1  0.4272710000000  0.5614150000000  0.5698180000000 1.0
C      1  0.4576590000000  0.5187670000000  0.5765920000000 1.0
C      1  0.4330880000000  0.4460260000000  0.4598940000000 1.0
C      1  0.5653200000000  0.4467350000000  0.5813860000000 1.0
C      1  0.4610260000000  0.4875690000000  0.6086280000000 1.0
C      1  0.4648960000000  0.4555600000000  0.5664130000000 1.0
C      1  0.4388020000000  0.4887550000000  0.4201290000000 1.0
C      1  0.3977510000000  0.5406730000000  0.4807040000000 1.0
C      1  0.4982380000000  0.5451240000000  0.5968000000000 1.0
C      1  0.5817690000000  0.4773040000000  0.4462300000000 1.0
C      1  0.5139080000000  0.3992210000000  0.5284060000000 1.0
C      1  0.5454450000000  0.5588700000000  0.4694930000000 1.0
C      1  0.5290760000000  0.4945160000000  0.3950350000000 1.0
C      1  0.4311640000000  0.5219990000000  0.4452640000000 1.0
C      1  0.5470850000000  0.4342410000000  0.4400640000000 1.0
C      1  0.5448640000000  0.6090760000000  0.5054430000000 1.0
C      1  0.4835460000000  0.4367830000000  0.5070810000000 1.0
C      1  0.4394280000000  0.4996370000000  0.5873420000000 1.0
END
