TITL C-883726-8501-60 1.26332621695084 125000 -15040.1641559952 0 0 100 (C1) n - 1
REM
REM in /home/nfs/bkarasulu/CARBON/AIRSS/Generating-Clusters/ReaxFF-fromJPCA2015/Units_Real/with-SteepDescent/Only-C1/SD-CG/Try1-3A/FIRE-CG
REM
REM
REM
REM
REM
REM ./C.cell (11c1c37f851c82e70ff6c80c92926a4b)
REM
REM compiler GCC version 9.2.1 20190827 (Red Hat 9.2.1-1)
REM options -cpp -mtune=generic -march=x86-64 -g -O0 -fpre-include=/usr/include/finclude/math-vector-fortran.h
REM seed -1454221902 145530753 398250305 -1515123816 14883525 472410160 -659867590 233806356 438906604 -2114806299 1566151749 394474324 1694104871 -746228543 -815905978 -1221538253 1891684659 2077594361 172824483 139519054 -628004250 -55040777 -91022512 -1026090091 -1229922977 -402119923 -1305842615 777183244 -1772662369 -1755764002 1509444630 -908798631 -228610595
REM
CELL 1.54180   50.00000   50.00000   50.00000   90.00000   90.00000   90.00000
LATT -1
SFAC C  
C      1  0.4343630000000  0.4416050000000  0.4745340000000 1.0
C      1  0.4965380000000  0.4144290000000  0.5127870000000 1.0
C      1  0.5274840000000  0.4214950000000  0.5583320000000 1.0
C      1  0.5279500000000  0.5314570000000  0.5798990000000 1.0
C      1  0.5193400000000  0.5877920000000  0.5019530000000 1.0
C      1  0.4406160000000  0.4494700000000  0.4465390000000 1.0
C      1  0.4064240000000  0.5032180000000  0.5130380000000 1.0
C      1  0.5163430000000  0.4456160000000  0.5731310000000 1.0
C      1  0.4239720000000  0.5402870000000  0.5041390000000 1.0
C      1  0.5060950000000  0.5443500000000  0.5254090000000 1.0
C      1  0.5229080000000  0.5885710000000  0.4718640000000 1.0
C      1  0.5099100000000  0.4846300000000  0.4262690000000 1.0
C      1  0.4773820000000  0.5113710000000  0.5094980000000 1.0
C      1  0.5726560000000  0.4669930000000  0.5157600000000 1.0
C      1  0.4776040000000  0.4273730000000  0.4617980000000 1.0
C      1  0.4618430000000  0.4999610000000  0.4876640000000 1.0
C      1  0.5753210000000  0.4906290000000  0.4709630000000 1.0
C      1  0.5428120000000  0.5781720000000  0.5170790000000 1.0
C      1  0.4345180000000  0.4751840000000  0.4331510000000 1.0
C      1  0.5489920000000  0.5578710000000  0.5383530000000 1.0
C      1  0.5043000000000  0.4719670000000  0.4986760000000 1.0
C      1  0.4905040000000  0.5842360000000  0.5056040000000 1.0
C      1  0.4885760000000  0.5570820000000  0.5452790000000 1.0
C      1  0.5677430000000  0.5328890000000  0.5728540000000 1.0
C      1  0.5042500000000  0.4429250000000  0.4228540000000 1.0
C      1  0.4896940000000  0.4517530000000  0.5642020000000 1.0
C      1  0.4830270000000  0.5618020000000  0.4877700000000 1.0
C      1  0.5289770000000  0.4780700000000  0.5399360000000 1.0
C      1  0.5454830000000  0.4316180000000  0.4975280000000 1.0
C      1  0.4434130000000  0.5220810000000  0.4411740000000 1.0
C      1  0.4478920000000  0.4627670000000  0.5495130000000 1.0
C      1  0.5442870000000  0.4508060000000  0.4477980000000 1.0
C      1  0.4529030000000  0.4725550000000  0.4972930000000 1.0
C      1  0.4876100000000  0.5381060000000  0.5036750000000 1.0
C      1  0.4797720000000  0.5418550000000  0.5680540000000 1.0
C      1  0.4738250000000  0.5776370000000  0.5296310000000 1.0
C      1  0.5392610000000  0.4620590000000  0.5633570000000 1.0
C      1  0.5641550000000  0.4958790000000  0.5578570000000 1.0
C      1  0.5773420000000  0.5182370000000  0.5142750000000 1.0
C      1  0.5019640000000  0.5036730000000  0.5561300000000 1.0
C      1  0.4499580000000  0.4916930000000  0.5457130000000 1.0
C      1  0.4621460000000  0.4547570000000  0.5737420000000 1.0
C      1  0.4806910000000  0.5362980000000  0.4480480000000 1.0
C      1  0.5515540000000  0.5107770000000  0.5798680000000 1.0
C      1  0.5195480000000  0.5559550000000  0.4342520000000 1.0
C      1  0.5129520000000  0.5200460000000  0.4706590000000 1.0
C      1  0.4165630000000  0.5243510000000  0.5288440000000 1.0
C      1  0.4579350000000  0.4254350000000  0.4836220000000 1.0
C      1  0.5462950000000  0.5514380000000  0.5679360000000 1.0
C      1  0.4539160000000  0.5054040000000  0.5863940000000 1.0
C      1  0.4512910000000  0.5705790000000  0.5138210000000 1.0
C      1  0.5566960000000  0.4456550000000  0.4743260000000 1.0
C      1  0.5589710000000  0.4427290000000  0.5224810000000 1.0
C      1  0.5734490000000  0.4661980000000  0.4865000000000 1.0
C      1  0.4863020000000  0.4632200000000  0.5371530000000 1.0
C      1  0.5513150000000  0.4384150000000  0.5505580000000 1.0
C      1  0.5016690000000  0.5250440000000  0.5738700000000 1.0
C      1  0.5241290000000  0.5216120000000  0.5203950000000 1.0
C      1  0.4565940000000  0.4797750000000  0.5863870000000 1.0
C      1  0.4387730000000  0.5605740000000  0.4915400000000 1.0
C      1  0.5737460000000  0.4935010000000  0.5312210000000 1.0
C      1  0.4789110000000  0.4969810000000  0.5367350000000 1.0
C      1  0.5445630000000  0.5748410000000  0.4612440000000 1.0
C      1  0.4241990000000  0.5003670000000  0.4451370000000 1.0
C      1  0.5086890000000  0.4631380000000  0.4739820000000 1.0
C      1  0.5077610000000  0.4330640000000  0.4682330000000 1.0
C      1  0.5816080000000  0.5153530000000  0.4855570000000 1.0
C      1  0.5679110000000  0.5637260000000  0.4727300000000 1.0
C      1  0.5118510000000  0.4162530000000  0.5355500000000 1.0
C      1  0.5582720000000  0.5240120000000  0.4456210000000 1.0
C      1  0.4042040000000  0.4847010000000  0.4918370000000 1.0
C      1  0.5279510000000  0.5100430000000  0.4939450000000 1.0
C      1  0.5757120000000  0.5359330000000  0.4656750000000 1.0
C      1  0.4455540000000  0.5418070000000  0.4627360000000 1.0
C      1  0.5233970000000  0.4321660000000  0.4401630000000 1.0
C      1  0.5306100000000  0.5331570000000  0.4493590000000 1.0
C      1  0.4677910000000  0.4427200000000  0.4407000000000 1.0
C      1  0.5101910000000  0.4633190000000  0.5237180000000 1.0
C      1  0.4346320000000  0.5210160000000  0.4815300000000 1.0
C      1  0.4986670000000  0.5380750000000  0.4232150000000 1.0
C      1  0.5668440000000  0.5683630000000  0.5023490000000 1.0
C      1  0.4808700000000  0.5635300000000  0.4594530000000 1.0
C      1  0.4607640000000  0.4533110000000  0.5217220000000 1.0
C      1  0.5705780000000  0.5460530000000  0.5215920000000 1.0
C      1  0.4351700000000  0.5169700000000  0.5514340000000 1.0
C      1  0.4644500000000  0.5083970000000  0.4236380000000 1.0
C      1  0.4529390000000  0.5297910000000  0.5716240000000 1.0
C      1  0.5192090000000  0.4205790000000  0.4938510000000 1.0
C      1  0.4687030000000  0.4267690000000  0.5100810000000 1.0
C      1  0.4947420000000  0.5093150000000  0.4213080000000 1.0
C      1  0.4115760000000  0.5040220000000  0.4710220000000 1.0
C      1  0.5586820000000  0.4948690000000  0.4470610000000 1.0
C      1  0.5267210000000  0.4820850000000  0.4859220000000 1.0
C      1  0.5054310000000  0.5767320000000  0.4504040000000 1.0
C      1  0.4262280000000  0.4633060000000  0.4923740000000 1.0
C      1  0.5367810000000  0.4776530000000  0.4374820000000 1.0
C      1  0.4865340000000  0.4647080000000  0.4189590000000 1.0
C      1  0.4852350000000  0.5147410000000  0.4680830000000 1.0
C      1  0.5248940000000  0.5046420000000  0.5417670000000 1.0
C      1  0.4586320000000  0.4815650000000  0.4192600000000 1.0
END
