TITL C-884129-4740-201 63.2920050367356 125000 -21151.3535599933 0 0 142 (C1) n - 1
REM
REM in /home/nfs/bkarasulu/CARBON/AIRSS/Generating-Clusters/ReaxFF-fromJPCA2015/Units_Real/with-SteepDescent/Only-C1/SD-CG/Try1-3A/FIRE-CG
REM
REM
REM
REM
REM
REM ./C.cell (11c1c37f851c82e70ff6c80c92926a4b)
REM
REM compiler GCC version 9.2.1 20190827 (Red Hat 9.2.1-1)
REM options -cpp -mtune=generic -march=x86-64 -g -O0 -fpre-include=/usr/include/finclude/math-vector-fortran.h
REM seed 855029588 -1758564008 -1050270179 -1818376100 2085145117 -1025875792 1180358696 40670996 148043902 1785206168 -410089465 -672198133 -673760931 -294397015 1350331778 -1622869584 417390634 779094300 -1849057207 871725041 551079981 197448090 -18810700 2056624939 1420775348 -2014912768 955830402 1624372701 1364138206 -147139135 1157938275 -202530822 1500561819
REM
CELL 1.54180   50.00000   50.00000   50.00000   90.00000   90.00000   90.00000
LATT -1
SFAC C  
C      1  0.5824210000000  0.4359600000000  0.4975020000000 1.0
C      1  0.5302950000000  0.5392750000000  0.5384250000000 1.0
C      1  0.5179890000000  0.4898430000000  0.4157680000000 1.0
C      1  0.6028530000000  0.4537790000000  0.5063770000000 1.0
C      1  0.5850540000000  0.5667260000000  0.4739800000000 1.0
C      1  0.4751760000000  0.5386060000000  0.5879980000000 1.0
C      1  0.5280180000000  0.5325910000000  0.5976480000000 1.0
C      1  0.5539040000000  0.5498640000000  0.4376570000000 1.0
C      1  0.4471900000000  0.5381820000000  0.5787390000000 1.0
C      1  0.4302510000000  0.4237260000000  0.5033790000000 1.0
C      1  0.4398510000000  0.4420210000000  0.5537640000000 1.0
C      1  0.5294440000000  0.4702630000000  0.4589110000000 1.0
C      1  0.5717800000000  0.4951920000000  0.5076040000000 1.0
C      1  0.5582790000000  0.5699220000000  0.5731780000000 1.0
C      1  0.5349650000000  0.4681520000000  0.5287180000000 1.0
C      1  0.5464120000000  0.4830020000000  0.5056270000000 1.0
C      1  0.5081460000000  0.3912940000000  0.4714850000000 1.0
C      1  0.5117310000000  0.4463300000000  0.4951370000000 1.0
C      1  0.5611170000000  0.4452450000000  0.4523080000000 1.0
C      1  0.5258450000000  0.5406160000000  0.3969730000000 1.0
C      1  0.4148640000000  0.5427330000000  0.5435480000000 1.0
C      1  0.5423220000000  0.5362900000000  0.4625020000000 1.0
C      1  0.5305980000000  0.4481120000000  0.4389730000000 1.0
C      1  0.5224060000000  0.4930940000000  0.4466450000000 1.0
C      1  0.4846880000000  0.4806100000000  0.5456070000000 1.0
C      1  0.4229920000000  0.4946250000000  0.5668020000000 1.0
C      1  0.4374660000000  0.4001620000000  0.4858800000000 1.0
C      1  0.4405410000000  0.5691580000000  0.4583900000000 1.0
C      1  0.4967080000000  0.5588340000000  0.5087270000000 1.0
C      1  0.4671290000000  0.3997630000000  0.4833160000000 1.0
C      1  0.5932560000000  0.5407250000000  0.4829030000000 1.0
C      1  0.5117940000000  0.4274370000000  0.4469980000000 1.0
C      1  0.4704310000000  0.5952040000000  0.4806540000000 1.0
C      1  0.4080960000000  0.5284470000000  0.4692390000000 1.0
C      1  0.4865320000000  0.5606850000000  0.4251540000000 1.0
C      1  0.4852740000000  0.4031950000000  0.5103820000000 1.0
C      1  0.5125040000000  0.4394650000000  0.5691350000000 1.0
C      1  0.5684080000000  0.4860180000000  0.5632300000000 1.0
C      1  0.5921240000000  0.4568190000000  0.5325220000000 1.0
C      1  0.5809230000000  0.4458960000000  0.5560300000000 1.0
C      1  0.5036440000000  0.4280960000000  0.5164120000000 1.0
C      1  0.3944680000000  0.4902380000000  0.4903820000000 1.0
C      1  0.4135760000000  0.4652860000000  0.5296250000000 1.0
C      1  0.5463700000000  0.5214120000000  0.3967260000000 1.0
C      1  0.4806650000000  0.5187400000000  0.6100280000000 1.0
C      1  0.4421060000000  0.4235660000000  0.5310550000000 1.0
C      1  0.4664750000000  0.5039300000000  0.4076980000000 1.0
C      1  0.4924340000000  0.4409800000000  0.4132890000000 1.0
C      1  0.5203350000000  0.5113560000000  0.5756230000000 1.0
C      1  0.5239780000000  0.5150060000000  0.4645410000000 1.0
C      1  0.5281620000000  0.5918270000000  0.4525020000000 1.0
C      1  0.4218820000000  0.5476290000000  0.4516400000000 1.0
C      1  0.4713690000000  0.4141790000000  0.5596590000000 1.0
C      1  0.5423070000000  0.4389130000000  0.5284770000000 1.0
C      1  0.5014980000000  0.5833640000000  0.5469810000000 1.0
C      1  0.4067580000000  0.4993470000000  0.4662070000000 1.0
C      1  0.5414250000000  0.5173760000000  0.5537620000000 1.0
C      1  0.4517700000000  0.5152030000000  0.4869640000000 1.0
C      1  0.4771980000000  0.5261410000000  0.5438620000000 1.0
C      1  0.4705900000000  0.4706630000000  0.4427000000000 1.0
C      1  0.5923880000000  0.4857620000000  0.4706020000000 1.0
C      1  0.4891030000000  0.4761320000000  0.4607490000000 1.0
C      1  0.5682090000000  0.3998660000000  0.5276060000000 1.0
C      1  0.4587360000000  0.4466980000000  0.4491890000000 1.0
C      1  0.4759900000000  0.5438110000000  0.5220260000000 1.0
C      1  0.5544120000000  0.4239420000000  0.4704790000000 1.0
C      1  0.4676430000000  0.4973510000000  0.5951820000000 1.0
C      1  0.4739110000000  0.5808110000000  0.5441910000000 1.0
C      1  0.5189910000000  0.4280380000000  0.5417430000000 1.0
C      1  0.5872790000000  0.5406190000000  0.5119200000000 1.0
C      1  0.3843540000000  0.5137370000000  0.5063250000000 1.0
C      1  0.4577930000000  0.5608770000000  0.4339430000000 1.0
C      1  0.4444170000000  0.5815420000000  0.4852590000000 1.0
C      1  0.4503890000000  0.5123930000000  0.5342150000000 1.0
C      1  0.4996330000000  0.5386220000000  0.4090490000000 1.0
C      1  0.4353750000000  0.5559840000000  0.5590820000000 1.0
C      1  0.4863320000000  0.4777020000000  0.5792530000000 1.0
C      1  0.5140660000000  0.4582440000000  0.4145640000000 1.0
C      1  0.5315650000000  0.5581060000000  0.5831420000000 1.0
C      1  0.5011080000000  0.5807730000000  0.4415390000000 1.0
C      1  0.5581860000000  0.4232100000000  0.5040850000000 1.0
C      1  0.4808390000000  0.5452400000000  0.4655360000000 1.0
C      1  0.4219920000000  0.4790390000000  0.4490740000000 1.0
C      1  0.5441070000000  0.5479140000000  0.4889210000000 1.0
C      1  0.4332960000000  0.4533650000000  0.4606360000000 1.0
C      1  0.4926010000000  0.4917450000000  0.5011490000000 1.0
C      1  0.5343770000000  0.4645930000000  0.4869800000000 1.0
C      1  0.5699530000000  0.5113810000000  0.5519210000000 1.0
C      1  0.5117240000000  0.5146090000000  0.4921450000000 1.0
C      1  0.5959450000000  0.4831520000000  0.5003410000000 1.0
C      1  0.5932380000000  0.5143370000000  0.4640870000000 1.0
C      1  0.5601250000000  0.4627040000000  0.5734580000000 1.0
C      1  0.5517500000000  0.5462210000000  0.4082330000000 1.0
C      1  0.4134790000000  0.5547020000000  0.5160830000000 1.0
C      1  0.4431970000000  0.5084990000000  0.5830780000000 1.0
C      1  0.4533850000000  0.5301490000000  0.5112080000000 1.0
C      1  0.4420240000000  0.5359950000000  0.4324900000000 1.0
C      1  0.5123770000000  0.5804300000000  0.5194860000000 1.0
C      1  0.4057190000000  0.4648400000000  0.5034340000000 1.0
C      1  0.4743450000000  0.4973510000000  0.4499640000000 1.0
C      1  0.4401030000000  0.5120020000000  0.4107660000000 1.0
C      1  0.5749040000000  0.5658340000000  0.5198240000000 1.0
C      1  0.3990570000000  0.5377460000000  0.4961070000000 1.0
C      1  0.4336080000000  0.4903480000000  0.4263990000000 1.0
C      1  0.5597550000000  0.5747000000000  0.4916240000000 1.0
C      1  0.5197970000000  0.5609460000000  0.5566140000000 1.0
C      1  0.4834150000000  0.5741030000000  0.4636960000000 1.0
C      1  0.4227770000000  0.4466270000000  0.4868220000000 1.0
C      1  0.5055590000000  0.3819220000000  0.4992200000000 1.0
C      1  0.4619920000000  0.5227320000000  0.4595960000000 1.0
C      1  0.5672210000000  0.5690480000000  0.5453270000000 1.0
C      1  0.4472790000000  0.5762720000000  0.5396010000000 1.0
C      1  0.4823510000000  0.4010230000000  0.4587180000000 1.0
C      1  0.4923090000000  0.5264660000000  0.5678720000000 1.0
C      1  0.4206110000000  0.5143420000000  0.5463960000000 1.0
C      1  0.5825590000000  0.5144780000000  0.5242800000000 1.0
C      1  0.5145030000000  0.4833490000000  0.5828600000000 1.0
C      1  0.4342960000000  0.5737310000000  0.5116270000000 1.0
C      1  0.5811650000000  0.5105850000000  0.4400340000000 1.0
C      1  0.4603420000000  0.4347030000000  0.5748800000000 1.0
C      1  0.4641240000000  0.4924980000000  0.5002860000000 1.0
C      1  0.5751790000000  0.4705900000000  0.4508380000000 1.0
C      1  0.5177030000000  0.6025430000000  0.4994940000000 1.0
C      1  0.5418350000000  0.5745920000000  0.4358240000000 1.0
C      1  0.4991680000000  0.5415050000000  0.4856870000000 1.0
C      1  0.4213430000000  0.4656920000000  0.5553830000000 1.0
C      1  0.5755120000000  0.4193720000000  0.5452260000000 1.0
C      1  0.5680750000000  0.4902300000000  0.4274900000000 1.0
C      1  0.5289450000000  0.4114110000000  0.4626280000000 1.0
C      1  0.5094090000000  0.5243920000000  0.6187160000000 1.0
C      1  0.4867090000000  0.4468440000000  0.5800840000000 1.0
C      1  0.5304430000000  0.4605850000000  0.5785430000000 1.0
C      1  0.5460260000000  0.4967210000000  0.4092490000000 1.0
C      1  0.4647220000000  0.4047710000000  0.5344010000000 1.0
C      1  0.5086270000000  0.4748900000000  0.5367920000000 1.0
C      1  0.4902160000000  0.6133380000000  0.4932220000000 1.0
C      1  0.5309010000000  0.5336540000000  0.5096410000000 1.0
C      1  0.4808980000000  0.4266730000000  0.4429890000000 1.0
C      1  0.5377560000000  0.5938780000000  0.4805520000000 1.0
C      1  0.4620720000000  0.4867780000000  0.5281100000000 1.0
C      1  0.4923300000000  0.4664800000000  0.4872610000000 1.0
C      1  0.4932590000000  0.5100110000000  0.4070060000000 1.0
END
