TITL C-883741-3679-57 -8.59151579812868 125000 -10084.4382352611 0 0 68 (C1) n - 1
REM
REM in /home/nfs/bkarasulu/CARBON/AIRSS/Generating-Clusters/ReaxFF-fromJPCA2015/Units_Real/with-SteepDescent/Only-C1/SD-CG/Try1-3A/FIRE-CG
REM
REM
REM
REM
REM
REM ./C.cell (11c1c37f851c82e70ff6c80c92926a4b)
REM
REM compiler GCC version 9.2.1 20190827 (Red Hat 9.2.1-1)
REM options -cpp -mtune=generic -march=x86-64 -g -O0 -fpre-include=/usr/include/finclude/math-vector-fortran.h
REM seed 518351815 426064090 -827821167 -441165267 -2007558246 -152179512 1711024537 -338444005 -1471092952 4901545 -1022906349 -1187279361 -1084763917 -1728757326 367685516 1664354841 1425983798 -1792879845 -273031664 -2135938236 -165645810 -1000316684 66241572 2080847580 -1036300694 -451042790 1334421701 -960674559 -1762116695 971292949 192831501 -347441638 2142895711
REM
CELL 1.54180   50.00000   50.00000   50.00000   90.00000   90.00000   90.00000
LATT -1
SFAC C  
C      1  0.5484030000000  0.4473520000000  0.4697420000000 1.0
C      1  0.5446980000000  0.4967510000000  0.5130300000000 1.0
C      1  0.4795550000000  0.5673260000000  0.5514600000000 1.0
C      1  0.5478190000000  0.5285990000000  0.4401860000000 1.0
C      1  0.5181200000000  0.4759120000000  0.4360770000000 1.0
C      1  0.4934170000000  0.5134950000000  0.5683020000000 1.0
C      1  0.5117690000000  0.4719980000000  0.5617970000000 1.0
C      1  0.4809880000000  0.5275560000000  0.4743450000000 1.0
C      1  0.5659070000000  0.5322610000000  0.4622460000000 1.0
C      1  0.5154690000000  0.4604700000000  0.5025200000000 1.0
C      1  0.4958640000000  0.5054420000000  0.5091840000000 1.0
C      1  0.4270640000000  0.4894760000000  0.5403720000000 1.0
C      1  0.5725310000000  0.5198420000000  0.4863050000000 1.0
C      1  0.5506020000000  0.5201850000000  0.5251320000000 1.0
C      1  0.4179250000000  0.5133520000000  0.5282470000000 1.0
C      1  0.5784510000000  0.4697460000000  0.5168750000000 1.0
C      1  0.5531470000000  0.4488260000000  0.5426010000000 1.0
C      1  0.5294500000000  0.5161000000000  0.4598680000000 1.0
C      1  0.5114380000000  0.4339260000000  0.5047040000000 1.0
C      1  0.4686830000000  0.5689220000000  0.5247100000000 1.0
C      1  0.4570950000000  0.5403170000000  0.5218650000000 1.0
C      1  0.5376290000000  0.5217830000000  0.5517390000000 1.0
C      1  0.5186970000000  0.4859410000000  0.5142610000000 1.0
C      1  0.4782250000000  0.5052540000000  0.4319880000000 1.0
C      1  0.4577330000000  0.5539200000000  0.5618800000000 1.0
C      1  0.4365490000000  0.5382660000000  0.4991990000000 1.0
C      1  0.4436350000000  0.5048650000000  0.5595830000000 1.0
C      1  0.4592500000000  0.4574370000000  0.5121940000000 1.0
C      1  0.4526050000000  0.5013630000000  0.4475050000000 1.0
C      1  0.5224750000000  0.5393390000000  0.4276540000000 1.0
C      1  0.5468560000000  0.4751790000000  0.4737400000000 1.0
C      1  0.4853770000000  0.4515790000000  0.4376390000000 1.0
C      1  0.5123170000000  0.5672810000000  0.5005520000000 1.0
C      1  0.4804780000000  0.4450300000000  0.4659290000000 1.0
C      1  0.5645670000000  0.4305080000000  0.4895640000000 1.0
C      1  0.4626430000000  0.4598580000000  0.4823610000000 1.0
C      1  0.4469070000000  0.4813570000000  0.4703600000000 1.0
C      1  0.5196050000000  0.5409990000000  0.4707080000000 1.0
C      1  0.4903270000000  0.4794840000000  0.4274620000000 1.0
C      1  0.5137740000000  0.4477990000000  0.4368520000000 1.0
C      1  0.5043430000000  0.5505660000000  0.4473750000000 1.0
C      1  0.4851080000000  0.5718020000000  0.5002670000000 1.0
C      1  0.4969160000000  0.5048200000000  0.4802450000000 1.0
C      1  0.5228070000000  0.4888090000000  0.4628260000000 1.0
C      1  0.4290890000000  0.4878520000000  0.4917160000000 1.0
C      1  0.4185520000000  0.5153450000000  0.4998710000000 1.0
C      1  0.4450030000000  0.5495680000000  0.4728780000000 1.0
C      1  0.5353740000000  0.5553930000000  0.4910990000000 1.0
C      1  0.5717890000000  0.4410570000000  0.5156200000000 1.0
C      1  0.5243940000000  0.4344490000000  0.4584980000000 1.0
C      1  0.4447680000000  0.5271680000000  0.4554710000000 1.0
C      1  0.5581580000000  0.5379720000000  0.5031750000000 1.0
C      1  0.5181030000000  0.5005520000000  0.5649710000000 1.0
C      1  0.5031330000000  0.4310220000000  0.4770270000000 1.0
C      1  0.4842930000000  0.5269000000000  0.5243620000000 1.0
C      1  0.4946650000000  0.5299030000000  0.4280600000000 1.0
C      1  0.4747880000000  0.5554880000000  0.4755460000000 1.0
C      1  0.4410480000000  0.5335920000000  0.5521780000000 1.0
C      1  0.5270630000000  0.5478680000000  0.5547420000000 1.0
C      1  0.5639860000000  0.4888440000000  0.4939050000000 1.0
C      1  0.5241770000000  0.4491390000000  0.5484490000000 1.0
C      1  0.4709650000000  0.4952760000000  0.5656890000000 1.0
C      1  0.4358520000000  0.4734510000000  0.5162610000000 1.0
C      1  0.4826780000000  0.4696420000000  0.5573970000000 1.0
C      1  0.5023840000000  0.4357990000000  0.5333110000000 1.0
C      1  0.5695740000000  0.4712580000000  0.5434440000000 1.0
C      1  0.4953860000000  0.5397780000000  0.5500910000000 1.0
C      1  0.4775590000000  0.4515890000000  0.5347870000000 1.0
END
