TITL C-883729-9652-132 0.238074878881233 125000 -5240.21190542397 0 0 36 (C1) n - 1
REM
REM in /home/nfs/bkarasulu/CARBON/AIRSS/Generating-Clusters/ReaxFF-fromJPCA2015/Units_Real/with-SteepDescent/Only-C1/SD-CG/Try1-3A/FIRE-CG
REM
REM
REM
REM
REM
REM ./C.cell (11c1c37f851c82e70ff6c80c92926a4b)
REM
REM compiler GCC version 9.2.1 20190827 (Red Hat 9.2.1-1)
REM options -cpp -mtune=generic -march=x86-64 -g -O0 -fpre-include=/usr/include/finclude/math-vector-fortran.h
REM seed 792727114 -969033089 -487142735 297416035 1995990114 1448056519 278663225 1784543384 -1616863253 -1539781418 1843643861 -1366250499 1464797026 1249426415 1955177825 1207096586 -1431590684 1006229048 112673794 -2100195470 -807049248 -169900271 620073845 703070331 -240613835 -1642104683 961047944 1509690676 -2017237799 681223230 518772356 395372698 22899439
REM
CELL 1.54180   50.00000   50.00000   50.00000   90.00000   90.00000   90.00000
LATT -1
SFAC C  
C      1  0.4566280000000  0.4685270000000  0.4760060000000 1.0
C      1  0.5151010000000  0.5056710000000  0.5446440000000 1.0
C      1  0.5552280000000  0.4609880000000  0.5009170000000 1.0
C      1  0.4700400000000  0.4883310000000  0.5381330000000 1.0
C      1  0.5138240000000  0.5558110000000  0.5470340000000 1.0
C      1  0.4591820000000  0.5217990000000  0.5166900000000 1.0
C      1  0.5238890000000  0.4883510000000  0.4539990000000 1.0
C      1  0.5107650000000  0.4410150000000  0.5033920000000 1.0
C      1  0.4757820000000  0.4834660000000  0.4603890000000 1.0
C      1  0.4827440000000  0.4638620000000  0.5381250000000 1.0
C      1  0.5527190000000  0.5182640000000  0.4564030000000 1.0
C      1  0.4788410000000  0.5277580000000  0.4904500000000 1.0
C      1  0.5173770000000  0.5590850000000  0.4721070000000 1.0
C      1  0.5041770000000  0.5124040000000  0.4952010000000 1.0
C      1  0.5589690000000  0.4734750000000  0.4802150000000 1.0
C      1  0.4669890000000  0.5116910000000  0.4646370000000 1.0
C      1  0.5019170000000  0.4700680000000  0.4592840000000 1.0
C      1  0.4374380000000  0.5038940000000  0.5085940000000 1.0
C      1  0.5230990000000  0.5487630000000  0.5212120000000 1.0
C      1  0.5312580000000  0.5361120000000  0.4590490000000 1.0
C      1  0.4921830000000  0.5545020000000  0.4846090000000 1.0
C      1  0.4991630000000  0.4463790000000  0.4767440000000 1.0
C      1  0.5134600000000  0.5645390000000  0.4990370000000 1.0
C      1  0.5544060000000  0.4897270000000  0.4567960000000 1.0
C      1  0.4377470000000  0.5111200000000  0.4611810000000 1.0
C      1  0.5309720000000  0.4692720000000  0.5309550000000 1.0
C      1  0.4720820000000  0.4470520000000  0.4888250000000 1.0
C      1  0.5019600000000  0.5490150000000  0.5658740000000 1.0
C      1  0.4946770000000  0.5219100000000  0.5595340000000 1.0
C      1  0.4842840000000  0.4444130000000  0.5156590000000 1.0
C      1  0.4685970000000  0.5151500000000  0.5440260000000 1.0
C      1  0.5352610000000  0.4501900000000  0.5152860000000 1.0
C      1  0.4357550000000  0.4886300000000  0.4825370000000 1.0
C      1  0.5137800000000  0.5126160000000  0.4672750000000 1.0
C      1  0.5198220000000  0.5195540000000  0.5187980000000 1.0
C      1  0.5098820000000  0.4765980000000  0.5463810000000 1.0
END
