TITL C-883729-9652-198 -0.523484331788442 125000 -4222.92165086357 0 0 30 (C1) n - 1
REM
REM in /home/nfs/bkarasulu/CARBON/AIRSS/Generating-Clusters/ReaxFF-fromJPCA2015/Units_Real/with-SteepDescent/Only-C1/SD-CG/Try1-3A/FIRE-CG
REM
REM
REM
REM
REM
REM ./C.cell (11c1c37f851c82e70ff6c80c92926a4b)
REM
REM compiler GCC version 9.2.1 20190827 (Red Hat 9.2.1-1)
REM options -cpp -mtune=generic -march=x86-64 -g -O0 -fpre-include=/usr/include/finclude/math-vector-fortran.h
REM seed 648928311 1318424398 -1767784442 -709232455 -992243441 -375314762 -869279230 505598612 -486677251 2054619132 -294950079 828287831 -1694326739 695230391 1851275131 55838420 -1960431520 1974441918 -33957920 1794748555 -276013664 -1907868751 64967364 -2073512165 -428931042 -1851091495 -2138600559 -1819691108 466283665 -1446233196 699213863 1427218347 -1252079254
REM
CELL 1.54180   50.00000   50.00000   50.00000   90.00000   90.00000   90.00000
LATT -1
SFAC C  
C      1  0.4918580000000  0.5157380000000  0.4485520000000 1.0
C      1  0.5406640000000  0.5312570000000  0.4761980000000 1.0
C      1  0.5191920000000  0.5471190000000  0.4640140000000 1.0
C      1  0.4963500000000  0.5395040000000  0.5145170000000 1.0
C      1  0.4906870000000  0.5135010000000  0.4972700000000 1.0
C      1  0.4942640000000  0.4546260000000  0.4688540000000 1.0
C      1  0.5388380000000  0.4777340000000  0.4876030000000 1.0
C      1  0.5372510000000  0.5213040000000  0.5407050000000 1.0
C      1  0.4863340000000  0.4749800000000  0.5531940000000 1.0
C      1  0.5033530000000  0.5033750000000  0.4726010000000 1.0
C      1  0.4648740000000  0.5004480000000  0.5003390000000 1.0
C      1  0.5111380000000  0.5355050000000  0.5424730000000 1.0
C      1  0.4672640000000  0.4596930000000  0.4785780000000 1.0
C      1  0.4479120000000  0.4803240000000  0.4627490000000 1.0
C      1  0.5157380000000  0.4763460000000  0.4706360000000 1.0
C      1  0.5323910000000  0.4942860000000  0.5547130000000 1.0
C      1  0.5041210000000  0.4943590000000  0.5651450000000 1.0
C      1  0.4919180000000  0.5443530000000  0.4525470000000 1.0
C      1  0.4542750000000  0.5086270000000  0.4743700000000 1.0
C      1  0.4843520000000  0.4599780000000  0.5269080000000 1.0
C      1  0.5099030000000  0.4471620000000  0.5188120000000 1.0
C      1  0.4858400000000  0.5623200000000  0.5089040000000 1.0
C      1  0.5358930000000  0.4754810000000  0.5351670000000 1.0
C      1  0.5497760000000  0.5058050000000  0.4903600000000 1.0
C      1  0.5367620000000  0.4602870000000  0.5119210000000 1.0
C      1  0.4961530000000  0.5243840000000  0.5649210000000 1.0
C      1  0.5450830000000  0.5173130000000  0.5145240000000 1.0
C      1  0.4341160000000  0.4751390000000  0.4416010000000 1.0
C      1  0.4668360000000  0.4709670000000  0.5051480000000 1.0
C      1  0.4668660000000  0.5280850000000  0.4566770000000 1.0
END
