TITL C-883730-8503-394 8.06733609809155 125000 -21674.5966948372 0 0 146 (C1) n - 1
REM
REM in /home/nfs/bkarasulu/CARBON/AIRSS/Generating-Clusters/ReaxFF-fromJPCA2015/Units_Real/with-SteepDescent/Only-C1/SD-CG/Try1-3A/FIRE-CG
REM
REM
REM
REM
REM
REM ./C.cell (11c1c37f851c82e70ff6c80c92926a4b)
REM
REM compiler GCC version 9.2.1 20190827 (Red Hat 9.2.1-1)
REM options -cpp -mtune=generic -march=x86-64 -g -O0 -fpre-include=/usr/include/finclude/math-vector-fortran.h
REM seed -838982485 1150201596 -272832259 256622224 711272802 174579496 -384282679 1473393543 -1529445295 1589191625 1058764481 -269236072 -1777245220 50742677 1571120590 -453059797 950814645 -607157064 -1520595967 -2146507115 -801017841 -1400964676 -410634041 -2146941401 -1763232559 -2113280746 -166037025 -1605391473 732621121 -1740718395 -1066355334 -1764972859 215452551
REM
CELL 1.54180   50.00000   50.00000   50.00000   90.00000   90.00000   90.00000
LATT -1
SFAC C  
C      1  0.5595400000000  0.4898070000000  0.5353510000000 1.0
C      1  0.5626540000000  0.5640930000000  0.5411320000000 1.0
C      1  0.5097430000000  0.5670310000000  0.4497640000000 1.0
C      1  0.4901940000000  0.5383550000000  0.4102270000000 1.0
C      1  0.4427910000000  0.5263830000000  0.4141140000000 1.0
C      1  0.4444050000000  0.5085610000000  0.5548570000000 1.0
C      1  0.5239090000000  0.5211330000000  0.5945870000000 1.0
C      1  0.4769050000000  0.6009690000000  0.4731300000000 1.0
C      1  0.4478310000000  0.5221140000000  0.4744970000000 1.0
C      1  0.5137020000000  0.4108790000000  0.5576910000000 1.0
C      1  0.4711250000000  0.4416250000000  0.4129090000000 1.0
C      1  0.6103370000000  0.4946340000000  0.4660120000000 1.0
C      1  0.4844970000000  0.4040530000000  0.5192690000000 1.0
C      1  0.4228270000000  0.4313240000000  0.5430990000000 1.0
C      1  0.4200460000000  0.4694160000000  0.5095400000000 1.0
C      1  0.4949250000000  0.5776300000000  0.5684540000000 1.0
C      1  0.4710660000000  0.5571340000000  0.4926420000000 1.0
C      1  0.4821370000000  0.5931250000000  0.5486050000000 1.0
C      1  0.4858610000000  0.4477340000000  0.5044680000000 1.0
C      1  0.5060470000000  0.3990030000000  0.5000100000000 1.0
C      1  0.5037250000000  0.4375250000000  0.5878150000000 1.0
C      1  0.5218560000000  0.5821330000000  0.5581210000000 1.0
C      1  0.5152000000000  0.4462860000000  0.5068770000000 1.0
C      1  0.5117840000000  0.4654660000000  0.5954690000000 1.0
C      1  0.4819030000000  0.4916110000000  0.4791490000000 1.0
C      1  0.4627030000000  0.5326660000000  0.4515080000000 1.0
C      1  0.5571140000000  0.4352590000000  0.5520890000000 1.0
C      1  0.4429110000000  0.5231600000000  0.5265580000000 1.0
C      1  0.5419140000000  0.5434050000000  0.5850420000000 1.0
C      1  0.5676150000000  0.5158080000000  0.5254740000000 1.0
C      1  0.5391200000000  0.4702630000000  0.5889530000000 1.0
C      1  0.4890190000000  0.4107720000000  0.5476900000000 1.0
C      1  0.4578330000000  0.4484130000000  0.5778720000000 1.0
C      1  0.4885790000000  0.6046160000000  0.4998370000000 1.0
C      1  0.5027230000000  0.5307340000000  0.5442980000000 1.0
C      1  0.4087550000000  0.5041850000000  0.4484780000000 1.0
C      1  0.4935770000000  0.4865060000000  0.4536450000000 1.0
C      1  0.5192660000000  0.4160140000000  0.4294580000000 1.0
C      1  0.5157500000000  0.4732630000000  0.5452030000000 1.0
C      1  0.4820810000000  0.4557830000000  0.4776620000000 1.0
C      1  0.5135370000000  0.5427840000000  0.4646980000000 1.0
C      1  0.5307240000000  0.4180890000000  0.4990310000000 1.0
C      1  0.4676200000000  0.5208960000000  0.5174830000000 1.0
C      1  0.4468500000000  0.5823800000000  0.5297650000000 1.0
C      1  0.5345420000000  0.4416720000000  0.4267300000000 1.0
C      1  0.4456760000000  0.5326340000000  0.5747830000000 1.0
C      1  0.5587660000000  0.4198990000000  0.5126870000000 1.0
C      1  0.4418360000000  0.4236380000000  0.5245950000000 1.0
C      1  0.5268080000000  0.4980700000000  0.4943320000000 1.0
C      1  0.5567370000000  0.5179060000000  0.4514380000000 1.0
C      1  0.6022500000000  0.5076920000000  0.4370700000000 1.0
C      1  0.5602130000000  0.4435300000000  0.5287510000000 1.0
C      1  0.4850710000000  0.4820880000000  0.5388930000000 1.0
C      1  0.5289230000000  0.4229610000000  0.5787080000000 1.0
C      1  0.4557340000000  0.4445080000000  0.4609880000000 1.0
C      1  0.5057310000000  0.5069570000000  0.4399610000000 1.0
C      1  0.4955680000000  0.4096860000000  0.4466420000000 1.0
C      1  0.5443280000000  0.4999970000000  0.5863180000000 1.0
C      1  0.5719420000000  0.5610140000000  0.4599870000000 1.0
C      1  0.5946130000000  0.5697760000000  0.5290860000000 1.0
C      1  0.5479550000000  0.4204060000000  0.4724560000000 1.0
C      1  0.3991460000000  0.5262080000000  0.5197810000000 1.0
C      1  0.4682200000000  0.4242660000000  0.4383440000000 1.0
C      1  0.4978980000000  0.4460130000000  0.4071780000000 1.0
C      1  0.4467940000000  0.4035700000000  0.4514950000000 1.0
C      1  0.4155450000000  0.4982690000000  0.5602380000000 1.0
C      1  0.4333860000000  0.4629010000000  0.4498450000000 1.0
C      1  0.5492050000000  0.5161520000000  0.4990530000000 1.0
C      1  0.4802820000000  0.4306580000000  0.5723000000000 1.0
C      1  0.5607100000000  0.5244940000000  0.5746290000000 1.0
C      1  0.4906770000000  0.4864000000000  0.5968360000000 1.0
C      1  0.5834020000000  0.4574750000000  0.5160670000000 1.0
C      1  0.4550640000000  0.4968800000000  0.4848240000000 1.0
C      1  0.5525100000000  0.4658220000000  0.4737150000000 1.0
C      1  0.5206570000000  0.5135940000000  0.5508010000000 1.0
C      1  0.4023310000000  0.4818330000000  0.4897360000000 1.0
C      1  0.5723880000000  0.4248950000000  0.4862140000000 1.0
C      1  0.5208740000000  0.5800530000000  0.5260550000000 1.0
C      1  0.4478630000000  0.4191250000000  0.4754000000000 1.0
C      1  0.6032740000000  0.5117580000000  0.4884730000000 1.0
C      1  0.4999370000000  0.5078770000000  0.4963190000000 1.0
C      1  0.4661380000000  0.4764330000000  0.5844910000000 1.0
C      1  0.4987920000000  0.5422030000000  0.4901250000000 1.0
C      1  0.4456740000000  0.5482790000000  0.4333780000000 1.0
C      1  0.5271340000000  0.4715400000000  0.4839840000000 1.0
C      1  0.5408350000000  0.5579900000000  0.4227930000000 1.0
C      1  0.4572410000000  0.5460790000000  0.5149820000000 1.0
C      1  0.4594770000000  0.5767290000000  0.4746370000000 1.0
C      1  0.5005730000000  0.4039780000000  0.4735510000000 1.0
C      1  0.5748690000000  0.4650290000000  0.4909260000000 1.0
C      1  0.4386900000000  0.4773040000000  0.4255560000000 1.0
C      1  0.5222630000000  0.5148020000000  0.4023640000000 1.0
C      1  0.3945450000000  0.5095880000000  0.4952380000000 1.0
C      1  0.4896290000000  0.5480060000000  0.5650500000000 1.0
C      1  0.5358430000000  0.4922610000000  0.5530640000000 1.0
C      1  0.4244110000000  0.5408530000000  0.4800100000000 1.0
C      1  0.5423120000000  0.5892580000000  0.4927670000000 1.0
C      1  0.4906920000000  0.5098830000000  0.5248550000000 1.0
C      1  0.4304010000000  0.4473420000000  0.5676140000000 1.0
C      1  0.4702860000000  0.4654670000000  0.5195170000000 1.0
C      1  0.4152610000000  0.5481540000000  0.5112400000000 1.0
C      1  0.4663050000000  0.4899630000000  0.5592920000000 1.0
C      1  0.4867320000000  0.5272940000000  0.4367790000000 1.0
C      1  0.4621430000000  0.4698080000000  0.4090300000000 1.0
C      1  0.5497880000000  0.4448040000000  0.5769270000000 1.0
C      1  0.4732940000000  0.5346270000000  0.5847210000000 1.0
C      1  0.5892860000000  0.4483700000000  0.4768410000000 1.0
C      1  0.5071990000000  0.4626350000000  0.4631320000000 1.0
C      1  0.5441780000000  0.5667110000000  0.5665400000000 1.0
C      1  0.5316970000000  0.4600970000000  0.5261960000000 1.0
C      1  0.4264000000000  0.5634680000000  0.5345170000000 1.0
C      1  0.5516250000000  0.5802180000000  0.4656670000000 1.0
C      1  0.4245060000000  0.5437680000000  0.5585130000000 1.0
C      1  0.5481920000000  0.5799150000000  0.5192550000000 1.0
C      1  0.5209300000000  0.5417380000000  0.4061300000000 1.0
C      1  0.5774830000000  0.4928560000000  0.4415460000000 1.0
C      1  0.5172830000000  0.5529480000000  0.5115410000000 1.0
C      1  0.4689090000000  0.5195050000000  0.4008830000000 1.0
C      1  0.5168920000000  0.6010310000000  0.5031300000000 1.0
C      1  0.5386530000000  0.5390320000000  0.5053590000000 1.0
C      1  0.4055450000000  0.5227880000000  0.5492400000000 1.0
C      1  0.5642980000000  0.5250170000000  0.4783570000000 1.0
C      1  0.5623540000000  0.5460480000000  0.4376310000000 1.0
C      1  0.5925460000000  0.5567100000000  0.5057100000000 1.0
C      1  0.4270700000000  0.5044580000000  0.4255270000000 1.0
C      1  0.5650690000000  0.5348700000000  0.5476860000000 1.0
C      1  0.4120890000000  0.4694130000000  0.5589030000000 1.0
C      1  0.4965610000000  0.5891290000000  0.4574850000000 1.0
C      1  0.5883150000000  0.5419900000000  0.4815910000000 1.0
C      1  0.4601360000000  0.4162390000000  0.5067800000000 1.0
C      1  0.5959290000000  0.5050270000000  0.5149230000000 1.0
C      1  0.4118000000000  0.4781080000000  0.4619440000000 1.0
C      1  0.5436770000000  0.4442960000000  0.4554800000000 1.0
C      1  0.5878180000000  0.4817030000000  0.5308360000000 1.0
C      1  0.4789110000000  0.4924210000000  0.4011400000000 1.0
C      1  0.5094730000000  0.4897560000000  0.4044570000000 1.0
C      1  0.4476010000000  0.4781600000000  0.5062120000000 1.0
C      1  0.5937560000000  0.4717660000000  0.4569160000000 1.0
C      1  0.5270260000000  0.5197980000000  0.4534850000000 1.0
C      1  0.4693590000000  0.6003090000000  0.5247310000000 1.0
C      1  0.4951510000000  0.5152730000000  0.5946540000000 1.0
C      1  0.5208910000000  0.4607800000000  0.4074210000000 1.0
C      1  0.4024960000000  0.5226490000000  0.4704130000000 1.0
C      1  0.4345200000000  0.5644700000000  0.4584360000000 1.0
C      1  0.4084200000000  0.4560500000000  0.5329810000000 1.0
C      1  0.5330740000000  0.5791080000000  0.4416560000000 1.0
END
