TITL C-884134-5972-171 -5.39759311816148 125000 -13174.8657638523 0 0 89 (C1) n - 1
REM
REM in /home/nfs/bkarasulu/CARBON/AIRSS/Generating-Clusters/ReaxFF-fromJPCA2015/Units_Real/with-SteepDescent/Only-C1/SD-CG/Try1-3A/FIRE-CG
REM
REM
REM
REM
REM
REM ./C.cell (11c1c37f851c82e70ff6c80c92926a4b)
REM
REM compiler GCC version 9.2.1 20190827 (Red Hat 9.2.1-1)
REM options -cpp -mtune=generic -march=x86-64 -g -O0 -fpre-include=/usr/include/finclude/math-vector-fortran.h
REM seed 1515453408 152428072 901103104 1750354048 1687840292 497821920 1712459273 -1363730739 972860048 -849972292 1353503458 -1444103956 -1270145339 -621522342 1349573131 1389231822 -991519358 1489547255 -476549215 -2081273887 1104092668 -1961943725 -859554170 -1919301424 41659198 1014599094 -1263593255 652204104 -1204031936 -795856193 1868832101 -1805306516 1852853197
REM
CELL 1.54180   50.00000   50.00000   50.00000   90.00000   90.00000   90.00000
LATT -1
SFAC C  
C      1  0.4888410000000  0.5579130000000  0.5748410000000 1.0
C      1  0.4641300000000  0.5461610000000  0.5615660000000 1.0
C      1  0.4345800000000  0.4874610000000  0.4272060000000 1.0
C      1  0.5022790000000  0.5059660000000  0.5918630000000 1.0
C      1  0.5548330000000  0.5676190000000  0.4915740000000 1.0
C      1  0.4426200000000  0.4892730000000  0.4506930000000 1.0
C      1  0.5248850000000  0.5328940000000  0.4025290000000 1.0
C      1  0.4939960000000  0.4375960000000  0.5576230000000 1.0
C      1  0.4486110000000  0.5546610000000  0.5130560000000 1.0
C      1  0.4531620000000  0.4331690000000  0.4714290000000 1.0
C      1  0.5264430000000  0.4729460000000  0.5580390000000 1.0
C      1  0.5134370000000  0.4769240000000  0.4696920000000 1.0
C      1  0.5382360000000  0.5119400000000  0.4162480000000 1.0
C      1  0.5170900000000  0.5769980000000  0.5314190000000 1.0
C      1  0.5685360000000  0.4917520000000  0.5908210000000 1.0
C      1  0.4758640000000  0.5625640000000  0.5062380000000 1.0
C      1  0.5788340000000  0.4911660000000  0.5200040000000 1.0
C      1  0.5302190000000  0.5641150000000  0.4742300000000 1.0
C      1  0.5076790000000  0.5835840000000  0.4718310000000 1.0
C      1  0.4689750000000  0.4314170000000  0.5139550000000 1.0
C      1  0.5053640000000  0.5476190000000  0.3988350000000 1.0
C      1  0.5169920000000  0.5120670000000  0.4632610000000 1.0
C      1  0.4873310000000  0.5129960000000  0.4651270000000 1.0
C      1  0.4857770000000  0.5027450000000  0.4922660000000 1.0
C      1  0.4582280000000  0.5746250000000  0.4595680000000 1.0
C      1  0.5251860000000  0.5246700000000  0.5843460000000 1.0
C      1  0.4975730000000  0.5555640000000  0.5244130000000 1.0
C      1  0.4984110000000  0.4118290000000  0.4853360000000 1.0
C      1  0.4918300000000  0.4851890000000  0.4225590000000 1.0
C      1  0.4450300000000  0.4588680000000  0.5362440000000 1.0
C      1  0.5691790000000  0.4795850000000  0.5427840000000 1.0
C      1  0.4304740000000  0.5469630000000  0.4912630000000 1.0
C      1  0.4717160000000  0.4777600000000  0.4923050000000 1.0
C      1  0.5576670000000  0.5272640000000  0.5493440000000 1.0
C      1  0.4352500000000  0.4507740000000  0.4867110000000 1.0
C      1  0.4302040000000  0.4776110000000  0.4773400000000 1.0
C      1  0.4995720000000  0.4585220000000  0.4249100000000 1.0
C      1  0.4331700000000  0.5184080000000  0.5399010000000 1.0
C      1  0.4799580000000  0.5763780000000  0.4798830000000 1.0
C      1  0.4137630000000  0.5093950000000  0.5196820000000 1.0
C      1  0.5218480000000  0.4418050000000  0.5518960000000 1.0
C      1  0.4861000000000  0.4575600000000  0.5073410000000 1.0
C      1  0.5423840000000  0.4655720000000  0.4611440000000 1.0
C      1  0.4341320000000  0.5590670000000  0.4648160000000 1.0
C      1  0.5229650000000  0.4829930000000  0.5302870000000 1.0
C      1  0.5530130000000  0.4413870000000  0.4598600000000 1.0
C      1  0.5638740000000  0.4745440000000  0.5017160000000 1.0
C      1  0.4852600000000  0.5419000000000  0.4118450000000 1.0
C      1  0.5461150000000  0.5172530000000  0.4466500000000 1.0
C      1  0.5721220000000  0.5206810000000  0.5239610000000 1.0
C      1  0.4390280000000  0.4435320000000  0.5156520000000 1.0
C      1  0.5648750000000  0.5153930000000  0.5745840000000 1.0
C      1  0.5357150000000  0.4252120000000  0.4579500000000 1.0
C      1  0.5085700000000  0.5054960000000  0.5169100000000 1.0
C      1  0.4140240000000  0.4953330000000  0.4933300000000 1.0
C      1  0.5085360000000  0.5746260000000  0.5607210000000 1.0
C      1  0.5695620000000  0.5413030000000  0.4886300000000 1.0
C      1  0.5362810000000  0.4625600000000  0.5129530000000 1.0
C      1  0.5115780000000  0.4625570000000  0.4954620000000 1.0
C      1  0.4932070000000  0.4346160000000  0.4386560000000 1.0
C      1  0.5651690000000  0.4778350000000  0.4727380000000 1.0
C      1  0.5186490000000  0.5364840000000  0.4800030000000 1.0
C      1  0.4995790000000  0.5354380000000  0.5923530000000 1.0
C      1  0.5296470000000  0.5284680000000  0.5557740000000 1.0
C      1  0.4893760000000  0.4200940000000  0.5343170000000 1.0
C      1  0.4555250000000  0.5028670000000  0.5503300000000 1.0
C      1  0.4837430000000  0.4713300000000  0.4660080000000 1.0
C      1  0.5097910000000  0.4156340000000  0.5136200000000 1.0
C      1  0.4709810000000  0.4479210000000  0.4530620000000 1.0
C      1  0.5677280000000  0.5019850000000  0.4580380000000 1.0
C      1  0.4701860000000  0.4160700000000  0.4876730000000 1.0
C      1  0.4435210000000  0.5460270000000  0.5405620000000 1.0
C      1  0.4115430000000  0.5250020000000  0.4953920000000 1.0
C      1  0.4702930000000  0.5040530000000  0.4407140000000 1.0
C      1  0.5169130000000  0.4937390000000  0.4149490000000 1.0
C      1  0.4561330000000  0.4734880000000  0.5568220000000 1.0
C      1  0.5031450000000  0.5285230000000  0.5387070000000 1.0
C      1  0.4774040000000  0.5214260000000  0.5551730000000 1.0
C      1  0.4501620000000  0.5537230000000  0.4406710000000 1.0
C      1  0.4819000000000  0.4628770000000  0.5680950000000 1.0
C      1  0.5022540000000  0.4812260000000  0.5768180000000 1.0
C      1  0.5088620000000  0.4169460000000  0.4583610000000 1.0
C      1  0.5391120000000  0.5743710000000  0.5134150000000 1.0
C      1  0.5686280000000  0.5293000000000  0.4623490000000 1.0
C      1  0.5578360000000  0.4743710000000  0.5665470000000 1.0
C      1  0.5273370000000  0.5224230000000  0.5035420000000 1.0
C      1  0.5293560000000  0.4330340000000  0.5256720000000 1.0
C      1  0.5548190000000  0.5252400000000  0.5050120000000 1.0
C      1  0.4652940000000  0.5317680000000  0.4279850000000 1.0
END
