TITL C-883741-3679-474 9.05919967762683 125000 -22359.7891075939 0 0 150 (C1) n - 1
REM
REM in /home/nfs/bkarasulu/CARBON/AIRSS/Generating-Clusters/ReaxFF-fromJPCA2015/Units_Real/with-SteepDescent/Only-C1/SD-CG/Try1-3A/FIRE-CG
REM
REM
REM
REM
REM
REM ./C.cell (11c1c37f851c82e70ff6c80c92926a4b)
REM
REM compiler GCC version 9.2.1 20190827 (Red Hat 9.2.1-1)
REM options -cpp -mtune=generic -march=x86-64 -g -O0 -fpre-include=/usr/include/finclude/math-vector-fortran.h
REM seed -442550512 1133719536 -1742416698 -147751782 -2107799308 -133075663 -553473837 -1999959807 -989633790 -1040301385 496140385 842495426 -823252212 1435947305 1741197822 -1832712411 351559121 562956753 1335207838 1977529018 1488692728 687928944 -163519439 618447043 758090622 -1971907999 493543113 -980588593 161550263 -553733264 39645368 1414512374 185454971
REM
CELL 1.54180   50.00000   50.00000   50.00000   90.00000   90.00000   90.00000
LATT -1
SFAC C  
C      1  0.4880160000000  0.4734950000000  0.6020100000000 1.0
C      1  0.5351400000000  0.3988120000000  0.4734220000000 1.0
C      1  0.4858050000000  0.5185180000000  0.4020420000000 1.0
C      1  0.4664180000000  0.5459830000000  0.5873650000000 1.0
C      1  0.4420070000000  0.4897430000000  0.4946600000000 1.0
C      1  0.4808200000000  0.4228680000000  0.4649560000000 1.0
C      1  0.5079930000000  0.5411940000000  0.4480640000000 1.0
C      1  0.4863550000000  0.4880030000000  0.4907690000000 1.0
C      1  0.5690310000000  0.4290180000000  0.4976430000000 1.0
C      1  0.4462220000000  0.5952820000000  0.5086750000000 1.0
C      1  0.4398250000000  0.5274190000000  0.4230070000000 1.0
C      1  0.4779150000000  0.5387740000000  0.4980450000000 1.0
C      1  0.5353050000000  0.5692820000000  0.4315230000000 1.0
C      1  0.4113600000000  0.4865430000000  0.5539400000000 1.0
C      1  0.4625340000000  0.4844680000000  0.3960030000000 1.0
C      1  0.5691740000000  0.4984420000000  0.4443620000000 1.0
C      1  0.5478540000000  0.4255530000000  0.5478450000000 1.0
C      1  0.4030160000000  0.4610000000000  0.4758400000000 1.0
C      1  0.4300890000000  0.5125980000000  0.4456940000000 1.0
C      1  0.4115680000000  0.4232050000000  0.5355190000000 1.0
C      1  0.5808120000000  0.4765120000000  0.4328490000000 1.0
C      1  0.5618160000000  0.4308380000000  0.4396780000000 1.0
C      1  0.5402330000000  0.4849740000000  0.4865460000000 1.0
C      1  0.4963310000000  0.4352670000000  0.4164980000000 1.0
C      1  0.4805170000000  0.4909820000000  0.5203930000000 1.0
C      1  0.4970200000000  0.4188790000000  0.5399660000000 1.0
C      1  0.5140060000000  0.5633430000000  0.5099240000000 1.0
C      1  0.4703450000000  0.5840140000000  0.5611890000000 1.0
C      1  0.4239790000000  0.4645990000000  0.5633060000000 1.0
C      1  0.4969020000000  0.4513380000000  0.5322830000000 1.0
C      1  0.4679070000000  0.4390980000000  0.4204730000000 1.0
C      1  0.5058170000000  0.5389570000000  0.4974180000000 1.0
C      1  0.5642830000000  0.4520760000000  0.5531320000000 1.0
C      1  0.6044930000000  0.4911180000000  0.5031660000000 1.0
C      1  0.5493170000000  0.5920230000000  0.5214020000000 1.0
C      1  0.5441380000000  0.5044810000000  0.5955720000000 1.0
C      1  0.5074830000000  0.5558600000000  0.4223670000000 1.0
C      1  0.5211480000000  0.5767950000000  0.5635190000000 1.0
C      1  0.4475120000000  0.5260550000000  0.5330040000000 1.0
C      1  0.4660070000000  0.5294350000000  0.4754210000000 1.0
C      1  0.4648910000000  0.4721110000000  0.4779780000000 1.0
C      1  0.4593190000000  0.4164580000000  0.5172380000000 1.0
C      1  0.5791420000000  0.4502720000000  0.4310270000000 1.0
C      1  0.5339720000000  0.5474040000000  0.5255220000000 1.0
C      1  0.4179510000000  0.4368200000000  0.4824080000000 1.0
C      1  0.6030170000000  0.5463370000000  0.5421510000000 1.0
C      1  0.5270600000000  0.5443430000000  0.5542880000000 1.0
C      1  0.4440560000000  0.5692480000000  0.4530970000000 1.0
C      1  0.4470330000000  0.4385850000000  0.4413830000000 1.0
C      1  0.5224680000000  0.5213280000000  0.5151370000000 1.0
C      1  0.3904100000000  0.4870950000000  0.4854970000000 1.0
C      1  0.4945770000000  0.5855570000000  0.5781410000000 1.0
C      1  0.5475160000000  0.4355820000000  0.5192110000000 1.0
C      1  0.3956360000000  0.5137770000000  0.5168820000000 1.0
C      1  0.5170080000000  0.4041430000000  0.4537220000000 1.0
C      1  0.5287430000000  0.5084670000000  0.4087750000000 1.0
C      1  0.5434480000000  0.5941660000000  0.5510660000000 1.0
C      1  0.4781090000000  0.4998270000000  0.5956640000000 1.0
C      1  0.4946860000000  0.5837000000000  0.5182100000000 1.0
C      1  0.5973180000000  0.5188050000000  0.5095930000000 1.0
C      1  0.5660590000000  0.4966860000000  0.5788290000000 1.0
C      1  0.4235260000000  0.5804930000000  0.4983980000000 1.0
C      1  0.4393030000000  0.5167530000000  0.4736910000000 1.0
C      1  0.4538020000000  0.4339820000000  0.5682270000000 1.0
C      1  0.5080630000000  0.4765480000000  0.4540820000000 1.0
C      1  0.5722650000000  0.5589860000000  0.4575010000000 1.0
C      1  0.4959220000000  0.3985500000000  0.5136180000000 1.0
C      1  0.5945220000000  0.5506240000000  0.4711670000000 1.0
C      1  0.4475580000000  0.4672260000000  0.4478650000000 1.0
C      1  0.4709440000000  0.4626280000000  0.5354980000000 1.0
C      1  0.4324660000000  0.4875150000000  0.4323930000000 1.0
C      1  0.4871700000000  0.5961250000000  0.4740320000000 1.0
C      1  0.5199890000000  0.4731390000000  0.5445370000000 1.0
C      1  0.4248410000000  0.5619780000000  0.4748340000000 1.0
C      1  0.4287670000000  0.5618460000000  0.5510270000000 1.0
C      1  0.4712370000000  0.5832980000000  0.4525290000000 1.0
C      1  0.5251500000000  0.4552250000000  0.4528170000000 1.0
C      1  0.5477690000000  0.5811230000000  0.5765760000000 1.0
C      1  0.4017650000000  0.5122580000000  0.5443910000000 1.0
C      1  0.5175250000000  0.5993540000000  0.4743760000000 1.0
C      1  0.5217460000000  0.4189420000000  0.5580940000000 1.0
C      1  0.5386980000000  0.4461750000000  0.4286430000000 1.0
C      1  0.4592970000000  0.4052700000000  0.4734050000000 1.0
C      1  0.6050620000000  0.5442060000000  0.4962570000000 1.0
C      1  0.4286640000000  0.5804120000000  0.5274400000000 1.0
C      1  0.4836360000000  0.5667870000000  0.5955790000000 1.0
C      1  0.5571710000000  0.4226290000000  0.4703550000000 1.0
C      1  0.4750840000000  0.5959900000000  0.5000510000000 1.0
C      1  0.5335350000000  0.6020630000000  0.4999630000000 1.0
C      1  0.4253550000000  0.4340710000000  0.5595440000000 1.0
C      1  0.4883650000000  0.4840550000000  0.4362650000000 1.0
C      1  0.5565150000000  0.5563830000000  0.4839750000000 1.0
C      1  0.5551450000000  0.5395390000000  0.5613830000000 1.0
C      1  0.5940380000000  0.5152840000000  0.5408130000000 1.0
C      1  0.4662770000000  0.5462310000000  0.5229200000000 1.0
C      1  0.5176150000000  0.4541170000000  0.4090420000000 1.0
C      1  0.5493960000000  0.5193120000000  0.4314880000000 1.0
C      1  0.4999270000000  0.4479990000000  0.5045980000000 1.0
C      1  0.5313140000000  0.5257240000000  0.4534190000000 1.0
C      1  0.4836990000000  0.5225990000000  0.5783380000000 1.0
C      1  0.4690630000000  0.4679540000000  0.4213490000000 1.0
C      1  0.4497690000000  0.5654970000000  0.5715630000000 1.0
C      1  0.4780700000000  0.5676360000000  0.4289030000000 1.0
C      1  0.5887060000000  0.4739800000000  0.4855050000000 1.0
C      1  0.3938320000000  0.5175540000000  0.4896720000000 1.0
C      1  0.5451670000000  0.4639710000000  0.5328540000000 1.0
C      1  0.5572540000000  0.5500880000000  0.4332810000000 1.0
C      1  0.4240860000000  0.5332640000000  0.5478260000000 1.0
C      1  0.5696820000000  0.5159790000000  0.5572460000000 1.0
C      1  0.5126690000000  0.4890320000000  0.4781390000000 1.0
C      1  0.4514460000000  0.5547210000000  0.4282670000000 1.0
C      1  0.6026180000000  0.4838260000000  0.5316010000000 1.0
C      1  0.5403870000000  0.5102170000000  0.4975660000000 1.0
C      1  0.4419210000000  0.5013780000000  0.4079030000000 1.0
C      1  0.4561490000000  0.4642510000000  0.5648420000000 1.0
C      1  0.4895600000000  0.4923660000000  0.3891440000000 1.0
C      1  0.4239440000000  0.4375940000000  0.5117490000000 1.0
C      1  0.4797920000000  0.5105320000000  0.4303430000000 1.0
C      1  0.5560680000000  0.5540040000000  0.5857800000000 1.0
C      1  0.5044130000000  0.5227900000000  0.5579720000000 1.0
C      1  0.5281930000000  0.5851700000000  0.4529170000000 1.0
C      1  0.5042510000000  0.4297940000000  0.5799520000000 1.0
C      1  0.5560680000000  0.4694630000000  0.5776750000000 1.0
C      1  0.5865380000000  0.4508510000000  0.5038850000000 1.0
C      1  0.4798800000000  0.4207720000000  0.5654200000000 1.0
C      1  0.5884140000000  0.4593450000000  0.5325070000000 1.0
C      1  0.4806890000000  0.4469230000000  0.4828290000000 1.0
C      1  0.4373030000000  0.4228250000000  0.4642540000000 1.0
C      1  0.5655800000000  0.4843840000000  0.4701350000000 1.0
C      1  0.5072550000000  0.5025260000000  0.5371320000000 1.0
C      1  0.4765990000000  0.5694210000000  0.5359880000000 1.0
C      1  0.4526130000000  0.4431080000000  0.5207920000000 1.0
C      1  0.5090010000000  0.4570520000000  0.5902450000000 1.0
C      1  0.4689910000000  0.3961490000000  0.5007870000000 1.0
C      1  0.5237420000000  0.4344830000000  0.4989120000000 1.0
C      1  0.5121190000000  0.5308970000000  0.4038080000000 1.0
C      1  0.4966600000000  0.4151900000000  0.4388640000000 1.0
C      1  0.5453080000000  0.5316360000000  0.5993170000000 1.0
C      1  0.5192540000000  0.4022670000000  0.4975090000000 1.0
C      1  0.5920970000000  0.5599690000000  0.5193640000000 1.0
C      1  0.5611590000000  0.5644780000000  0.5122340000000 1.0
C      1  0.5154010000000  0.4830340000000  0.4009240000000 1.0
C      1  0.4525790000000  0.5003330000000  0.5200570000000 1.0
C      1  0.4145590000000  0.4771770000000  0.4969450000000 1.0
C      1  0.5385040000000  0.4457040000000  0.4759440000000 1.0
C      1  0.4641340000000  0.4770410000000  0.5894030000000 1.0
C      1  0.5411640000000  0.5317220000000  0.4796910000000 1.0
C      1  0.4822330000000  0.5288690000000  0.4525190000000 1.0
C      1  0.5274150000000  0.4749520000000  0.5757830000000 1.0
C      1  0.4156510000000  0.5348360000000  0.4782650000000 1.0
END
