TITL C-883731-9874-169 46.2391612351285 125000 -21011.2178187676 0 0 143 (C1) n - 1
REM
REM in /home/nfs/bkarasulu/CARBON/AIRSS/Generating-Clusters/ReaxFF-fromJPCA2015/Units_Real/with-SteepDescent/Only-C1/SD-CG/Try1-3A/FIRE-CG
REM
REM
REM
REM
REM
REM ./C.cell (11c1c37f851c82e70ff6c80c92926a4b)
REM
REM compiler GCC version 9.2.1 20190827 (Red Hat 9.2.1-1)
REM options -cpp -mtune=generic -march=x86-64 -g -O0 -fpre-include=/usr/include/finclude/math-vector-fortran.h
REM seed -34677250 1990679053 1504764344 -1703087006 69211936 -1855765982 -863802966 -1038078683 19800183 193631563 881044726 -1380741935 822682712 -1895073888 -1426132260 -305729935 1530780903 -559345574 -93268483 1598592235 630286175 303908386 346473881 -227309426 -913196950 1784756489 -612317063 918108599 -530282066 -923092839 1379598761 880398129 -114056109
REM
CELL 1.54180   50.00000   50.00000   50.00000   90.00000   90.00000   90.00000
LATT -1
SFAC C  
C      1  0.4600770000000  0.4516300000000  0.4636400000000 1.0
C      1  0.4604190000000  0.5352650000000  0.4145330000000 1.0
C      1  0.3973210000000  0.5197280000000  0.4927210000000 1.0
C      1  0.4207470000000  0.4443590000000  0.5310400000000 1.0
C      1  0.5087350000000  0.4570240000000  0.5459170000000 1.0
C      1  0.5135030000000  0.4988770000000  0.5374370000000 1.0
C      1  0.4992290000000  0.5659150000000  0.4210810000000 1.0
C      1  0.5754380000000  0.4230240000000  0.4841940000000 1.0
C      1  0.5894180000000  0.4998300000000  0.5454660000000 1.0
C      1  0.6073330000000  0.4613640000000  0.4732790000000 1.0
C      1  0.4952890000000  0.5842800000000  0.5691640000000 1.0
C      1  0.4226890000000  0.5446380000000  0.5320160000000 1.0
C      1  0.5215850000000  0.4659030000000  0.5723530000000 1.0
C      1  0.4744310000000  0.5450730000000  0.4837680000000 1.0
C      1  0.5543250000000  0.4680310000000  0.5412480000000 1.0
C      1  0.5715170000000  0.4326410000000  0.4588430000000 1.0
C      1  0.4096620000000  0.4853060000000  0.5598480000000 1.0
C      1  0.5895820000000  0.4471140000000  0.5432720000000 1.0
C      1  0.5914660000000  0.5281690000000  0.5390630000000 1.0
C      1  0.4546220000000  0.5196320000000  0.4823770000000 1.0
C      1  0.5212070000000  0.5258030000000  0.4719050000000 1.0
C      1  0.4841430000000  0.4258760000000  0.5652030000000 1.0
C      1  0.4464370000000  0.4852820000000  0.5194610000000 1.0
C      1  0.5150330000000  0.4441720000000  0.5909940000000 1.0
C      1  0.4965390000000  0.4937020000000  0.6071480000000 1.0
C      1  0.5268070000000  0.4130770000000  0.4798800000000 1.0
C      1  0.4823120000000  0.5484700000000  0.6029860000000 1.0
C      1  0.4428780000000  0.5870630000000  0.4830930000000 1.0
C      1  0.4186230000000  0.5561050000000  0.4505270000000 1.0
C      1  0.4792310000000  0.5935850000000  0.4536050000000 1.0
C      1  0.4808500000000  0.4640230000000  0.5510570000000 1.0
C      1  0.5509140000000  0.4221750000000  0.5622010000000 1.0
C      1  0.4205200000000  0.5122090000000  0.4810060000000 1.0
C      1  0.4715100000000  0.4846030000000  0.4170990000000 1.0
C      1  0.4339680000000  0.5790190000000  0.4552790000000 1.0
C      1  0.5015900000000  0.4794910000000  0.4620160000000 1.0
C      1  0.4980140000000  0.4725640000000  0.4053720000000 1.0
C      1  0.4574900000000  0.5816720000000  0.4380250000000 1.0
C      1  0.4722260000000  0.4808400000000  0.4494280000000 1.0
C      1  0.4864820000000  0.4475810000000  0.5875800000000 1.0
C      1  0.5555140000000  0.4819960000000  0.4257770000000 1.0
C      1  0.4717070000000  0.5954730000000  0.4815680000000 1.0
C      1  0.4410030000000  0.4914120000000  0.4177670000000 1.0
C      1  0.4446440000000  0.5168860000000  0.4321270000000 1.0
C      1  0.5787230000000  0.5643280000000  0.5483470000000 1.0
C      1  0.4588480000000  0.5072240000000  0.5089520000000 1.0
C      1  0.5401180000000  0.5316640000000  0.4940440000000 1.0
C      1  0.4887060000000  0.4603870000000  0.5028770000000 1.0
C      1  0.5157080000000  0.5446530000000  0.4090360000000 1.0
C      1  0.5774150000000  0.5285010000000  0.4762340000000 1.0
C      1  0.5970010000000  0.4807220000000  0.4573340000000 1.0
C      1  0.5509230000000  0.5633570000000  0.4565350000000 1.0
C      1  0.5132060000000  0.4530010000000  0.4566410000000 1.0
C      1  0.5577900000000  0.5411400000000  0.4375140000000 1.0
C      1  0.5657660000000  0.4885330000000  0.5568540000000 1.0
C      1  0.4777540000000  0.4141830000000  0.4933080000000 1.0
C      1  0.5219080000000  0.5830530000000  0.5401600000000 1.0
C      1  0.4955710000000  0.4827290000000  0.4907560000000 1.0
C      1  0.5273650000000  0.4191760000000  0.5797560000000 1.0
C      1  0.4592330000000  0.5273440000000  0.5682670000000 1.0
C      1  0.4193490000000  0.4839270000000  0.4350330000000 1.0
C      1  0.4703020000000  0.5536420000000  0.5126660000000 1.0
C      1  0.4823610000000  0.5315880000000  0.5518150000000 1.0
C      1  0.4953470000000  0.5965240000000  0.4993140000000 1.0
C      1  0.4319420000000  0.5352130000000  0.5587700000000 1.0
C      1  0.4955870000000  0.5946200000000  0.5289660000000 1.0
C      1  0.3984250000000  0.5060270000000  0.5423390000000 1.0
C      1  0.6050430000000  0.5277560000000  0.5138090000000 1.0
C      1  0.4631030000000  0.4283470000000  0.4445780000000 1.0
C      1  0.4610900000000  0.5523140000000  0.5827870000000 1.0
C      1  0.4280640000000  0.4459110000000  0.4654300000000 1.0
C      1  0.4960130000000  0.5713680000000  0.5936480000000 1.0
C      1  0.4081570000000  0.5220450000000  0.5199030000000 1.0
C      1  0.5476990000000  0.4870310000000  0.4767880000000 1.0
C      1  0.4696330000000  0.4952740000000  0.5733400000000 1.0
C      1  0.4685750000000  0.5751870000000  0.5633460000000 1.0
C      1  0.5102000000000  0.4992870000000  0.5086150000000 1.0
C      1  0.5222830000000  0.5870560000000  0.4930100000000 1.0
C      1  0.5367730000000  0.4591470000000  0.4998980000000 1.0
C      1  0.4533200000000  0.4699530000000  0.5428410000000 1.0
C      1  0.3703550000000  0.5235970000000  0.4848580000000 1.0
C      1  0.5154100000000  0.4511600000000  0.4132470000000 1.0
C      1  0.5285420000000  0.4421970000000  0.4767630000000 1.0
C      1  0.4201600000000  0.4531530000000  0.4902460000000 1.0
C      1  0.5698700000000  0.4897060000000  0.4507770000000 1.0
C      1  0.5345640000000  0.5016090000000  0.4239020000000 1.0
C      1  0.5468240000000  0.4357200000000  0.5170860000000 1.0
C      1  0.5088680000000  0.5363350000000  0.5609700000000 1.0
C      1  0.5498480000000  0.4134600000000  0.4987610000000 1.0
C      1  0.6113870000000  0.5008160000000  0.5049480000000 1.0
C      1  0.5742430000000  0.5202770000000  0.4490480000000 1.0
C      1  0.4269130000000  0.4617720000000  0.5540860000000 1.0
C      1  0.4200850000000  0.4671740000000  0.5126580000000 1.0
C      1  0.5027650000000  0.5210540000000  0.3971620000000 1.0
C      1  0.4988170000000  0.5234070000000  0.6057780000000 1.0
C      1  0.4769170000000  0.4757460000000  0.5933650000000 1.0
C      1  0.5216500000000  0.5715820000000  0.4661980000000 1.0
C      1  0.5415680000000  0.4942270000000  0.5432010000000 1.0
C      1  0.6144050000000  0.4883090000000  0.4786330000000 1.0
C      1  0.5190130000000  0.4908620000000  0.5882230000000 1.0
C      1  0.4079400000000  0.5331650000000  0.4487370000000 1.0
C      1  0.5725440000000  0.5594220000000  0.4753620000000 1.0
C      1  0.5146150000000  0.4956650000000  0.4029020000000 1.0
C      1  0.5123020000000  0.4575330000000  0.5174650000000 1.0
C      1  0.4309470000000  0.5718220000000  0.5029530000000 1.0
C      1  0.4730250000000  0.4431660000000  0.4889340000000 1.0
C      1  0.4737380000000  0.5769530000000  0.5347130000000 1.0
C      1  0.5084530000000  0.4334990000000  0.4353850000000 1.0
C      1  0.5385140000000  0.5308210000000  0.4192660000000 1.0
C      1  0.5023770000000  0.5262930000000  0.5110140000000 1.0
C      1  0.4625730000000  0.4231550000000  0.5484940000000 1.0
C      1  0.5666870000000  0.5666440000000  0.5242660000000 1.0
C      1  0.5266830000000  0.4993780000000  0.4590810000000 1.0
C      1  0.4989570000000  0.4056560000000  0.4733210000000 1.0
C      1  0.5047240000000  0.5827100000000  0.4441320000000 1.0
C      1  0.4204190000000  0.4546280000000  0.4379150000000 1.0
C      1  0.5104930000000  0.4137040000000  0.5567910000000 1.0
C      1  0.4592970000000  0.5058200000000  0.4558530000000 1.0
C      1  0.5947400000000  0.4434370000000  0.4916850000000 1.0
C      1  0.6027420000000  0.4830800000000  0.5258760000000 1.0
C      1  0.4135100000000  0.5139850000000  0.5660270000000 1.0
C      1  0.5260570000000  0.5531300000000  0.5437470000000 1.0
C      1  0.4879650000000  0.4913080000000  0.5518050000000 1.0
C      1  0.4409460000000  0.4357770000000  0.4257180000000 1.0
C      1  0.5453190000000  0.4562070000000  0.4182460000000 1.0
C      1  0.5610260000000  0.4427090000000  0.4370390000000 1.0
C      1  0.5592000000000  0.5094450000000  0.4910510000000 1.0
C      1  0.4894570000000  0.4143010000000  0.4469530000000 1.0
C      1  0.4414130000000  0.5558660000000  0.5172670000000 1.0
C      1  0.5187210000000  0.5206550000000  0.5845370000000 1.0
C      1  0.5389480000000  0.5825170000000  0.5165120000000 1.0
C      1  0.5672820000000  0.4479270000000  0.5604510000000 1.0
C      1  0.4998110000000  0.5457040000000  0.4712610000000 1.0
C      1  0.5347230000000  0.4179260000000  0.5381520000000 1.0
C      1  0.4700710000000  0.5624800000000  0.4201510000000 1.0
C      1  0.5254400000000  0.5421150000000  0.5168900000000 1.0
C      1  0.6021070000000  0.4534560000000  0.5191370000000 1.0
C      1  0.4555810000000  0.4047750000000  0.5105760000000 1.0
C      1  0.5787360000000  0.5398830000000  0.5164210000000 1.0
C      1  0.4776350000000  0.5277330000000  0.5245010000000 1.0
C      1  0.4082320000000  0.5058960000000  0.4558610000000 1.0
C      1  0.4407750000000  0.4208170000000  0.5318470000000 1.0
C      1  0.4767380000000  0.5135820000000  0.4059140000000 1.0
END
