TITL C-883730-8503-18 -2241011.14525694 125000 -12363.5896941557 0 0 83 (C1) n - 1
REM
REM in /home/nfs/bkarasulu/CARBON/AIRSS/Generating-Clusters/ReaxFF-fromJPCA2015/Units_Real/with-SteepDescent/Only-C1/SD-CG/Try1-3A/FIRE-CG
REM
REM
REM
REM
REM
REM ./C.cell (11c1c37f851c82e70ff6c80c92926a4b)
REM
REM compiler GCC version 9.2.1 20190827 (Red Hat 9.2.1-1)
REM options -cpp -mtune=generic -march=x86-64 -g -O0 -fpre-include=/usr/include/finclude/math-vector-fortran.h
REM seed 907035209 -954586413 621711976 -467225595 -1509653951 29910760 -1715754329 282609961 1573037505 -761173088 1761706521 1924481293 -1590936736 1623650611 879333506 1463894847 -221674989 1901957404 -1943976894 -1379631482 -314686517 -1653033223 2090297870 98170734 2120144619 666268616 961174024 1661151658 884684069 -1785211348 -1749981374 -86308245 -846291222
REM
CELL 1.54180   50.00000   50.00000   50.00000   90.00000   90.00000   90.00000
LATT -1
SFAC C  
C      1  0.5037310000000  0.5732750000000  0.5175840000000 1.0
C      1  0.4877070000000  0.4211870000000  0.5066390000000 1.0
C      1  0.4473900000000  0.4958830000000  0.5550660000000 1.0
C      1  0.4737170000000  0.4760710000000  0.4338040000000 1.0
C      1  0.4579210000000  0.4151690000000  0.4707450000000 1.0
C      1  0.4577170000000  0.4643720000000  0.4574850000000 1.0
C      1  0.5184310000000  0.5265170000000  0.5451580000000 1.0
C      1  0.4441740000000  0.5246540000000  0.5468180000000 1.0
C      1  0.4761530000000  0.5044290000000  0.4689970000000 1.0
C      1  0.5363260000000  0.4536970000000  0.4652470000000 1.0
C      1  0.5276610000000  0.4767250000000  0.5116420000000 1.0
C      1  0.5185230000000  0.4734920000000  0.5852260000000 1.0
C      1  0.4864060000000  0.4210790000000  0.4621550000000 1.0
C      1  0.5473180000000  0.4404810000000  0.5166540000000 1.0
C      1  0.4262270000000  0.5352020000000  0.4800500000000 1.0
C      1  0.4278530000000  0.4625100000000  0.5222240000000 1.0
C      1  0.4562590000000  0.5737720000000  0.5019030000000 1.0
C      1  0.4353980000000  0.4703110000000  0.5493020000000 1.0
C      1  0.5003600000000  0.4874350000000  0.4655960000000 1.0
C      1  0.5206780000000  0.5540230000000  0.5326290000000 1.0
C      1  0.4343980000000  0.5531000000000  0.5023200000000 1.0
C      1  0.5597630000000  0.4972390000000  0.5639610000000 1.0
C      1  0.4879290000000  0.5503010000000  0.4375730000000 1.0
C      1  0.5144030000000  0.5620960000000  0.4436490000000 1.0
C      1  0.5634560000000  0.4595510000000  0.4756990000000 1.0
C      1  0.4656350000000  0.5132630000000  0.4954370000000 1.0
C      1  0.4441920000000  0.5373770000000  0.4569570000000 1.0
C      1  0.5467660000000  0.5187820000000  0.5513350000000 1.0
C      1  0.5111510000000  0.5212850000000  0.4989940000000 1.0
C      1  0.5662920000000  0.4724130000000  0.5534300000000 1.0
C      1  0.4783170000000  0.4692010000000  0.5779150000000 1.0
C      1  0.4945980000000  0.4909190000000  0.5839230000000 1.0
C      1  0.5614730000000  0.5318200000000  0.5293860000000 1.0
C      1  0.5365650000000  0.5013350000000  0.4241830000000 1.0
C      1  0.4206730000000  0.4838650000000  0.5061590000000 1.0
C      1  0.4690550000000  0.4428890000000  0.5373770000000 1.0
C      1  0.5088890000000  0.4233380000000  0.5631720000000 1.0
C      1  0.5664710000000  0.5148810000000  0.5064950000000 1.0
C      1  0.4706830000000  0.5043310000000  0.4248360000000 1.0
C      1  0.5386470000000  0.4792330000000  0.5626360000000 1.0
C      1  0.5524880000000  0.4809200000000  0.4348140000000 1.0
C      1  0.5509400000000  0.5713160000000  0.5011140000000 1.0
C      1  0.5114900000000  0.5004260000000  0.5224850000000 1.0
C      1  0.4703170000000  0.5357590000000  0.5541580000000 1.0
C      1  0.4921690000000  0.5182300000000  0.5633040000000 1.0
C      1  0.5651860000000  0.4844350000000  0.4616970000000 1.0
C      1  0.5344380000000  0.5436140000000  0.4339690000000 1.0
C      1  0.5291810000000  0.4621090000000  0.4380570000000 1.0
C      1  0.4176070000000  0.5077370000000  0.4912770000000 1.0
C      1  0.5203400000000  0.5228020000000  0.4175400000000 1.0
C      1  0.5758940000000  0.4691640000000  0.5258600000000 1.0
C      1  0.5595880000000  0.5142370000000  0.4740040000000 1.0
C      1  0.4552590000000  0.5111940000000  0.4487030000000 1.0
C      1  0.5703880000000  0.5649560000000  0.4585150000000 1.0
C      1  0.4695030000000  0.4855060000000  0.5053080000000 1.0
C      1  0.5578450000000  0.4879850000000  0.5126570000000 1.0
C      1  0.5005420000000  0.5778330000000  0.4879230000000 1.0
C      1  0.5152200000000  0.4471480000000  0.5756200000000 1.0
C      1  0.4656590000000  0.5570320000000  0.4553350000000 1.0
C      1  0.4765160000000  0.4967900000000  0.5493370000000 1.0
C      1  0.4596340000000  0.4175130000000  0.5004650000000 1.0
C      1  0.4844490000000  0.5325450000000  0.5057860000000 1.0
C      1  0.5577360000000  0.5394920000000  0.4525750000000 1.0
C      1  0.4751140000000  0.5727090000000  0.5240670000000 1.0
C      1  0.5027200000000  0.4755780000000  0.4393580000000 1.0
C      1  0.4921080000000  0.4420530000000  0.4846070000000 1.0
C      1  0.4584670000000  0.4552600000000  0.5618140000000 1.0
C      1  0.5332640000000  0.5225140000000  0.4822550000000 1.0
C      1  0.4774090000000  0.5461020000000  0.5299950000000 1.0
C      1  0.4970600000000  0.4327830000000  0.5330860000000 1.0
C      1  0.5498680000000  0.5809120000000  0.4760400000000 1.0
C      1  0.5236770000000  0.4496700000000  0.5244890000000 1.0
C      1  0.4867830000000  0.4884880000000  0.5268690000000 1.0
C      1  0.5710170000000  0.4490240000000  0.5037900000000 1.0
C      1  0.4516940000000  0.4441200000000  0.5125390000000 1.0
C      1  0.4363080000000  0.5309950000000  0.5199880000000 1.0
C      1  0.5207840000000  0.5777910000000  0.4676020000000 1.0
C      1  0.4727440000000  0.5740920000000  0.4784680000000 1.0
C      1  0.5149040000000  0.4663940000000  0.4821490000000 1.0
C      1  0.4904840000000  0.5256820000000  0.4223240000000 1.0
C      1  0.4479130000000  0.4380500000000  0.4565270000000 1.0
C      1  0.5490470000000  0.5591670000000  0.5261210000000 1.0
C      1  0.4669390000000  0.4623690000000  0.4870470000000 1.0
END
