TITL C-884140-4336-71 44.5811194074316 125000 -21601.8846144467 0 0 144 (C1) n - 1
REM
REM in /home/nfs/bkarasulu/CARBON/AIRSS/Generating-Clusters/ReaxFF-fromJPCA2015/Units_Real/with-SteepDescent/Only-C1/SD-CG/Try1-3A/FIRE-CG
REM
REM
REM
REM
REM
REM ./C.cell (11c1c37f851c82e70ff6c80c92926a4b)
REM
REM compiler GCC version 9.2.1 20190827 (Red Hat 9.2.1-1)
REM options -cpp -mtune=generic -march=x86-64 -g -O0 -fpre-include=/usr/include/finclude/math-vector-fortran.h
REM seed -412255832 -850174683 -296102445 1417265858 -1421000421 -386447610 1353422118 -2112310356 1564829563 -441104804 -740442445 2074085278 -1712754784 1009454793 -1974075740 1534883428 266132698 -34962337 -1191429263 -454335749 -1417660594 581976635 -480704722 -1373240316 1574529733 -863064835 1020162464 -529072481 -261780963 -228895928 1162772835 -1154659889 525799554
REM
CELL 1.54180   50.00000   50.00000   50.00000   90.00000   90.00000   90.00000
LATT -1
SFAC C  
C      1  0.5810030000000  0.5440040000000  0.5056690000000 1.0
C      1  0.5509790000000  0.5221250000000  0.4281810000000 1.0
C      1  0.4982720000000  0.4341130000000  0.4176250000000 1.0
C      1  0.5387610000000  0.5768610000000  0.4467900000000 1.0
C      1  0.5468790000000  0.4795170000000  0.5244390000000 1.0
C      1  0.4539160000000  0.4848580000000  0.4547150000000 1.0
C      1  0.5398370000000  0.5416110000000  0.4055020000000 1.0
C      1  0.5381340000000  0.5031110000000  0.6052940000000 1.0
C      1  0.4031460000000  0.4556130000000  0.5280240000000 1.0
C      1  0.4506800000000  0.4473100000000  0.5166920000000 1.0
C      1  0.5518220000000  0.5650910000000  0.4744170000000 1.0
C      1  0.4737890000000  0.5419580000000  0.5386920000000 1.0
C      1  0.5020460000000  0.5760490000000  0.5775620000000 1.0
C      1  0.4321890000000  0.5418420000000  0.5244670000000 1.0
C      1  0.4804930000000  0.4741120000000  0.5510500000000 1.0
C      1  0.5150760000000  0.4531440000000  0.5919610000000 1.0
C      1  0.5521980000000  0.4068210000000  0.5009590000000 1.0
C      1  0.4975650000000  0.4753460000000  0.5983910000000 1.0
C      1  0.4776620000000  0.5351550000000  0.4911010000000 1.0
C      1  0.5035640000000  0.4787540000000  0.5023560000000 1.0
C      1  0.5404060000000  0.4242560000000  0.5372270000000 1.0
C      1  0.4195740000000  0.4517430000000  0.4545590000000 1.0
C      1  0.5645580000000  0.4138420000000  0.4750700000000 1.0
C      1  0.5232960000000  0.4235860000000  0.4573680000000 1.0
C      1  0.5173540000000  0.5960660000000  0.4507970000000 1.0
C      1  0.5401150000000  0.5486250000000  0.5682300000000 1.0
C      1  0.5818410000000  0.5512840000000  0.4770520000000 1.0
C      1  0.5431910000000  0.4495800000000  0.5815670000000 1.0
C      1  0.5092940000000  0.4679050000000  0.5496080000000 1.0
C      1  0.4842480000000  0.5849720000000  0.4705240000000 1.0
C      1  0.5155930000000  0.4944960000000  0.4801220000000 1.0
C      1  0.5566420000000  0.5256580000000  0.6096270000000 1.0
C      1  0.4708180000000  0.5415750000000  0.5857610000000 1.0
C      1  0.4482180000000  0.5777360000000  0.4531820000000 1.0
C      1  0.4900530000000  0.5912740000000  0.4415780000000 1.0
C      1  0.4185020000000  0.4383190000000  0.5108140000000 1.0
C      1  0.4995190000000  0.5929820000000  0.5264750000000 1.0
C      1  0.5979090000000  0.4912320000000  0.5043830000000 1.0
C      1  0.4190170000000  0.5472390000000  0.4793090000000 1.0
C      1  0.5083350000000  0.5031100000000  0.6045450000000 1.0
C      1  0.5445890000000  0.4921980000000  0.5777790000000 1.0
C      1  0.5215750000000  0.5232660000000  0.4431840000000 1.0
C      1  0.5816190000000  0.5250930000000  0.5634330000000 1.0
C      1  0.5203190000000  0.4913300000000  0.5623700000000 1.0
C      1  0.5835790000000  0.4429420000000  0.5079770000000 1.0
C      1  0.5212030000000  0.4694120000000  0.5237250000000 1.0
C      1  0.4507940000000  0.5038710000000  0.4072670000000 1.0
C      1  0.5507470000000  0.4179370000000  0.4512930000000 1.0
C      1  0.4025950000000  0.4766900000000  0.5030930000000 1.0
C      1  0.5188060000000  0.5337310000000  0.5238400000000 1.0
C      1  0.4399080000000  0.4945310000000  0.5418840000000 1.0
C      1  0.5704490000000  0.4765200000000  0.5422840000000 1.0
C      1  0.5851110000000  0.4854100000000  0.4797050000000 1.0
C      1  0.4392770000000  0.4337280000000  0.5616750000000 1.0
C      1  0.5592810000000  0.5595580000000  0.5191170000000 1.0
C      1  0.3910080000000  0.5164300000000  0.5384380000000 1.0
C      1  0.4483490000000  0.4544140000000  0.5788320000000 1.0
C      1  0.5920570000000  0.4769790000000  0.4540770000000 1.0
C      1  0.5827990000000  0.4495010000000  0.4537300000000 1.0
C      1  0.4646420000000  0.4194930000000  0.4584870000000 1.0
C      1  0.5134260000000  0.5333980000000  0.4014940000000 1.0
C      1  0.4189140000000  0.4501230000000  0.5515840000000 1.0
C      1  0.4089340000000  0.5170040000000  0.5588280000000 1.0
C      1  0.4444250000000  0.5519710000000  0.5500980000000 1.0
C      1  0.5354520000000  0.4257510000000  0.5665590000000 1.0
C      1  0.5775650000000  0.5088490000000  0.5392760000000 1.0
C      1  0.5072180000000  0.5434210000000  0.4524980000000 1.0
C      1  0.4952820000000  0.4474210000000  0.4906280000000 1.0
C      1  0.4634280000000  0.5484880000000  0.4183550000000 1.0
C      1  0.4553590000000  0.4247450000000  0.5370600000000 1.0
C      1  0.4825970000000  0.4957820000000  0.5127670000000 1.0
C      1  0.4862740000000  0.5341840000000  0.5608050000000 1.0
C      1  0.5621170000000  0.4384860000000  0.4362170000000 1.0
C      1  0.4309720000000  0.5604430000000  0.5031160000000 1.0
C      1  0.5341490000000  0.4736900000000  0.4665280000000 1.0
C      1  0.4550880000000  0.4702390000000  0.5379050000000 1.0
C      1  0.4595240000000  0.5791820000000  0.5531270000000 1.0
C      1  0.4986820000000  0.4812950000000  0.4345480000000 1.0
C      1  0.5161600000000  0.5509910000000  0.5857370000000 1.0
C      1  0.4355690000000  0.5129980000000  0.5182150000000 1.0
C      1  0.5173140000000  0.4551840000000  0.4067900000000 1.0
C      1  0.4373730000000  0.5423060000000  0.4290420000000 1.0
C      1  0.5197380000000  0.5922690000000  0.5035470000000 1.0
C      1  0.4080060000000  0.4999710000000  0.4650700000000 1.0
C      1  0.4307930000000  0.4608400000000  0.4296930000000 1.0
C      1  0.5331080000000  0.5615850000000  0.4239580000000 1.0
C      1  0.5907130000000  0.4680690000000  0.5200190000000 1.0
C      1  0.5611900000000  0.4697060000000  0.5707350000000 1.0
C      1  0.4438120000000  0.5337770000000  0.5748810000000 1.0
C      1  0.4728570000000  0.5231970000000  0.4053780000000 1.0
C      1  0.4763720000000  0.4362940000000  0.4364730000000 1.0
C      1  0.4507890000000  0.5827020000000  0.5046040000000 1.0
C      1  0.4040070000000  0.5062150000000  0.5092190000000 1.0
C      1  0.4049600000000  0.5221680000000  0.4836110000000 1.0
C      1  0.5032360000000  0.4053960000000  0.4655350000000 1.0
C      1  0.4900060000000  0.4200590000000  0.5584250000000 1.0
C      1  0.4904210000000  0.5434450000000  0.5156990000000 1.0
C      1  0.5044410000000  0.5023590000000  0.4539480000000 1.0
C      1  0.4290000000000  0.5565050000000  0.4533370000000 1.0
C      1  0.4849100000000  0.5001000000000  0.5396450000000 1.0
C      1  0.4403580000000  0.4332660000000  0.4591580000000 1.0
C      1  0.4494070000000  0.4750350000000  0.4134600000000 1.0
C      1  0.5698830000000  0.5282760000000  0.4705220000000 1.0
C      1  0.5312760000000  0.5186670000000  0.4975830000000 1.0
C      1  0.5087710000000  0.6010260000000  0.4781460000000 1.0
C      1  0.4691690000000  0.5878820000000  0.5272820000000 1.0
C      1  0.5830870000000  0.4354500000000  0.4790900000000 1.0
C      1  0.5526440000000  0.5004140000000  0.5082770000000 1.0
C      1  0.4983050000000  0.5107510000000  0.3967130000000 1.0
C      1  0.5828120000000  0.4979930000000  0.4360680000000 1.0
C      1  0.5079620000000  0.4264010000000  0.5788870000000 1.0
C      1  0.5395710000000  0.5490630000000  0.5385940000000 1.0
C      1  0.5773540000000  0.5259920000000  0.4445070000000 1.0
C      1  0.4322230000000  0.5156790000000  0.4241330000000 1.0
C      1  0.5435000000000  0.5363030000000  0.4769430000000 1.0
C      1  0.4336330000000  0.5077750000000  0.5684410000000 1.0
C      1  0.5560950000000  0.4940060000000  0.4245450000000 1.0
C      1  0.4972260000000  0.4162220000000  0.5056450000000 1.0
C      1  0.4811200000000  0.4130010000000  0.5339810000000 1.0
C      1  0.5050220000000  0.4817550000000  0.4064520000000 1.0
C      1  0.5169170000000  0.4485220000000  0.4707080000000 1.0
C      1  0.5107770000000  0.5918950000000  0.5532740000000 1.0
C      1  0.5261520000000  0.4117240000000  0.5143500000000 1.0
C      1  0.5073240000000  0.5154510000000  0.5500740000000 1.0
C      1  0.4596040000000  0.4817090000000  0.4818110000000 1.0
C      1  0.5660330000000  0.4227970000000  0.5215420000000 1.0
C      1  0.4684330000000  0.4686610000000  0.5927720000000 1.0
C      1  0.4813060000000  0.4050400000000  0.4816230000000 1.0
C      1  0.5431760000000  0.4557580000000  0.4217200000000 1.0
C      1  0.4615840000000  0.5083280000000  0.4968600000000 1.0
C      1  0.4881110000000  0.5512110000000  0.4697010000000 1.0
C      1  0.5383860000000  0.4773810000000  0.4376090000000 1.0
C      1  0.4670010000000  0.4558290000000  0.4922600000000 1.0
C      1  0.5635900000000  0.5387670000000  0.5828740000000 1.0
C      1  0.5583670000000  0.4823040000000  0.4859310000000 1.0
C      1  0.4738130000000  0.5715120000000  0.5767940000000 1.0
C      1  0.5914010000000  0.5181010000000  0.5150850000000 1.0
C      1  0.4567640000000  0.5899350000000  0.4776980000000 1.0
C      1  0.4315480000000  0.5009570000000  0.4475310000000 1.0
C      1  0.5445960000000  0.5774040000000  0.5010190000000 1.0
C      1  0.5000530000000  0.5300110000000  0.5982500000000 1.0
C      1  0.4068390000000  0.4727810000000  0.4755430000000 1.0
C      1  0.4688000000000  0.5735880000000  0.4322560000000 1.0
C      1  0.4706300000000  0.4688580000000  0.4354620000000 1.0
END
