TITL C-883726-8501-345 4.50563636132688 125000 -7034.90580975693 0 0 49 (C1) n - 1
REM
REM in /home/nfs/bkarasulu/CARBON/AIRSS/Generating-Clusters/ReaxFF-fromJPCA2015/Units_Real/with-SteepDescent/Only-C1/SD-CG/Try1-3A/FIRE-CG
REM
REM
REM
REM
REM
REM ./C.cell (11c1c37f851c82e70ff6c80c92926a4b)
REM
REM compiler GCC version 9.2.1 20190827 (Red Hat 9.2.1-1)
REM options -cpp -mtune=generic -march=x86-64 -g -O0 -fpre-include=/usr/include/finclude/math-vector-fortran.h
REM seed 524376023 -744269360 -1203722870 1209687782 -253367693 1991330686 -407061341 1871746344 -222386356 -1826183562 -464689297 1465555748 680694100 -88781799 956141085 323698671 1592651137 1305477877 -228727303 -1829718080 1238895411 -397569901 1988905920 -1246914468 1844637503 -2128604810 -990262051 -1229801673 -955682003 1797907897 -837489107 1762412985 -1386587748
REM
CELL 1.54180   50.00000   50.00000   50.00000   90.00000   90.00000   90.00000
LATT -1
SFAC C  
C      1  0.4978580000000  0.4705560000000  0.4952620000000 1.0
C      1  0.5644590000000  0.4835240000000  0.4568490000000 1.0
C      1  0.5251230000000  0.4819300000000  0.5630450000000 1.0
C      1  0.4856180000000  0.5401150000000  0.4560850000000 1.0
C      1  0.4980280000000  0.4522680000000  0.4580860000000 1.0
C      1  0.5034480000000  0.5275530000000  0.5646330000000 1.0
C      1  0.5176350000000  0.4680520000000  0.4428450000000 1.0
C      1  0.4707180000000  0.4635450000000  0.5047440000000 1.0
C      1  0.5314470000000  0.5121610000000  0.5015300000000 1.0
C      1  0.4769750000000  0.4634380000000  0.5510900000000 1.0
C      1  0.4591310000000  0.4863350000000  0.5519540000000 1.0
C      1  0.5044080000000  0.5628390000000  0.4595580000000 1.0
C      1  0.5680490000000  0.4863520000000  0.4853280000000 1.0
C      1  0.4443170000000  0.4690760000000  0.4572050000000 1.0
C      1  0.5463610000000  0.4686400000000  0.4426950000000 1.0
C      1  0.5477940000000  0.4509090000000  0.5164000000000 1.0
C      1  0.5282840000000  0.4538720000000  0.5534690000000 1.0
C      1  0.5014580000000  0.4338770000000  0.5127350000000 1.0
C      1  0.5264040000000  0.4376480000000  0.5287850000000 1.0
C      1  0.4742280000000  0.4689280000000  0.4533690000000 1.0
C      1  0.5175410000000  0.4968750000000  0.4363900000000 1.0
C      1  0.4256660000000  0.5106040000000  0.4903370000000 1.0
C      1  0.4808360000000  0.5091790000000  0.5024810000000 1.0
C      1  0.4831770000000  0.5422300000000  0.5655790000000 1.0
C      1  0.4412020000000  0.5068180000000  0.5403240000000 1.0
C      1  0.4947840000000  0.5145080000000  0.4419370000000 1.0
C      1  0.5234390000000  0.5103140000000  0.5540930000000 1.0
C      1  0.5198740000000  0.5205370000000  0.5269790000000 1.0
C      1  0.5150430000000  0.5908600000000  0.5043290000000 1.0
C      1  0.4740160000000  0.5426850000000  0.5383240000000 1.0
C      1  0.4488790000000  0.5318950000000  0.5264290000000 1.0
C      1  0.5065870000000  0.4447740000000  0.4852480000000 1.0
C      1  0.5003580000000  0.4976930000000  0.4844170000000 1.0
C      1  0.5589580000000  0.5103240000000  0.4971140000000 1.0
C      1  0.4309700000000  0.4955090000000  0.5149550000000 1.0
C      1  0.5469920000000  0.4971660000000  0.4379870000000 1.0
C      1  0.5427580000000  0.5605900000000  0.4922440000000 1.0
C      1  0.4287900000000  0.4917280000000  0.4679030000000 1.0
C      1  0.5032800000000  0.4634620000000  0.5658230000000 1.0
C      1  0.4586220000000  0.4899840000000  0.5054140000000 1.0
C      1  0.5230280000000  0.5763350000000  0.4775140000000 1.0
C      1  0.5352380000000  0.5745560000000  0.5190350000000 1.0
C      1  0.4829790000000  0.4959430000000  0.4601630000000 1.0
C      1  0.4784890000000  0.4461530000000  0.5263080000000 1.0
C      1  0.5463470000000  0.5325570000000  0.4866570000000 1.0
C      1  0.4923170000000  0.5270980000000  0.5212710000000 1.0
C      1  0.4448190000000  0.5332140000000  0.4965810000000 1.0
C      1  0.5588810000000  0.4656720000000  0.5021190000000 1.0
C      1  0.4643870000000  0.5391190000000  0.4763790000000 1.0
END
