TITL C-883735-9890-374 78.4469632432574 125000 -26230.7872849239 0 0 178 (C1) n - 1
REM
REM in /home/nfs/bkarasulu/CARBON/AIRSS/Generating-Clusters/ReaxFF-fromJPCA2015/Units_Real/with-SteepDescent/Only-C1/SD-CG/Try1-3A/FIRE-CG
REM
REM
REM
REM
REM
REM ./C.cell (11c1c37f851c82e70ff6c80c92926a4b)
REM
REM compiler GCC version 9.2.1 20190827 (Red Hat 9.2.1-1)
REM options -cpp -mtune=generic -march=x86-64 -g -O0 -fpre-include=/usr/include/finclude/math-vector-fortran.h
REM seed -692831969 46513239 -535782055 -212737643 1703280421 -183073237 -697937855 -688609782 -875077706 -1089437464 456856171 -148815868 23671700 1955526653 -1110185126 -1250910530 1929296262 1922461533 -853655420 -977481688 -570402177 217970117 -942466807 1704131973 -342525548 534824659 -1999463 -865104449 -1397796882 641693907 1961610051 987678330 623513708
REM
CELL 1.54180   50.00000   50.00000   50.00000   90.00000   90.00000   90.00000
LATT -1
SFAC C  
C      1  0.4896970000000  0.5406410000000  0.5481630000000 1.0
C      1  0.4281590000000  0.4261150000000  0.5439480000000 1.0
C      1  0.5008960000000  0.4550080000000  0.5229180000000 1.0
C      1  0.6020380000000  0.4540490000000  0.5047620000000 1.0
C      1  0.5128960000000  0.6016330000000  0.5225430000000 1.0
C      1  0.3970170000000  0.5429260000000  0.4730570000000 1.0
C      1  0.5481920000000  0.4539760000000  0.4718570000000 1.0
C      1  0.5206080000000  0.6034300000000  0.5498990000000 1.0
C      1  0.5681080000000  0.4713860000000  0.5745620000000 1.0
C      1  0.4619370000000  0.5493290000000  0.5555400000000 1.0
C      1  0.5353260000000  0.5360290000000  0.5058410000000 1.0
C      1  0.5050220000000  0.5810270000000  0.4239250000000 1.0
C      1  0.4948810000000  0.4810880000000  0.4158060000000 1.0
C      1  0.5144670000000  0.4564830000000  0.4129340000000 1.0
C      1  0.5204680000000  0.5590090000000  0.4950340000000 1.0
C      1  0.5467280000000  0.5966310000000  0.4858250000000 1.0
C      1  0.4250300000000  0.4216510000000  0.4746450000000 1.0
C      1  0.5666090000000  0.4930020000000  0.5166200000000 1.0
C      1  0.5052780000000  0.5705260000000  0.5177770000000 1.0
C      1  0.5534530000000  0.5747760000000  0.5759240000000 1.0
C      1  0.4846250000000  0.4720380000000  0.4802580000000 1.0
C      1  0.4968530000000  0.5932970000000  0.5644410000000 1.0
C      1  0.4449600000000  0.4743740000000  0.4163650000000 1.0
C      1  0.5049270000000  0.4917950000000  0.5831660000000 1.0
C      1  0.5517320000000  0.4272860000000  0.4309620000000 1.0
C      1  0.4005780000000  0.5054190000000  0.4470130000000 1.0
C      1  0.6009250000000  0.5438930000000  0.4539220000000 1.0
C      1  0.4406330000000  0.5411080000000  0.4901810000000 1.0
C      1  0.5565260000000  0.5120090000000  0.4514870000000 1.0
C      1  0.5891960000000  0.4903480000000  0.5353880000000 1.0
C      1  0.4717810000000  0.4878810000000  0.4615640000000 1.0
C      1  0.4638270000000  0.5118410000000  0.3944960000000 1.0
C      1  0.5613960000000  0.5030950000000  0.4081450000000 1.0
C      1  0.4777940000000  0.5518430000000  0.5857490000000 1.0
C      1  0.4784340000000  0.4156760000000  0.5348920000000 1.0
C      1  0.6098490000000  0.4819930000000  0.5000880000000 1.0
C      1  0.4721420000000  0.4084040000000  0.4502920000000 1.0
C      1  0.4835510000000  0.4539750000000  0.5998290000000 1.0
C      1  0.3966520000000  0.5342220000000  0.5471580000000 1.0
C      1  0.5038870000000  0.4265950000000  0.5772230000000 1.0
C      1  0.4307740000000  0.4104130000000  0.5243820000000 1.0
C      1  0.6011180000000  0.5295000000000  0.5078600000000 1.0
C      1  0.4652210000000  0.4563470000000  0.4967520000000 1.0
C      1  0.4843130000000  0.4370410000000  0.5096220000000 1.0
C      1  0.5242610000000  0.3975320000000  0.4601660000000 1.0
C      1  0.4117760000000  0.5566220000000  0.4532510000000 1.0
C      1  0.5361330000000  0.5364680000000  0.5890840000000 1.0
C      1  0.4470000000000  0.5247460000000  0.5443150000000 1.0
C      1  0.5490620000000  0.5938020000000  0.5538540000000 1.0
C      1  0.4920600000000  0.4974050000000  0.4432030000000 1.0
C      1  0.5225680000000  0.4105870000000  0.5627190000000 1.0
C      1  0.4403360000000  0.4835550000000  0.5942450000000 1.0
C      1  0.5845880000000  0.4728540000000  0.4369040000000 1.0
C      1  0.5885020000000  0.4445290000000  0.5293070000000 1.0
C      1  0.5090960000000  0.5364830000000  0.4631450000000 1.0
C      1  0.4366250000000  0.5834130000000  0.5219310000000 1.0
C      1  0.4632920000000  0.4731660000000  0.5438830000000 1.0
C      1  0.5650060000000  0.5767780000000  0.5358920000000 1.0
C      1  0.4569940000000  0.4009690000000  0.5205500000000 1.0
C      1  0.5001950000000  0.5710890000000  0.5832570000000 1.0
C      1  0.5605610000000  0.5774200000000  0.5028890000000 1.0
C      1  0.5397940000000  0.5966710000000  0.4568460000000 1.0
C      1  0.5455070000000  0.4558140000000  0.5860570000000 1.0
C      1  0.5833200000000  0.4141350000000  0.4743770000000 1.0
C      1  0.4681800000000  0.6118380000000  0.5226340000000 1.0
C      1  0.5025140000000  0.4281470000000  0.4871340000000 1.0
C      1  0.4486160000000  0.4712910000000  0.4621430000000 1.0
C      1  0.4125950000000  0.4673310000000  0.5318980000000 1.0
C      1  0.5088300000000  0.4043870000000  0.5375210000000 1.0
C      1  0.5170960000000  0.5103850000000  0.4733830000000 1.0
C      1  0.4394550000000  0.4393550000000  0.5644090000000 1.0
C      1  0.5396450000000  0.5010710000000  0.4282350000000 1.0
C      1  0.5823930000000  0.4976490000000  0.4511120000000 1.0
C      1  0.4111990000000  0.5702500000000  0.5157830000000 1.0
C      1  0.5651060000000  0.4066770000000  0.4956990000000 1.0
C      1  0.4648140000000  0.5956140000000  0.4748130000000 1.0
C      1  0.5673510000000  0.4748730000000  0.4142740000000 1.0
C      1  0.4154860000000  0.5529650000000  0.4937080000000 1.0
C      1  0.5369110000000  0.4474450000000  0.5473160000000 1.0
C      1  0.4621520000000  0.4698370000000  0.5981560000000 1.0
C      1  0.5446960000000  0.4350150000000  0.5228420000000 1.0
C      1  0.5199290000000  0.5562640000000  0.4287300000000 1.0
C      1  0.5337060000000  0.5004000000000  0.5513510000000 1.0
C      1  0.4501310000000  0.4064630000000  0.4695290000000 1.0
C      1  0.4756930000000  0.4311570000000  0.5823160000000 1.0
C      1  0.5414650000000  0.5139040000000  0.4887720000000 1.0
C      1  0.5347650000000  0.5412060000000  0.4078590000000 1.0
C      1  0.4216820000000  0.5063380000000  0.5110400000000 1.0
C      1  0.5198250000000  0.4615250000000  0.5081860000000 1.0
C      1  0.5780470000000  0.4516640000000  0.4589330000000 1.0
C      1  0.5306600000000  0.5816600000000  0.4344940000000 1.0
C      1  0.4841420000000  0.5328250000000  0.3964400000000 1.0
C      1  0.5970710000000  0.4391800000000  0.4801160000000 1.0
C      1  0.4678590000000  0.4845530000000  0.4026350000000 1.0
C      1  0.4520130000000  0.4706960000000  0.5173960000000 1.0
C      1  0.5456650000000  0.5251140000000  0.5591030000000 1.0
C      1  0.4277310000000  0.4984520000000  0.4192780000000 1.0
C      1  0.4636550000000  0.3953500000000  0.4929290000000 1.0
C      1  0.5702950000000  0.4226380000000  0.5209290000000 1.0
C      1  0.4933560000000  0.4680380000000  0.5467350000000 1.0
C      1  0.5151020000000  0.5278000000000  0.6037650000000 1.0
C      1  0.4622840000000  0.5016580000000  0.5508320000000 1.0
C      1  0.4933610000000  0.5275700000000  0.4396180000000 1.0
C      1  0.4282100000000  0.4445980000000  0.4393120000000 1.0
C      1  0.5396710000000  0.5422280000000  0.5338580000000 1.0
C      1  0.5959150000000  0.5002250000000  0.4784240000000 1.0
C      1  0.4908520000000  0.6083720000000  0.4807910000000 1.0
C      1  0.5377710000000  0.3978210000000  0.4891610000000 1.0
C      1  0.5443660000000  0.4311840000000  0.5701910000000 1.0
C      1  0.4122170000000  0.4828780000000  0.5537220000000 1.0
C      1  0.5289040000000  0.5645330000000  0.5898610000000 1.0
C      1  0.4934740000000  0.6176940000000  0.5087580000000 1.0
C      1  0.5753740000000  0.5269340000000  0.5620470000000 1.0
C      1  0.5757350000000  0.5005180000000  0.5741470000000 1.0
C      1  0.5233170000000  0.3983310000000  0.5139190000000 1.0
C      1  0.5713680000000  0.5585920000000  0.5584470000000 1.0
C      1  0.5340250000000  0.4403120000000  0.4951160000000 1.0
C      1  0.4189340000000  0.4700760000000  0.4801350000000 1.0
C      1  0.4276700000000  0.4680180000000  0.5731400000000 1.0
C      1  0.5744760000000  0.4248670000000  0.4482600000000 1.0
C      1  0.5114520000000  0.4529050000000  0.5652600000000 1.0
C      1  0.4456250000000  0.5156760000000  0.5991870000000 1.0
C      1  0.5747250000000  0.5400490000000  0.5122840000000 1.0
C      1  0.5137740000000  0.5533520000000  0.5395110000000 1.0
C      1  0.4659280000000  0.4346600000000  0.5557820000000 1.0
C      1  0.4977970000000  0.4973260000000  0.4925480000000 1.0
C      1  0.5124120000000  0.5245750000000  0.3983170000000 1.0
C      1  0.5419450000000  0.4554410000000  0.4241790000000 1.0
C      1  0.4487060000000  0.4968830000000  0.5083220000000 1.0
C      1  0.5062990000000  0.4957190000000  0.5558020000000 1.0
C      1  0.4805350000000  0.5593790000000  0.5028330000000 1.0
C      1  0.6099680000000  0.5030440000000  0.5194630000000 1.0
C      1  0.5007940000000  0.4479700000000  0.4641450000000 1.0
C      1  0.4388550000000  0.5213330000000  0.4057470000000 1.0
C      1  0.5052190000000  0.4318520000000  0.4240780000000 1.0
C      1  0.3934390000000  0.5138350000000  0.4712580000000 1.0
C      1  0.4613750000000  0.5395430000000  0.5094670000000 1.0
C      1  0.4336390000000  0.5661880000000  0.4382440000000 1.0
C      1  0.4976600000000  0.5053820000000  0.6050760000000 1.0
C      1  0.4133140000000  0.4456570000000  0.4626740000000 1.0
C      1  0.4971400000000  0.5567710000000  0.4793200000000 1.0
C      1  0.4418680000000  0.5488470000000  0.4143820000000 1.0
C      1  0.4808760000000  0.4349040000000  0.4407760000000 1.0
C      1  0.5661670000000  0.4989130000000  0.4894600000000 1.0
C      1  0.5596470000000  0.5405350000000  0.4597260000000 1.0
C      1  0.4512150000000  0.4555740000000  0.4376470000000 1.0
C      1  0.5269370000000  0.4142560000000  0.4361830000000 1.0
C      1  0.5175930000000  0.4977240000000  0.4081500000000 1.0
C      1  0.4957330000000  0.3919390000000  0.4588110000000 1.0
C      1  0.4742850000000  0.5272810000000  0.6008180000000 1.0
C      1  0.4181010000000  0.5134140000000  0.5411480000000 1.0
C      1  0.5135480000000  0.4686020000000  0.5936680000000 1.0
C      1  0.6075370000000  0.5294890000000  0.4787700000000 1.0
C      1  0.5627260000000  0.5328800000000  0.4121780000000 1.0
C      1  0.4577750000000  0.5821420000000  0.4493630000000 1.0
C      1  0.4234100000000  0.5098060000000  0.4443690000000 1.0
C      1  0.4186610000000  0.4242540000000  0.5035830000000 1.0
C      1  0.5282350000000  0.4571080000000  0.4545960000000 1.0
C      1  0.5197860000000  0.6049510000000  0.4753060000000 1.0
C      1  0.5400510000000  0.4946970000000  0.5257780000000 1.0
C      1  0.4520120000000  0.5991870000000  0.5019180000000 1.0
C      1  0.5850750000000  0.4652010000000  0.5503170000000 1.0
C      1  0.4683170000000  0.5297560000000  0.4525590000000 1.0
C      1  0.4763640000000  0.5768870000000  0.4276790000000 1.0
C      1  0.4165510000000  0.4543570000000  0.5074530000000 1.0
C      1  0.5192400000000  0.4868200000000  0.5088630000000 1.0
C      1  0.4923530000000  0.3982740000000  0.4871060000000 1.0
C      1  0.5676960000000  0.5538700000000  0.4879690000000 1.0
C      1  0.4735380000000  0.5131300000000  0.5095940000000 1.0
C      1  0.3988720000000  0.5536600000000  0.5354710000000 1.0
C      1  0.4526670000000  0.5767890000000  0.5458680000000 1.0
C      1  0.4062780000000  0.4961050000000  0.4892780000000 1.0
C      1  0.4717460000000  0.5973450000000  0.5488880000000 1.0
C      1  0.5758180000000  0.5460200000000  0.4364730000000 1.0
C      1  0.4869940000000  0.5135850000000  0.5424300000000 1.0
C      1  0.4689300000000  0.5552950000000  0.4081920000000 1.0
C      1  0.4259330000000  0.5319570000000  0.5976100000000 1.0
C      1  0.4439200000000  0.5279910000000  0.4640950000000 1.0
END
