TITL C-883731-9874-384 -14.6109064848984 125000 -20526.2587784473 0 0 137 (C1) n - 1
REM
REM in /home/nfs/bkarasulu/CARBON/AIRSS/Generating-Clusters/ReaxFF-fromJPCA2015/Units_Real/with-SteepDescent/Only-C1/SD-CG/Try1-3A/FIRE-CG
REM
REM
REM
REM
REM
REM ./C.cell (11c1c37f851c82e70ff6c80c92926a4b)
REM
REM compiler GCC version 9.2.1 20190827 (Red Hat 9.2.1-1)
REM options -cpp -mtune=generic -march=x86-64 -g -O0 -fpre-include=/usr/include/finclude/math-vector-fortran.h
REM seed -406230502 89948735 -2145337339 -1785993964 -2000728971 1180285508 445161311 1792805297 -181221193 -1903305492 835406213 1954418489 -1145690942 496226519 -204509873 -928548318 -1511691853 -733120074 -1329123324 -371534343 -1512091596 -1288441542 134664515 -372504446 -375240482 528262030 574533901 692265000 -1266408114 -1847340746 1980370288 1409666296 1012375769
REM
CELL 1.54180   50.00000   50.00000   50.00000   90.00000   90.00000   90.00000
LATT -1
SFAC C  
C      1  0.5718300000000  0.5760830000000  0.5182530000000 1.0
C      1  0.5885760000000  0.5041340000000  0.4793610000000 1.0
C      1  0.5487200000000  0.5894890000000  0.5134920000000 1.0
C      1  0.4624710000000  0.4584660000000  0.5840940000000 1.0
C      1  0.4943790000000  0.5390720000000  0.5271860000000 1.0
C      1  0.5258590000000  0.5183640000000  0.4733370000000 1.0
C      1  0.4946920000000  0.5970450000000  0.4521940000000 1.0
C      1  0.5642160000000  0.4342810000000  0.4954560000000 1.0
C      1  0.5940550000000  0.4634530000000  0.5329470000000 1.0
C      1  0.4916060000000  0.4728460000000  0.4089800000000 1.0
C      1  0.4697770000000  0.4551670000000  0.4185840000000 1.0
C      1  0.5719960000000  0.5344320000000  0.5341950000000 1.0
C      1  0.4370700000000  0.5675520000000  0.4531770000000 1.0
C      1  0.4458560000000  0.4444330000000  0.5634570000000 1.0
C      1  0.4280280000000  0.4814450000000  0.4803850000000 1.0
C      1  0.4745820000000  0.5850530000000  0.5183780000000 1.0
C      1  0.4654360000000  0.5136180000000  0.5913940000000 1.0
C      1  0.5082260000000  0.4738760000000  0.5426600000000 1.0
C      1  0.4557730000000  0.5706270000000  0.4779460000000 1.0
C      1  0.5205280000000  0.5121700000000  0.4009000000000 1.0
C      1  0.5582790000000  0.4140350000000  0.4785440000000 1.0
C      1  0.4941810000000  0.5171270000000  0.5945980000000 1.0
C      1  0.4056220000000  0.5545440000000  0.4937950000000 1.0
C      1  0.4435440000000  0.4473520000000  0.4569090000000 1.0
C      1  0.4858880000000  0.5161770000000  0.4463560000000 1.0
C      1  0.5249280000000  0.4803670000000  0.5015370000000 1.0
C      1  0.5042420000000  0.4899800000000  0.5202540000000 1.0
C      1  0.5483810000000  0.4862710000000  0.5249590000000 1.0
C      1  0.5465510000000  0.3990520000000  0.4650170000000 1.0
C      1  0.5924830000000  0.5157710000000  0.5249890000000 1.0
C      1  0.5608870000000  0.4523770000000  0.4323050000000 1.0
C      1  0.4161070000000  0.5530710000000  0.4666340000000 1.0
C      1  0.5645800000000  0.5733340000000  0.5469710000000 1.0
C      1  0.4540850000000  0.4899930000000  0.4709940000000 1.0
C      1  0.5192720000000  0.4906070000000  0.4751400000000 1.0
C      1  0.4244740000000  0.4620760000000  0.5548880000000 1.0
C      1  0.5189110000000  0.5572310000000  0.4419280000000 1.0
C      1  0.5240140000000  0.4133010000000  0.5282200000000 1.0
C      1  0.5098970000000  0.5884530000000  0.4767370000000 1.0
C      1  0.5823790000000  0.4539530000000  0.5596890000000 1.0
C      1  0.4358770000000  0.4863160000000  0.5670670000000 1.0
C      1  0.5292450000000  0.5384140000000  0.3994610000000 1.0
C      1  0.4920670000000  0.4467050000000  0.4998840000000 1.0
C      1  0.4921110000000  0.5007770000000  0.4001200000000 1.0
C      1  0.5343670000000  0.5102260000000  0.4275420000000 1.0
C      1  0.4346670000000  0.4935160000000  0.4301690000000 1.0
C      1  0.5574060000000  0.5658130000000  0.4573550000000 1.0
C      1  0.5382840000000  0.4599270000000  0.4156520000000 1.0
C      1  0.5697890000000  0.4688400000000  0.4547660000000 1.0
C      1  0.5088320000000  0.4311260000000  0.5757650000000 1.0
C      1  0.4563330000000  0.5092610000000  0.5307950000000 1.0
C      1  0.5161480000000  0.5255000000000  0.4474200000000 1.0
C      1  0.4695960000000  0.5529930000000  0.5574210000000 1.0
C      1  0.4984500000000  0.5946560000000  0.5033080000000 1.0
C      1  0.5136010000000  0.4687690000000  0.5938950000000 1.0
C      1  0.5280790000000  0.5399580000000  0.4930070000000 1.0
C      1  0.4488380000000  0.5769380000000  0.5055620000000 1.0
C      1  0.5095450000000  0.3969560000000  0.5077360000000 1.0
C      1  0.6108080000000  0.4802090000000  0.5469990000000 1.0
C      1  0.5076220000000  0.5333830000000  0.5531190000000 1.0
C      1  0.5328480000000  0.5521420000000  0.5782390000000 1.0
C      1  0.4603170000000  0.4899150000000  0.5510590000000 1.0
C      1  0.4240550000000  0.5630970000000  0.5149190000000 1.0
C      1  0.5526080000000  0.4547370000000  0.5643020000000 1.0
C      1  0.5090140000000  0.3975590000000  0.4797560000000 1.0
C      1  0.4782250000000  0.4104180000000  0.5390980000000 1.0
C      1  0.4740470000000  0.5151750000000  0.4171390000000 1.0
C      1  0.4672290000000  0.5357720000000  0.4581830000000 1.0
C      1  0.5756760000000  0.4571010000000  0.4810430000000 1.0
C      1  0.5761140000000  0.5492350000000  0.5592600000000 1.0
C      1  0.4245180000000  0.5187120000000  0.4935620000000 1.0
C      1  0.4532860000000  0.4246200000000  0.5429310000000 1.0
C      1  0.5614380000000  0.5174070000000  0.4361440000000 1.0
C      1  0.5438000000000  0.5368090000000  0.5252930000000 1.0
C      1  0.4466320000000  0.4653180000000  0.4337920000000 1.0
C      1  0.4039360000000  0.4908800000000  0.4692320000000 1.0
C      1  0.5222250000000  0.5969900000000  0.5207360000000 1.0
C      1  0.3898190000000  0.4981290000000  0.4940510000000 1.0
C      1  0.5629270000000  0.5473040000000  0.4347560000000 1.0
C      1  0.4260080000000  0.4541600000000  0.4794210000000 1.0
C      1  0.4273380000000  0.5141000000000  0.5222490000000 1.0
C      1  0.4902630000000  0.4506100000000  0.5887220000000 1.0
C      1  0.5136250000000  0.4968700000000  0.5855510000000 1.0
C      1  0.5126730000000  0.5808650000000  0.5435470000000 1.0
C      1  0.4611450000000  0.4170760000000  0.4942200000000 1.0
C      1  0.5052240000000  0.4166690000000  0.5499970000000 1.0
C      1  0.4209090000000  0.5422670000000  0.5356660000000 1.0
C      1  0.6186300000000  0.5061630000000  0.5449290000000 1.0
C      1  0.4132020000000  0.4646320000000  0.5273870000000 1.0
C      1  0.5397920000000  0.4364040000000  0.5172610000000 1.0
C      1  0.5359680000000  0.5622140000000  0.5485770000000 1.0
C      1  0.5321060000000  0.4473790000000  0.5844300000000 1.0
C      1  0.5367220000000  0.4623420000000  0.5395990000000 1.0
C      1  0.5143010000000  0.4204960000000  0.4318540000000 1.0
C      1  0.5887950000000  0.4790740000000  0.4948760000000 1.0
C      1  0.4313560000000  0.5408020000000  0.5617630000000 1.0
C      1  0.4331300000000  0.5278920000000  0.4667010000000 1.0
C      1  0.5053800000000  0.5410540000000  0.5812980000000 1.0
C      1  0.5750100000000  0.4983580000000  0.4543200000000 1.0
C      1  0.5401340000000  0.4322200000000  0.4237320000000 1.0
C      1  0.4534580000000  0.5385170000000  0.5788980000000 1.0
C      1  0.5208280000000  0.4517020000000  0.5003780000000 1.0
C      1  0.4735100000000  0.4625160000000  0.5158280000000 1.0
C      1  0.4430150000000  0.5503720000000  0.4293850000000 1.0
C      1  0.5947650000000  0.5269670000000  0.4971330000000 1.0
C      1  0.4791800000000  0.4683800000000  0.5435710000000 1.0
C      1  0.4710100000000  0.5539900000000  0.4337840000000 1.0
C      1  0.5866000000000  0.5553950000000  0.4976900000000 1.0
C      1  0.4676320000000  0.5355150000000  0.5353770000000 1.0
C      1  0.5214730000000  0.5093320000000  0.5597950000000 1.0
C      1  0.4424350000000  0.4257420000000  0.5151530000000 1.0
C      1  0.4759930000000  0.4919320000000  0.5121180000000 1.0
C      1  0.4777180000000  0.5518320000000  0.4804010000000 1.0
C      1  0.4998540000000  0.5446390000000  0.4998870000000 1.0
C      1  0.4663530000000  0.4334070000000  0.4696040000000 1.0
C      1  0.5783750000000  0.4867560000000  0.5205330000000 1.0
C      1  0.4938550000000  0.5726930000000  0.4347910000000 1.0
C      1  0.4836980000000  0.5767480000000  0.5448550000000 1.0
C      1  0.4172280000000  0.5066330000000  0.4489420000000 1.0
C      1  0.5600810000000  0.5418590000000  0.5841590000000 1.0
C      1  0.4800770000000  0.4018200000000  0.5107870000000 1.0
C      1  0.4047160000000  0.4910020000000  0.5184800000000 1.0
C      1  0.5199540000000  0.3986110000000  0.4542640000000 1.0
C      1  0.5771610000000  0.5555370000000  0.4731090000000 1.0
C      1  0.5386020000000  0.5104850000000  0.5373690000000 1.0
C      1  0.4922140000000  0.4482940000000  0.4703010000000 1.0
C      1  0.4892340000000  0.4335890000000  0.4253540000000 1.0
C      1  0.5103040000000  0.4679700000000  0.4573620000000 1.0
C      1  0.4529440000000  0.4864780000000  0.5911680000000 1.0
C      1  0.5296410000000  0.5655530000000  0.4708520000000 1.0
C      1  0.5139490000000  0.4704060000000  0.4286020000000 1.0
C      1  0.4455650000000  0.5200430000000  0.4210970000000 1.0
C      1  0.4818320000000  0.4948950000000  0.4640930000000 1.0
C      1  0.4231070000000  0.4454510000000  0.5070260000000 1.0
C      1  0.4732380000000  0.5021190000000  0.4873580000000 1.0
C      1  0.3959730000000  0.5268380000000  0.4985370000000 1.0
C      1  0.5399540000000  0.5560530000000  0.4184810000000 1.0
END
