TITL C-884140-4336-319 52.3257246351073 125000 -27139.4919417033 0 0 183 (C1) n - 1
REM
REM in /home/nfs/bkarasulu/CARBON/AIRSS/Generating-Clusters/ReaxFF-fromJPCA2015/Units_Real/with-SteepDescent/Only-C1/SD-CG/Try1-3A/FIRE-CG
REM
REM
REM
REM
REM
REM ./C.cell (11c1c37f851c82e70ff6c80c92926a4b)
REM
REM compiler GCC version 9.2.1 20190827 (Red Hat 9.2.1-1)
REM options -cpp -mtune=generic -march=x86-64 -g -O0 -fpre-include=/usr/include/finclude/math-vector-fortran.h
REM seed 7475076 1664869259 -647267340 281810107 339789932 -626727541 739672657 1253065336 -617373916 1842457772 1673620935 -5998139 1689022141 1328145544 1821567359 -94647491 1722898485 588981794 2098382668 -1638799024 -1572109816 1113770341 -1614516270 1193109033 -1853040860 1705423926 756968484 2143209492 269592368 1179669676 -1323643099 1391342495 81379689
REM
CELL 1.54180   50.00000   50.00000   50.00000   90.00000   90.00000   90.00000
LATT -1
SFAC C  
C      1  0.4221930000000  0.4856400000000  0.4134430000000 1.0
C      1  0.5787850000000  0.4645590000000  0.5713170000000 1.0
C      1  0.5066160000000  0.4906630000000  0.4328780000000 1.0
C      1  0.5618310000000  0.5502830000000  0.5601680000000 1.0
C      1  0.5939070000000  0.4409430000000  0.5565570000000 1.0
C      1  0.5918250000000  0.4936260000000  0.5722970000000 1.0
C      1  0.5148110000000  0.4843530000000  0.4004430000000 1.0
C      1  0.5422210000000  0.4843540000000  0.4889420000000 1.0
C      1  0.5516490000000  0.5083270000000  0.4763200000000 1.0
C      1  0.5305610000000  0.4004340000000  0.4439990000000 1.0
C      1  0.5381790000000  0.4877990000000  0.5173330000000 1.0
C      1  0.5363550000000  0.5322240000000  0.4858420000000 1.0
C      1  0.4349800000000  0.5627070000000  0.4013060000000 1.0
C      1  0.5566500000000  0.5647390000000  0.4448710000000 1.0
C      1  0.4717870000000  0.4952800000000  0.5028470000000 1.0
C      1  0.4009330000000  0.4694580000000  0.5307010000000 1.0
C      1  0.4407440000000  0.4671470000000  0.5140260000000 1.0
C      1  0.4301440000000  0.4507260000000  0.5688170000000 1.0
C      1  0.5450500000000  0.5437670000000  0.3980450000000 1.0
C      1  0.4009180000000  0.4836690000000  0.4781380000000 1.0
C      1  0.4517070000000  0.5467250000000  0.5077900000000 1.0
C      1  0.4785530000000  0.4770600000000  0.5267820000000 1.0
C      1  0.6111280000000  0.4568040000000  0.4607150000000 1.0
C      1  0.4794970000000  0.6093650000000  0.4680880000000 1.0
C      1  0.4787500000000  0.5150780000000  0.3917100000000 1.0
C      1  0.5503460000000  0.5429860000000  0.5079110000000 1.0
C      1  0.4580590000000  0.4563060000000  0.4963420000000 1.0
C      1  0.4243780000000  0.4299800000000  0.4937190000000 1.0
C      1  0.4670190000000  0.4013180000000  0.4849740000000 1.0
C      1  0.5862580000000  0.5345880000000  0.5659590000000 1.0
C      1  0.4570140000000  0.5204390000000  0.5471630000000 1.0
C      1  0.4686940000000  0.5793740000000  0.5803690000000 1.0
C      1  0.4419970000000  0.4912540000000  0.6169650000000 1.0
C      1  0.4853520000000  0.4352120000000  0.4587460000000 1.0
C      1  0.5906160000000  0.5263070000000  0.4513670000000 1.0
C      1  0.4469440000000  0.4125040000000  0.5014390000000 1.0
C      1  0.4836310000000  0.5317770000000  0.5887460000000 1.0
C      1  0.5503940000000  0.5785410000000  0.5324990000000 1.0
C      1  0.5150530000000  0.4677820000000  0.4492660000000 1.0
C      1  0.4976880000000  0.5763900000000  0.5770400000000 1.0
C      1  0.5478320000000  0.5905520000000  0.4931200000000 1.0
C      1  0.5076910000000  0.6029560000000  0.4741640000000 1.0
C      1  0.5439940000000  0.4295820000000  0.5744090000000 1.0
C      1  0.4926170000000  0.4610290000000  0.3926840000000 1.0
C      1  0.4067470000000  0.5212430000000  0.5226050000000 1.0
C      1  0.4519000000000  0.5893570000000  0.5580830000000 1.0
C      1  0.4261570000000  0.4959060000000  0.4813060000000 1.0
C      1  0.5493740000000  0.4223060000000  0.4437890000000 1.0
C      1  0.3904680000000  0.5285500000000  0.4559220000000 1.0
C      1  0.5135140000000  0.5817450000000  0.4542300000000 1.0
C      1  0.4170470000000  0.5206340000000  0.4439570000000 1.0
C      1  0.5693200000000  0.4949950000000  0.4029820000000 1.0
C      1  0.5664860000000  0.4422000000000  0.4435990000000 1.0
C      1  0.3917800000000  0.4960220000000  0.5203810000000 1.0
C      1  0.4450840000000  0.5868000000000  0.4605820000000 1.0
C      1  0.5698110000000  0.5083360000000  0.4542730000000 1.0
C      1  0.5150360000000  0.4493240000000  0.4967230000000 1.0
C      1  0.4517340000000  0.4338860000000  0.4196050000000 1.0
C      1  0.4369080000000  0.5215680000000  0.5234640000000 1.0
C      1  0.4174530000000  0.4504380000000  0.5149570000000 1.0
C      1  0.5176900000000  0.5157800000000  0.4439890000000 1.0
C      1  0.5034170000000  0.4017620000000  0.5310980000000 1.0
C      1  0.5300740000000  0.5572570000000  0.4617850000000 1.0
C      1  0.4635050000000  0.4084920000000  0.4283400000000 1.0
C      1  0.5952770000000  0.5104910000000  0.5488240000000 1.0
C      1  0.5086590000000  0.5033680000000  0.6160520000000 1.0
C      1  0.4356380000000  0.5484260000000  0.5700710000000 1.0
C      1  0.4665950000000  0.4119170000000  0.4576340000000 1.0
C      1  0.5818270000000  0.4650760000000  0.5170440000000 1.0
C      1  0.3809170000000  0.5254280000000  0.4833780000000 1.0
C      1  0.5769530000000  0.5365370000000  0.5076930000000 1.0
C      1  0.5067130000000  0.5403430000000  0.4541510000000 1.0
C      1  0.4557620000000  0.4147510000000  0.5343500000000 1.0
C      1  0.5136650000000  0.5019990000000  0.5232250000000 1.0
C      1  0.4914620000000  0.5117550000000  0.4919110000000 1.0
C      1  0.4522080000000  0.4509900000000  0.5876870000000 1.0
C      1  0.4293200000000  0.4409190000000  0.4376720000000 1.0
C      1  0.5161640000000  0.6105510000000  0.5262670000000 1.0
C      1  0.5541090000000  0.4298570000000  0.5464180000000 1.0
C      1  0.5082380000000  0.4624370000000  0.5958140000000 1.0
C      1  0.4404610000000  0.4322070000000  0.5510560000000 1.0
C      1  0.4991270000000  0.3930960000000  0.4887040000000 1.0
C      1  0.5765780000000  0.5861290000000  0.5022010000000 1.0
C      1  0.5545910000000  0.4591380000000  0.4236040000000 1.0
C      1  0.4726700000000  0.4467370000000  0.4807490000000 1.0
C      1  0.4132380000000  0.4644780000000  0.4327590000000 1.0
C      1  0.4375590000000  0.5060940000000  0.4594070000000 1.0
C      1  0.5373770000000  0.4949810000000  0.6122990000000 1.0
C      1  0.5791000000000  0.5729940000000  0.5292480000000 1.0
C      1  0.5257600000000  0.5836170000000  0.5722390000000 1.0
C      1  0.4209440000000  0.5142670000000  0.4159090000000 1.0
C      1  0.4705950000000  0.5417540000000  0.4002380000000 1.0
C      1  0.5566550000000  0.4788120000000  0.5529120000000 1.0
C      1  0.4407820000000  0.4955680000000  0.5048200000000 1.0
C      1  0.5847300000000  0.5149320000000  0.4177550000000 1.0
C      1  0.5560220000000  0.4517290000000  0.5888730000000 1.0
C      1  0.5936060000000  0.5460700000000  0.5272760000000 1.0
C      1  0.4391830000000  0.5381830000000  0.4050770000000 1.0
C      1  0.5175850000000  0.4172240000000  0.5799310000000 1.0
C      1  0.5531390000000  0.5021990000000  0.5379060000000 1.0
C      1  0.4878440000000  0.4035310000000  0.4139310000000 1.0
C      1  0.6044620000000  0.5182160000000  0.4781710000000 1.0
C      1  0.4967670000000  0.4500860000000  0.4367440000000 1.0
C      1  0.4941290000000  0.4497310000000  0.5225230000000 1.0
C      1  0.4894590000000  0.6085580000000  0.5302750000000 1.0
C      1  0.4630450000000  0.4542920000000  0.4014040000000 1.0
C      1  0.4590460000000  0.5467870000000  0.4789830000000 1.0
C      1  0.4461240000000  0.4774700000000  0.3984730000000 1.0
C      1  0.4332980000000  0.5701820000000  0.5500760000000 1.0
C      1  0.4934190000000  0.5557600000000  0.4116130000000 1.0
C      1  0.4471300000000  0.5981960000000  0.5106000000000 1.0
C      1  0.5819920000000  0.4200780000000  0.5406830000000 1.0
C      1  0.5237950000000  0.4679590000000  0.4763960000000 1.0
C      1  0.4906170000000  0.4817760000000  0.6103990000000 1.0
C      1  0.4664390000000  0.4909700000000  0.5485740000000 1.0
C      1  0.5457470000000  0.5316520000000  0.5411540000000 1.0
C      1  0.4225480000000  0.5217930000000  0.5695730000000 1.0
C      1  0.4990370000000  0.4330740000000  0.5943620000000 1.0
C      1  0.5983850000000  0.4984090000000  0.4968420000000 1.0
C      1  0.4667160000000  0.4941180000000  0.4064360000000 1.0
C      1  0.5014090000000  0.5561270000000  0.5011180000000 1.0
C      1  0.5851240000000  0.4426780000000  0.4982660000000 1.0
C      1  0.5508210000000  0.5542010000000  0.4213400000000 1.0
C      1  0.5447300000000  0.4769440000000  0.4053580000000 1.0
C      1  0.5433620000000  0.5605540000000  0.5805270000000 1.0
C      1  0.3999380000000  0.4611530000000  0.4595170000000 1.0
C      1  0.4732040000000  0.4092990000000  0.5636200000000 1.0
C      1  0.4778230000000  0.4854710000000  0.4307490000000 1.0
C      1  0.4762740000000  0.5434230000000  0.5437680000000 1.0
C      1  0.5126680000000  0.5249640000000  0.5025360000000 1.0
C      1  0.5531610000000  0.5171350000000  0.6017910000000 1.0
C      1  0.4713710000000  0.4288840000000  0.5852530000000 1.0
C      1  0.5068680000000  0.4971910000000  0.5515430000000 1.0
C      1  0.5748270000000  0.4186470000000  0.5110030000000 1.0
C      1  0.4607070000000  0.4762230000000  0.6056910000000 1.0
C      1  0.5072920000000  0.5118050000000  0.3912840000000 1.0
C      1  0.5688720000000  0.5235340000000  0.3953950000000 1.0
C      1  0.5152440000000  0.5388370000000  0.3996780000000 1.0
C      1  0.5595170000000  0.4568970000000  0.5349080000000 1.0
C      1  0.5079300000000  0.4712590000000  0.5636870000000 1.0
C      1  0.4347450000000  0.5619310000000  0.4724090000000 1.0
C      1  0.5824650000000  0.5728590000000  0.4775790000000 1.0
C      1  0.5068060000000  0.5312360000000  0.6066260000000 1.0
C      1  0.5334490000000  0.5969870000000  0.5472420000000 1.0
C      1  0.4109870000000  0.4735340000000  0.5575130000000 1.0
C      1  0.5051360000000  0.4280770000000  0.4133030000000 1.0
C      1  0.5146040000000  0.4025430000000  0.4194290000000 1.0
C      1  0.5835500000000  0.5564180000000  0.4551400000000 1.0
C      1  0.4707240000000  0.5921080000000  0.4457440000000 1.0
C      1  0.4159910000000  0.5000000000000  0.5652920000000 1.0
C      1  0.4840000000000  0.4232710000000  0.5250520000000 1.0
C      1  0.6028890000000  0.5393620000000  0.4984370000000 1.0
C      1  0.4616450000000  0.5515500000000  0.5851520000000 1.0
C      1  0.4996880000000  0.5582280000000  0.5539130000000 1.0
C      1  0.5013480000000  0.5198480000000  0.5672910000000 1.0
C      1  0.4776440000000  0.5542340000000  0.5181680000000 1.0
C      1  0.4156330000000  0.5625650000000  0.4951690000000 1.0
C      1  0.5252230000000  0.6082360000000  0.4968410000000 1.0
C      1  0.5031110000000  0.4511910000000  0.5469600000000 1.0
C      1  0.5003820000000  0.4010980000000  0.5609570000000 1.0
C      1  0.5794360000000  0.5152490000000  0.5879520000000 1.0
C      1  0.5467760000000  0.4101560000000  0.5025430000000 1.0
C      1  0.4317440000000  0.5734300000000  0.5182050000000 1.0
C      1  0.5331520000000  0.4326560000000  0.4942750000000 1.0
C      1  0.3980710000000  0.5408260000000  0.5030540000000 1.0
C      1  0.4927980000000  0.5763960000000  0.4339470000000 1.0
C      1  0.4539950000000  0.6040780000000  0.4830360000000 1.0
C      1  0.5352980000000  0.5683640000000  0.5090470000000 1.0
C      1  0.4879330000000  0.5504400000000  0.4753130000000 1.0
C      1  0.5151820000000  0.3961450000000  0.4681710000000 1.0
C      1  0.5940040000000  0.4921640000000  0.5222450000000 1.0
C      1  0.4819190000000  0.4921960000000  0.4760090000000 1.0
C      1  0.4643460000000  0.4959830000000  0.4541690000000 1.0
C      1  0.5345700000000  0.5395320000000  0.5991650000000 1.0
C      1  0.5213630000000  0.3938570000000  0.5092850000000 1.0
C      1  0.5183550000000  0.5365160000000  0.5528250000000 1.0
C      1  0.4174850000000  0.4382900000000  0.4659530000000 1.0
C      1  0.5383120000000  0.4673720000000  0.6044390000000 1.0
C      1  0.5060910000000  0.4389300000000  0.3815530000000 1.0
C      1  0.4623570000000  0.6065360000000  0.5343420000000 1.0
C      1  0.5892850000000  0.4470460000000  0.4681190000000 1.0
C      1  0.3804760000000  0.4974330000000  0.4935740000000 1.0
C      1  0.5438330000000  0.5070070000000  0.4472320000000 1.0
END
