TITL C-884133-6611-317 9.52130288110781 125000 -14840.8330337954 0 0 101 (C1) n - 1
REM
REM in /home/nfs/bkarasulu/CARBON/AIRSS/Generating-Clusters/ReaxFF-fromJPCA2015/Units_Real/with-SteepDescent/Only-C1/SD-CG/Try1-3A/FIRE-CG
REM
REM
REM
REM
REM
REM ./C.cell (11c1c37f851c82e70ff6c80c92926a4b)
REM
REM compiler GCC version 9.2.1 20190827 (Red Hat 9.2.1-1)
REM options -cpp -mtune=generic -march=x86-64 -g -O0 -fpre-include=/usr/include/finclude/math-vector-fortran.h
REM seed -341659400 2007479810 174082885 1009570565 -879147311 631358443 -950700860 909485209 891147902 513845269 447306421 -805285922 1464770435 537818297 -2065107731 1048171031 -527173978 -206993487 -688573836 -8604208 -1338222699 -726525136 -200474641 -663363776 269460183 -1740781932 -257390445 134074868 1339074020 154239051 -286549621 2013633815 575287775
REM
CELL 1.54180   50.00000   50.00000   50.00000   90.00000   90.00000   90.00000
LATT -1
SFAC C  
C      1  0.5760310000000  0.5349510000000  0.4876870000000 1.0
C      1  0.5779820000000  0.4612810000000  0.4792590000000 1.0
C      1  0.4653630000000  0.4552090000000  0.5604770000000 1.0
C      1  0.4915790000000  0.4188330000000  0.5408890000000 1.0
C      1  0.5616260000000  0.5507180000000  0.5131740000000 1.0
C      1  0.5443540000000  0.5569260000000  0.4589570000000 1.0
C      1  0.5612210000000  0.5096230000000  0.4412540000000 1.0
C      1  0.5331340000000  0.5735280000000  0.4805720000000 1.0
C      1  0.5386690000000  0.4991040000000  0.4245310000000 1.0
C      1  0.5549750000000  0.4440380000000  0.4364530000000 1.0
C      1  0.5269830000000  0.5248570000000  0.4880260000000 1.0
C      1  0.5319630000000  0.5633370000000  0.5529220000000 1.0
C      1  0.5144240000000  0.5832680000000  0.4471080000000 1.0
C      1  0.4411670000000  0.4644500000000  0.4328560000000 1.0
C      1  0.5231820000000  0.4186260000000  0.4990130000000 1.0
C      1  0.4663550000000  0.5369370000000  0.4264350000000 1.0
C      1  0.4427470000000  0.4738890000000  0.5526990000000 1.0
C      1  0.5087540000000  0.4351030000000  0.5580080000000 1.0
C      1  0.5617010000000  0.5341970000000  0.4631800000000 1.0
C      1  0.4877040000000  0.4490220000000  0.4587080000000 1.0
C      1  0.5766240000000  0.4604760000000  0.4496570000000 1.0
C      1  0.5195970000000  0.4735740000000  0.4869040000000 1.0
C      1  0.4734910000000  0.5232420000000  0.5733960000000 1.0
C      1  0.4486600000000  0.5206960000000  0.4918570000000 1.0
C      1  0.4296300000000  0.5450490000000  0.4936000000000 1.0
C      1  0.4952630000000  0.4637310000000  0.5291070000000 1.0
C      1  0.4358920000000  0.5311230000000  0.5454690000000 1.0
C      1  0.5092030000000  0.4334160000000  0.4472450000000 1.0
C      1  0.4756500000000  0.5164210000000  0.5450400000000 1.0
C      1  0.4334310000000  0.4476270000000  0.5096210000000 1.0
C      1  0.4713520000000  0.5328570000000  0.4783330000000 1.0
C      1  0.4717980000000  0.4203080000000  0.4993010000000 1.0
C      1  0.4960410000000  0.4640040000000  0.5017420000000 1.0
C      1  0.5898950000000  0.4946040000000  0.5226450000000 1.0
C      1  0.4005680000000  0.5012450000000  0.4937210000000 1.0
C      1  0.4649180000000  0.4298950000000  0.5455980000000 1.0
C      1  0.5022250000000  0.5010500000000  0.4537960000000 1.0
C      1  0.5002440000000  0.5275630000000  0.5322170000000 1.0
C      1  0.5096510000000  0.5533630000000  0.4883340000000 1.0
C      1  0.4865000000000  0.5184850000000  0.4133640000000 1.0
C      1  0.5085970000000  0.4815200000000  0.5806590000000 1.0
C      1  0.5078710000000  0.5364540000000  0.4202250000000 1.0
C      1  0.4263320000000  0.4642640000000  0.4593760000000 1.0
C      1  0.5861140000000  0.4870660000000  0.4810420000000 1.0
C      1  0.4929450000000  0.4583640000000  0.5699600000000 1.0
C      1  0.5726570000000  0.5027340000000  0.5451830000000 1.0
C      1  0.5253200000000  0.4179850000000  0.4690030000000 1.0
C      1  0.4978580000000  0.5786530000000  0.5298240000000 1.0
C      1  0.4812400000000  0.5594750000000  0.4786050000000 1.0
C      1  0.5264220000000  0.4511910000000  0.4306510000000 1.0
C      1  0.4592920000000  0.5746110000000  0.4900630000000 1.0
C      1  0.5447280000000  0.5747860000000  0.5073200000000 1.0
C      1  0.4994660000000  0.5340190000000  0.5843210000000 1.0
C      1  0.4443000000000  0.5636270000000  0.5129340000000 1.0
C      1  0.5245420000000  0.4841710000000  0.5576280000000 1.0
C      1  0.4974120000000  0.4143340000000  0.5120600000000 1.0
C      1  0.5647870000000  0.5266240000000  0.5615760000000 1.0
C      1  0.5044720000000  0.4737360000000  0.4627620000000 1.0
C      1  0.4639220000000  0.5039910000000  0.5191050000000 1.0
C      1  0.5434490000000  0.4315040000000  0.5155750000000 1.0
C      1  0.4175920000000  0.5186950000000  0.5287300000000 1.0
C      1  0.4517300000000  0.5513860000000  0.4460640000000 1.0
C      1  0.4665570000000  0.4372220000000  0.4758950000000 1.0
C      1  0.4407950000000  0.5636470000000  0.4699670000000 1.0
C      1  0.5482580000000  0.4246520000000  0.4550810000000 1.0
C      1  0.5386390000000  0.5239820000000  0.5740910000000 1.0
C      1  0.5167050000000  0.5103630000000  0.5874500000000 1.0
C      1  0.5232730000000  0.4662320000000  0.5356680000000 1.0
C      1  0.4000610000000  0.5309330000000  0.4952000000000 1.0
C      1  0.4404250000000  0.5008780000000  0.4710340000000 1.0
C      1  0.5211800000000  0.5174930000000  0.4387310000000 1.0
C      1  0.5255940000000  0.4995200000000  0.4860810000000 1.0
C      1  0.4516810000000  0.4273150000000  0.5195570000000 1.0
C      1  0.5183230000000  0.4778380000000  0.4200410000000 1.0
C      1  0.5206300000000  0.5591670000000  0.4378210000000 1.0
C      1  0.4634930000000  0.4934640000000  0.4565730000000 1.0
C      1  0.4665340000000  0.4792670000000  0.4308230000000 1.0
C      1  0.4267730000000  0.4690150000000  0.5287070000000 1.0
C      1  0.5479700000000  0.5060690000000  0.5300550000000 1.0
C      1  0.5898760000000  0.5105960000000  0.4957240000000 1.0
C      1  0.5563060000000  0.5491710000000  0.5459720000000 1.0
C      1  0.5004980000000  0.5534100000000  0.5161340000000 1.0
C      1  0.4108490000000  0.4925940000000  0.5207950000000 1.0
C      1  0.4806440000000  0.5130700000000  0.4627820000000 1.0
C      1  0.4589150000000  0.5006410000000  0.5792110000000 1.0
C      1  0.5666930000000  0.4480120000000  0.5067110000000 1.0
C      1  0.4723430000000  0.4750860000000  0.5144710000000 1.0
C      1  0.4147200000000  0.4896750000000  0.4697300000000 1.0
C      1  0.5269900000000  0.5121050000000  0.5484890000000 1.0
C      1  0.4911200000000  0.5121220000000  0.5067220000000 1.0
C      1  0.5819890000000  0.4884790000000  0.4386190000000 1.0
C      1  0.4403920000000  0.4492280000000  0.4809370000000 1.0
C      1  0.5332860000000  0.4396140000000  0.5419880000000 1.0
C      1  0.5778070000000  0.4690620000000  0.5206970000000 1.0
C      1  0.4382490000000  0.5025610000000  0.5612940000000 1.0
C      1  0.5040640000000  0.5555600000000  0.5648500000000 1.0
C      1  0.5435890000000  0.5260380000000  0.5109620000000 1.0
C      1  0.4805020000000  0.5655180000000  0.5499630000000 1.0
C      1  0.4910460000000  0.4890420000000  0.4157940000000 1.0
C      1  0.4536940000000  0.5542550000000  0.5389290000000 1.0
C      1  0.5279400000000  0.5812900000000  0.5306330000000 1.0
END
