TITL C-884128-4793-85 0.447577589563432 125000 -7104.26908190045 0 0 49 (C1) n - 1
REM
REM in /home/nfs/bkarasulu/CARBON/AIRSS/Generating-Clusters/ReaxFF-fromJPCA2015/Units_Real/with-SteepDescent/Only-C1/SD-CG/Try1-3A/FIRE-CG
REM
REM
REM
REM
REM
REM ./C.cell (11c1c37f851c82e70ff6c80c92926a4b)
REM
REM compiler GCC version 9.2.1 20190827 (Red Hat 9.2.1-1)
REM options -cpp -mtune=generic -march=x86-64 -g -O0 -fpre-include=/usr/include/finclude/math-vector-fortran.h
REM seed 1310345239 1794325933 -1818465513 2067344686 -583348452 584813226 -1914539643 318978705 -177420962 -28949437 530925199 -748605452 -51181164 123882269 -206605211 281609744 -1692621163 519762658 1126156778 -723750326 1976539472 288885113 -666295022 -1165614132 -67842488 2098301666 866186784 -1030529951 37825608 882687636 -2038173953 -1625060473 1229515193
REM
CELL 1.54180   50.00000   50.00000   50.00000   90.00000   90.00000   90.00000
LATT -1
SFAC C  
C      1  0.5323840000000  0.5359050000000  0.4567570000000 1.0
C      1  0.4977190000000  0.4827660000000  0.5059170000000 1.0
C      1  0.4463080000000  0.4796290000000  0.4959060000000 1.0
C      1  0.5161770000000  0.5289640000000  0.4326430000000 1.0
C      1  0.5522290000000  0.5679020000000  0.5158420000000 1.0
C      1  0.4530580000000  0.5025400000000  0.5312280000000 1.0
C      1  0.5603090000000  0.4551580000000  0.5308560000000 1.0
C      1  0.5106500000000  0.5674640000000  0.5223400000000 1.0
C      1  0.5710810000000  0.5459470000000  0.5078380000000 1.0
C      1  0.4534180000000  0.4446620000000  0.5361290000000 1.0
C      1  0.5275310000000  0.5719090000000  0.4986900000000 1.0
C      1  0.5317930000000  0.4546890000000  0.5299290000000 1.0
C      1  0.4749620000000  0.4288000000000  0.5258400000000 1.0
C      1  0.4494600000000  0.4344040000000  0.5108790000000 1.0
C      1  0.4620550000000  0.5436990000000  0.5119660000000 1.0
C      1  0.4699110000000  0.4843380000000  0.5136650000000 1.0
C      1  0.4615890000000  0.5260570000000  0.4388140000000 1.0
C      1  0.4967730000000  0.4824780000000  0.4517070000000 1.0
C      1  0.5644160000000  0.4907820000000  0.4948630000000 1.0
C      1  0.5411020000000  0.4878070000000  0.4776780000000 1.0
C      1  0.4620470000000  0.5422590000000  0.4608500000000 1.0
C      1  0.5054300000000  0.5015030000000  0.4308980000000 1.0
C      1  0.4464950000000  0.4513260000000  0.4875940000000 1.0
C      1  0.5156650000000  0.4784720000000  0.5262990000000 1.0
C      1  0.5412520000000  0.5119720000000  0.4683740000000 1.0
C      1  0.4974240000000  0.4318170000000  0.5011080000000 1.0
C      1  0.4676090000000  0.4527060000000  0.4674040000000 1.0
C      1  0.4885540000000  0.5243780000000  0.4247960000000 1.0
C      1  0.4682080000000  0.4775510000000  0.4517350000000 1.0
C      1  0.5074040000000  0.4928020000000  0.5480720000000 1.0
C      1  0.5337330000000  0.5645050000000  0.5393360000000 1.0
C      1  0.4948630000000  0.4480940000000  0.4771130000000 1.0
C      1  0.5235080000000  0.4297980000000  0.5131690000000 1.0
C      1  0.5668690000000  0.4703190000000  0.5146140000000 1.0
C      1  0.5095510000000  0.4754190000000  0.4788160000000 1.0
C      1  0.5191650000000  0.5533280000000  0.4774860000000 1.0
C      1  0.4461020000000  0.5201090000000  0.5074520000000 1.0
C      1  0.4410910000000  0.5048960000000  0.4823810000000 1.0
C      1  0.4696400000000  0.5534820000000  0.4851410000000 1.0
C      1  0.4969890000000  0.5406390000000  0.4907160000000 1.0
C      1  0.4928870000000  0.5419330000000  0.5208520000000 1.0
C      1  0.4766840000000  0.4484350000000  0.5494550000000 1.0
C      1  0.4849360000000  0.4745950000000  0.5591080000000 1.0
C      1  0.5311350000000  0.5360920000000  0.5499890000000 1.0
C      1  0.5662110000000  0.5167410000000  0.5132840000000 1.0
C      1  0.4520880000000  0.5024390000000  0.4552090000000 1.0
C      1  0.5469120000000  0.5206850000000  0.5327350000000 1.0
C      1  0.5070720000000  0.5217110000000  0.5428850000000 1.0
C      1  0.4675520000000  0.4960910000000  0.5536430000000 1.0
END
