TITL C-883738-3659-253 67.0353187918395 125000 -19716.0513389788 0 0 134 (C1) n - 1
REM
REM in /home/nfs/bkarasulu/CARBON/AIRSS/Generating-Clusters/ReaxFF-fromJPCA2015/Units_Real/with-SteepDescent/Only-C1/SD-CG/Try1-3A/FIRE-CG
REM
REM
REM
REM
REM
REM ./C.cell (11c1c37f851c82e70ff6c80c92926a4b)
REM
REM compiler GCC version 9.2.1 20190827 (Red Hat 9.2.1-1)
REM options -cpp -mtune=generic -march=x86-64 -g -O0 -fpre-include=/usr/include/finclude/math-vector-fortran.h
REM seed -2079588437 -1898145084 -1026481230 196013291 1988838770 -531152753 412505563 1626421339 -2084307279 1904163126 -1013957759 1878282986 521774520 -320579382 897196445 -999730174 -1749838732 -2111271357 -2020198141 1392982003 -196922540 733345921 462997788 -1919754233 -981064496 49622473 -2083150744 1877021410 1126998444 1838497243 470818288 1581212451 587057267
REM
CELL 1.54180   50.00000   50.00000   50.00000   90.00000   90.00000   90.00000
LATT -1
SFAC C  
C      1  0.5044870000000  0.6160330000000  0.5104620000000 1.0
C      1  0.5429860000000  0.5119550000000  0.4669120000000 1.0
C      1  0.5042890000000  0.5784540000000  0.5467200000000 1.0
C      1  0.5952340000000  0.5550710000000  0.5165440000000 1.0
C      1  0.4300440000000  0.4760640000000  0.5336030000000 1.0
C      1  0.5375050000000  0.4353360000000  0.4714960000000 1.0
C      1  0.5116090000000  0.6037290000000  0.4835540000000 1.0
C      1  0.4990220000000  0.5941350000000  0.4573780000000 1.0
C      1  0.5208010000000  0.4454800000000  0.4502380000000 1.0
C      1  0.4771340000000  0.4889130000000  0.5440150000000 1.0
C      1  0.5736400000000  0.4446260000000  0.4392820000000 1.0
C      1  0.5637420000000  0.5112260000000  0.5692510000000 1.0
C      1  0.5036050000000  0.5127690000000  0.4675350000000 1.0
C      1  0.4771300000000  0.5318900000000  0.4200740000000 1.0
C      1  0.4672070000000  0.5365750000000  0.4936060000000 1.0
C      1  0.4990060000000  0.4922130000000  0.5975530000000 1.0
C      1  0.4189460000000  0.4897950000000  0.4634570000000 1.0
C      1  0.5708400000000  0.4860940000000  0.5535180000000 1.0
C      1  0.4666740000000  0.5213430000000  0.5829270000000 1.0
C      1  0.5495190000000  0.5432420000000  0.5097400000000 1.0
C      1  0.5858440000000  0.5104610000000  0.4536580000000 1.0
C      1  0.4945040000000  0.4499460000000  0.5151200000000 1.0
C      1  0.4805580000000  0.4648350000000  0.4115770000000 1.0
C      1  0.4790920000000  0.5628340000000  0.4926570000000 1.0
C      1  0.4759830000000  0.5810930000000  0.5390910000000 1.0
C      1  0.4999000000000  0.5122560000000  0.5183730000000 1.0
C      1  0.4952010000000  0.4716440000000  0.4954500000000 1.0
C      1  0.5562840000000  0.4503990000000  0.4883020000000 1.0
C      1  0.4218420000000  0.4376150000000  0.5415200000000 1.0
C      1  0.4647140000000  0.4117670000000  0.5227610000000 1.0
C      1  0.3986580000000  0.4891890000000  0.4862050000000 1.0
C      1  0.4356990000000  0.4252280000000  0.4640870000000 1.0
C      1  0.5498140000000  0.5701110000000  0.4543080000000 1.0
C      1  0.5073170000000  0.5543050000000  0.4915590000000 1.0
C      1  0.4394970000000  0.5389230000000  0.4897740000000 1.0
C      1  0.4707390000000  0.4867900000000  0.4741350000000 1.0
C      1  0.5853770000000  0.5480880000000  0.5414880000000 1.0
C      1  0.5542360000000  0.5759450000000  0.4830460000000 1.0
C      1  0.5467230000000  0.4791010000000  0.5288950000000 1.0
C      1  0.5874270000000  0.5231610000000  0.4794740000000 1.0
C      1  0.5176320000000  0.4895390000000  0.4906940000000 1.0
C      1  0.4990350000000  0.5393310000000  0.5185600000000 1.0
C      1  0.5550120000000  0.4385320000000  0.5441210000000 1.0
C      1  0.4942260000000  0.5505810000000  0.4404110000000 1.0
C      1  0.6059040000000  0.5306350000000  0.5009540000000 1.0
C      1  0.4185620000000  0.4549750000000  0.5172550000000 1.0
C      1  0.4238000000000  0.4513920000000  0.4639690000000 1.0
C      1  0.5619780000000  0.4508290000000  0.5172440000000 1.0
C      1  0.4729250000000  0.5376320000000  0.5330970000000 1.0
C      1  0.5199240000000  0.5241270000000  0.4031380000000 1.0
C      1  0.5393060000000  0.5346410000000  0.5343750000000 1.0
C      1  0.4017520000000  0.5186030000000  0.4864350000000 1.0
C      1  0.5579760000000  0.5183240000000  0.4913090000000 1.0
C      1  0.4996600000000  0.4867850000000  0.4022040000000 1.0
C      1  0.5712540000000  0.5393990000000  0.5641580000000 1.0
C      1  0.5035880000000  0.4946120000000  0.4458390000000 1.0
C      1  0.5172440000000  0.5349850000000  0.5819090000000 1.0
C      1  0.5729530000000  0.4710200000000  0.4335610000000 1.0
C      1  0.5177890000000  0.4277670000000  0.4261550000000 1.0
C      1  0.4765850000000  0.4935900000000  0.5151440000000 1.0
C      1  0.4762540000000  0.4307280000000  0.5028610000000 1.0
C      1  0.5370170000000  0.4115910000000  0.5177760000000 1.0
C      1  0.4470580000000  0.4225760000000  0.5446620000000 1.0
C      1  0.5387410000000  0.5127930000000  0.5834460000000 1.0
C      1  0.5688860000000  0.5651620000000  0.5059160000000 1.0
C      1  0.4109940000000  0.5090490000000  0.4459320000000 1.0
C      1  0.4671010000000  0.5826650000000  0.5101710000000 1.0
C      1  0.4902780000000  0.4450960000000  0.4526990000000 1.0
C      1  0.4425190000000  0.5788870000000  0.4941490000000 1.0
C      1  0.4284990000000  0.5357700000000  0.5657950000000 1.0
C      1  0.5217360000000  0.4819390000000  0.5436870000000 1.0
C      1  0.4312380000000  0.5106910000000  0.4302990000000 1.0
C      1  0.4072060000000  0.5187800000000  0.5345980000000 1.0
C      1  0.4961750000000  0.4661060000000  0.5436100000000 1.0
C      1  0.5189580000000  0.5599470000000  0.5658800000000 1.0
C      1  0.5496980000000  0.5448370000000  0.4360610000000 1.0
C      1  0.4543580000000  0.4909890000000  0.5856200000000 1.0
C      1  0.4137490000000  0.5126230000000  0.5631860000000 1.0
C      1  0.5854180000000  0.4808380000000  0.4575600000000 1.0
C      1  0.4768770000000  0.4257200000000  0.4739930000000 1.0
C      1  0.4949550000000  0.5211120000000  0.5939130000000 1.0
C      1  0.4509110000000  0.5720540000000  0.4651820000000 1.0
C      1  0.5172110000000  0.4427390000000  0.5752280000000 1.0
C      1  0.4532590000000  0.5208630000000  0.4253930000000 1.0
C      1  0.5275550000000  0.4875350000000  0.5922980000000 1.0
C      1  0.4254010000000  0.5581340000000  0.5067430000000 1.0
C      1  0.5516300000000  0.4939550000000  0.4237240000000 1.0
C      1  0.5279440000000  0.4954850000000  0.4038390000000 1.0
C      1  0.4581170000000  0.4731900000000  0.4292700000000 1.0
C      1  0.5791050000000  0.4664050000000  0.4833370000000 1.0
C      1  0.5229620000000  0.5438550000000  0.4249180000000 1.0
C      1  0.4882960000000  0.4497860000000  0.5723100000000 1.0
C      1  0.5451750000000  0.4003380000000  0.4937840000000 1.0
C      1  0.5661530000000  0.5201570000000  0.4336960000000 1.0
C      1  0.4777990000000  0.5747870000000  0.4524950000000 1.0
C      1  0.5302730000000  0.4277690000000  0.5543840000000 1.0
C      1  0.5456720000000  0.5543840000000  0.5558210000000 1.0
C      1  0.4488110000000  0.4997550000000  0.5071310000000 1.0
C      1  0.4444520000000  0.4905340000000  0.4818570000000 1.0
C      1  0.4357860000000  0.5475480000000  0.4615270000000 1.0
C      1  0.4917160000000  0.5155710000000  0.4001780000000 1.0
C      1  0.4104070000000  0.5315980000000  0.4588840000000 1.0
C      1  0.5140750000000  0.4203830000000  0.5328620000000 1.0
C      1  0.5319310000000  0.4935580000000  0.4480020000000 1.0
C      1  0.4592730000000  0.5596000000000  0.5495220000000 1.0
C      1  0.5406940000000  0.4932160000000  0.5041770000000 1.0
C      1  0.4289750000000  0.4873140000000  0.5727710000000 1.0
C      1  0.4774330000000  0.4742860000000  0.5889810000000 1.0
C      1  0.4734160000000  0.5154650000000  0.5531330000000 1.0
C      1  0.5374830000000  0.4617970000000  0.5818000000000 1.0
C      1  0.5598710000000  0.4599240000000  0.5631390000000 1.0
C      1  0.5935830000000  0.4860360000000  0.5307760000000 1.0
C      1  0.4900040000000  0.4394750000000  0.4227620000000 1.0
C      1  0.4809460000000  0.4765850000000  0.4501010000000 1.0
C      1  0.4264250000000  0.4614970000000  0.5587630000000 1.0
C      1  0.5745940000000  0.4183580000000  0.4470830000000 1.0
C      1  0.4760240000000  0.5154500000000  0.4753140000000 1.0
C      1  0.6006620000000  0.5085640000000  0.5166710000000 1.0
C      1  0.4867980000000  0.4096490000000  0.5420170000000 1.0
C      1  0.5267890000000  0.5810700000000  0.4965620000000 1.0
C      1  0.4104820000000  0.4623570000000  0.4895410000000 1.0
C      1  0.5177530000000  0.5933460000000  0.5248460000000 1.0
C      1  0.4511880000000  0.5479590000000  0.5752830000000 1.0
C      1  0.5469020000000  0.4076740000000  0.4620410000000 1.0
C      1  0.5263200000000  0.5865820000000  0.4472940000000 1.0
C      1  0.5880180000000  0.4651750000000  0.5109160000000 1.0
C      1  0.5207430000000  0.5099570000000  0.5360360000000 1.0
C      1  0.4580940000000  0.4047390000000  0.4633780000000 1.0
C      1  0.4050460000000  0.5360860000000  0.5098760000000 1.0
C      1  0.4304510000000  0.5033150000000  0.5270810000000 1.0
C      1  0.5266610000000  0.4030290000000  0.4385510000000 1.0
C      1  0.5093690000000  0.5411640000000  0.4639630000000 1.0
C      1  0.4717370000000  0.4255860000000  0.5611940000000 1.0
C      1  0.4319780000000  0.4705340000000  0.4418780000000 1.0
END
