TITL C-883741-3679-351 57.6114934246449 125000 -20281.3562105002 0 0 138 (C1) n - 1
REM
REM in /home/nfs/bkarasulu/CARBON/AIRSS/Generating-Clusters/ReaxFF-fromJPCA2015/Units_Real/with-SteepDescent/Only-C1/SD-CG/Try1-3A/FIRE-CG
REM
REM
REM
REM
REM
REM ./C.cell (11c1c37f851c82e70ff6c80c92926a4b)
REM
REM compiler GCC version 9.2.1 20190827 (Red Hat 9.2.1-1)
REM options -cpp -mtune=generic -march=x86-64 -g -O0 -fpre-include=/usr/include/finclude/math-vector-fortran.h
REM seed -1178916349 1031566760 -2023628 1673093320 -1522234750 1325477800 326752012 -1986316775 1172072216 -782204255 1285963015 1163409987 -1468243487 -1318857119 -1830294707 344832948 2007411549 1528036977 1005236519 1600851677 -344453245 -160290252 -1284318289 1005686334 -1142582197 872453392 -1031223142 1842191806 -528444449 -2110633007 -1377030122 -753771732 1453663328
REM
CELL 1.54180   50.00000   50.00000   50.00000   90.00000   90.00000   90.00000
LATT -1
SFAC C  
C      1  0.5185150000000  0.5867430000000  0.4775310000000 1.0
C      1  0.4306720000000  0.4713660000000  0.4450540000000 1.0
C      1  0.4427890000000  0.4613870000000  0.4252580000000 1.0
C      1  0.5994050000000  0.5479960000000  0.5352250000000 1.0
C      1  0.4858380000000  0.4241580000000  0.5687300000000 1.0
C      1  0.4798280000000  0.4449380000000  0.4626260000000 1.0
C      1  0.5639110000000  0.4724380000000  0.5005650000000 1.0
C      1  0.5365530000000  0.5529080000000  0.4300850000000 1.0
C      1  0.4799030000000  0.5908150000000  0.4962870000000 1.0
C      1  0.5051490000000  0.5907630000000  0.5085290000000 1.0
C      1  0.5803880000000  0.5396770000000  0.5520370000000 1.0
C      1  0.5052620000000  0.3978280000000  0.5257420000000 1.0
C      1  0.5027480000000  0.5338560000000  0.5159430000000 1.0
C      1  0.4942230000000  0.4644370000000  0.5917710000000 1.0
C      1  0.4825360000000  0.4172050000000  0.4547120000000 1.0
C      1  0.5156210000000  0.5575350000000  0.4741510000000 1.0
C      1  0.4593010000000  0.5099010000000  0.4344050000000 1.0
C      1  0.5592120000000  0.5048820000000  0.4173260000000 1.0
C      1  0.5366310000000  0.5479220000000  0.5683330000000 1.0
C      1  0.4693850000000  0.5570210000000  0.4420480000000 1.0
C      1  0.4764650000000  0.4032460000000  0.4795730000000 1.0
C      1  0.4492860000000  0.4761520000000  0.4670990000000 1.0
C      1  0.4327910000000  0.4941880000000  0.5672450000000 1.0
C      1  0.5097990000000  0.4817350000000  0.4180970000000 1.0
C      1  0.5567470000000  0.5668080000000  0.4488290000000 1.0
C      1  0.4096260000000  0.4690250000000  0.4729590000000 1.0
C      1  0.4164110000000  0.5131330000000  0.4557990000000 1.0
C      1  0.5384430000000  0.5403100000000  0.4769380000000 1.0
C      1  0.5294610000000  0.4640430000000  0.5344630000000 1.0
C      1  0.4766430000000  0.5081500000000  0.5955600000000 1.0
C      1  0.4642750000000  0.5002910000000  0.4611550000000 1.0
C      1  0.4861750000000  0.5548920000000  0.4187120000000 1.0
C      1  0.5450940000000  0.5679590000000  0.5223730000000 1.0
C      1  0.5304530000000  0.4118110000000  0.5207250000000 1.0
C      1  0.4997710000000  0.5879160000000  0.4520690000000 1.0
C      1  0.4908840000000  0.5449700000000  0.4640380000000 1.0
C      1  0.5716060000000  0.4372480000000  0.5323950000000 1.0
C      1  0.5930110000000  0.4797750000000  0.5268360000000 1.0
C      1  0.4388490000000  0.5438560000000  0.5612320000000 1.0
C      1  0.4318220000000  0.5002230000000  0.4340840000000 1.0
C      1  0.4026330000000  0.5632140000000  0.5362310000000 1.0
C      1  0.5311190000000  0.5419560000000  0.5197160000000 1.0
C      1  0.4852270000000  0.4386570000000  0.5234500000000 1.0
C      1  0.5809920000000  0.4330980000000  0.4781960000000 1.0
C      1  0.5123390000000  0.5096020000000  0.4077100000000 1.0
C      1  0.4743450000000  0.5923580000000  0.4670150000000 1.0
C      1  0.4218740000000  0.5408620000000  0.4596690000000 1.0
C      1  0.5375900000000  0.5238040000000  0.4112860000000 1.0
C      1  0.4668040000000  0.4687620000000  0.5493080000000 1.0
C      1  0.5712040000000  0.4439220000000  0.5038190000000 1.0
C      1  0.4823430000000  0.5407030000000  0.4957990000000 1.0
C      1  0.5201120000000  0.5333730000000  0.5871810000000 1.0
C      1  0.4860390000000  0.4405920000000  0.4131290000000 1.0
C      1  0.5000930000000  0.4873780000000  0.4826530000000 1.0
C      1  0.5029120000000  0.4617830000000  0.4684730000000 1.0
C      1  0.5434250000000  0.4850460000000  0.5979450000000 1.0
C      1  0.5262760000000  0.4098900000000  0.4923380000000 1.0
C      1  0.5714270000000  0.4767210000000  0.4544770000000 1.0
C      1  0.4066710000000  0.4965610000000  0.4798780000000 1.0
C      1  0.5479290000000  0.4741510000000  0.4741590000000 1.0
C      1  0.4827690000000  0.4697590000000  0.4170630000000 1.0
C      1  0.4617020000000  0.4402420000000  0.5069540000000 1.0
C      1  0.5724140000000  0.4774080000000  0.5628120000000 1.0
C      1  0.4130340000000  0.5386850000000  0.5482000000000 1.0
C      1  0.5539870000000  0.5269350000000  0.5110890000000 1.0
C      1  0.5830540000000  0.5380490000000  0.5063230000000 1.0
C      1  0.4409260000000  0.5609030000000  0.4477390000000 1.0
C      1  0.4118810000000  0.5750230000000  0.5120890000000 1.0
C      1  0.5940510000000  0.5166310000000  0.4883090000000 1.0
C      1  0.5395710000000  0.5167760000000  0.4897410000000 1.0
C      1  0.5308680000000  0.4597100000000  0.4203800000000 1.0
C      1  0.4985680000000  0.4909320000000  0.6039410000000 1.0
C      1  0.4575780000000  0.4306780000000  0.5672760000000 1.0
C      1  0.5791530000000  0.5523110000000  0.4601440000000 1.0
C      1  0.5488070000000  0.5841210000000  0.4715070000000 1.0
C      1  0.4210030000000  0.4747630000000  0.5216490000000 1.0
C      1  0.5078200000000  0.4420010000000  0.5790840000000 1.0
C      1  0.5381420000000  0.5313030000000  0.4503650000000 1.0
C      1  0.4912300000000  0.5137150000000  0.5316090000000 1.0
C      1  0.5007510000000  0.3964300000000  0.4953220000000 1.0
C      1  0.5272850000000  0.4963240000000  0.4758220000000 1.0
C      1  0.5355890000000  0.4417710000000  0.5701560000000 1.0
C      1  0.4964520000000  0.4817180000000  0.5090210000000 1.0
C      1  0.4864290000000  0.4146010000000  0.5410640000000 1.0
C      1  0.5293030000000  0.4533610000000  0.4710220000000 1.0
C      1  0.4211180000000  0.4718180000000  0.5527020000000 1.0
C      1  0.4080560000000  0.4992230000000  0.5095100000000 1.0
C      1  0.5051200000000  0.4582720000000  0.5204840000000 1.0
C      1  0.4448530000000  0.5202800000000  0.4998620000000 1.0
C      1  0.5923870000000  0.4909750000000  0.5018600000000 1.0
C      1  0.4043310000000  0.5236260000000  0.5239390000000 1.0
C      1  0.4464680000000  0.5185600000000  0.5257000000000 1.0
C      1  0.5587360000000  0.5284790000000  0.5642730000000 1.0
C      1  0.4965130000000  0.5214890000000  0.4462920000000 1.0
C      1  0.5008880000000  0.4234120000000  0.4317890000000 1.0
C      1  0.5874250000000  0.4592390000000  0.5448730000000 1.0
C      1  0.4526080000000  0.4928850000000  0.5883080000000 1.0
C      1  0.4682270000000  0.4695190000000  0.5785020000000 1.0
C      1  0.5275540000000  0.4898940000000  0.5522790000000 1.0
C      1  0.4258980000000  0.4265260000000  0.4917600000000 1.0
C      1  0.5600890000000  0.5791820000000  0.4979150000000 1.0
C      1  0.5827790000000  0.4503040000000  0.4543000000000 1.0
C      1  0.4482020000000  0.5167240000000  0.5533600000000 1.0
C      1  0.5069510000000  0.5816210000000  0.5364040000000 1.0
C      1  0.5539740000000  0.4758350000000  0.4114040000000 1.0
C      1  0.4943650000000  0.5238280000000  0.5773030000000 1.0
C      1  0.4709800000000  0.5141620000000  0.4861860000000 1.0
C      1  0.4597840000000  0.4535210000000  0.4811600000000 1.0
C      1  0.4561570000000  0.5671310000000  0.5593140000000 1.0
C      1  0.5279740000000  0.4328110000000  0.4341820000000 1.0
C      1  0.5546660000000  0.4997900000000  0.5542160000000 1.0
C      1  0.4632780000000  0.5679640000000  0.5079010000000 1.0
C      1  0.3983990000000  0.5487370000000  0.5096220000000 1.0
C      1  0.5043550000000  0.5072190000000  0.5545340000000 1.0
C      1  0.4828620000000  0.5779000000000  0.5529360000000 1.0
C      1  0.5358940000000  0.4273940000000  0.4636930000000 1.0
C      1  0.5534610000000  0.4628580000000  0.5811970000000 1.0
C      1  0.5641400000000  0.4271830000000  0.4551910000000 1.0
C      1  0.5442500000000  0.4329320000000  0.5424460000000 1.0
C      1  0.5241360000000  0.5066250000000  0.6021850000000 1.0
C      1  0.4534660000000  0.4763030000000  0.5265140000000 1.0
C      1  0.5215540000000  0.5072580000000  0.4478340000000 1.0
C      1  0.5766930000000  0.5026730000000  0.4421710000000 1.0
C      1  0.4152990000000  0.4537900000000  0.4968540000000 1.0
C      1  0.5491380000000  0.4750170000000  0.5212060000000 1.0
C      1  0.5811760000000  0.5622710000000  0.4878790000000 1.0
C      1  0.5081840000000  0.5694630000000  0.4307140000000 1.0
C      1  0.4470080000000  0.5821200000000  0.4663210000000 1.0
C      1  0.5325320000000  0.5709720000000  0.5486270000000 1.0
C      1  0.4619510000000  0.5778810000000  0.5350080000000 1.0
C      1  0.4608890000000  0.4527010000000  0.4101230000000 1.0
C      1  0.4535060000000  0.4145620000000  0.4951950000000 1.0
C      1  0.4863080000000  0.5240860000000  0.4183920000000 1.0
C      1  0.4248110000000  0.5432210000000  0.4890620000000 1.0
C      1  0.4362090000000  0.5712460000000  0.4947750000000 1.0
C      1  0.4760400000000  0.4931590000000  0.5202840000000 1.0
C      1  0.4331910000000  0.4460670000000  0.5629000000000 1.0
C      1  0.5859640000000  0.5232030000000  0.4609020000000 1.0
END
