TITL C-883733-4178-54 1097168.63555682 125000 -23575.3898614022 0 0 160 (C1) n - 1
REM
REM in /home/nfs/bkarasulu/CARBON/AIRSS/Generating-Clusters/ReaxFF-fromJPCA2015/Units_Real/with-SteepDescent/Only-C1/SD-CG/Try1-3A/FIRE-CG
REM
REM
REM
REM
REM
REM ./C.cell (11c1c37f851c82e70ff6c80c92926a4b)
REM
REM compiler GCC version 9.2.1 20190827 (Red Hat 9.2.1-1)
REM options -cpp -mtune=generic -march=x86-64 -g -O0 -fpre-include=/usr/include/finclude/math-vector-fortran.h
REM seed 50941016 -424569727 619752636 1663798751 1406357652 1679523157 1540978248 1456048205 -1745839955 834823177 -2093901313 1155674710 -1900408622 -1732763618 -895049932 -1967980971 674799544 -2027464251 -359260074 -888460479 -1722017028 -2138021825 663810 2049983095 -1898991016 521221613 1092256943 2069662450 -799431654 59463077 903103060 -317351813 -1208578379
REM
CELL 1.54180   50.00000   50.00000   50.00000   90.00000   90.00000   90.00000
LATT -1
SFAC C  
C      1  0.5537510000000  0.5801110000000  0.4633340000000 1.0
C      1  0.4466410000000  0.4399360000000  0.4285430000000 1.0
C      1  0.5651530000000  0.5268000000000  0.5162150000000 1.0
C      1  0.4840980000000  0.4731500000000  0.4476910000000 1.0
C      1  0.4616020000000  0.4747170000000  0.5479850000000 1.0
C      1  0.5916410000000  0.5146450000000  0.4734640000000 1.0
C      1  0.5935090000000  0.5190460000000  0.5517680000000 1.0
C      1  0.5306250000000  0.4956320000000  0.5307880000000 1.0
C      1  0.5399040000000  0.5582430000000  0.4807970000000 1.0
C      1  0.4613150000000  0.4157450000000  0.4641870000000 1.0
C      1  0.3903370000000  0.5435100000000  0.4714540000000 1.0
C      1  0.6170810000000  0.4835560000000  0.4707140000000 1.0
C      1  0.5622080000000  0.4837960000000  0.4201770000000 1.0
C      1  0.4694670000000  0.4460540000000  0.4810560000000 1.0
C      1  0.5568690000000  0.5466080000000  0.4277170000000 1.0
C      1  0.4804420000000  0.4348460000000  0.5263470000000 1.0
C      1  0.4804110000000  0.4661420000000  0.5284510000000 1.0
C      1  0.5551320000000  0.5305140000000  0.5813950000000 1.0
C      1  0.5065370000000  0.4756580000000  0.5992470000000 1.0
C      1  0.5443000000000  0.5224230000000  0.5334210000000 1.0
C      1  0.4877360000000  0.4063410000000  0.5617580000000 1.0
C      1  0.4490730000000  0.4191490000000  0.4419980000000 1.0
C      1  0.5003470000000  0.5846140000000  0.4924790000000 1.0
C      1  0.5709830000000  0.5598700000000  0.4507860000000 1.0
C      1  0.4634540000000  0.5350240000000  0.4168080000000 1.0
C      1  0.5490070000000  0.5733860000000  0.5174070000000 1.0
C      1  0.4941800000000  0.4285530000000  0.4292400000000 1.0
C      1  0.4960950000000  0.5672770000000  0.4673030000000 1.0
C      1  0.4942390000000  0.5217330000000  0.5215600000000 1.0
C      1  0.4065390000000  0.5585900000000  0.5380070000000 1.0
C      1  0.5940520000000  0.4840480000000  0.5168820000000 1.0
C      1  0.4934300000000  0.4905720000000  0.4030110000000 1.0
C      1  0.4324790000000  0.4603270000000  0.4408010000000 1.0
C      1  0.4905990000000  0.4087460000000  0.5201090000000 1.0
C      1  0.5431500000000  0.5407400000000  0.5560830000000 1.0
C      1  0.5360480000000  0.5167610000000  0.5996240000000 1.0
C      1  0.5345240000000  0.4878240000000  0.5983360000000 1.0
C      1  0.5678140000000  0.4294900000000  0.4366500000000 1.0
C      1  0.5738650000000  0.4629200000000  0.5129230000000 1.0
C      1  0.4402770000000  0.5250720000000  0.4892260000000 1.0
C      1  0.5016260000000  0.5996570000000  0.5660260000000 1.0
C      1  0.4819230000000  0.4911710000000  0.5960340000000 1.0
C      1  0.5761470000000  0.4529500000000  0.4494940000000 1.0
C      1  0.5080840000000  0.5200340000000  0.3981560000000 1.0
C      1  0.5533620000000  0.4105470000000  0.4502230000000 1.0
C      1  0.4796470000000  0.3958410000000  0.4955880000000 1.0
C      1  0.5284040000000  0.4449600000000  0.5350330000000 1.0
C      1  0.4299970000000  0.4717050000000  0.4886920000000 1.0
C      1  0.4039430000000  0.5741950000000  0.5140060000000 1.0
C      1  0.4752190000000  0.5251980000000  0.4622340000000 1.0
C      1  0.5728820000000  0.5639270000000  0.5283550000000 1.0
C      1  0.5676550000000  0.4977090000000  0.4750840000000 1.0
C      1  0.5274340000000  0.5380430000000  0.4360610000000 1.0
C      1  0.5198810000000  0.5100680000000  0.4777910000000 1.0
C      1  0.5231200000000  0.5624030000000  0.5042640000000 1.0
C      1  0.5215270000000  0.6050950000000  0.4889190000000 1.0
C      1  0.4303450000000  0.4982180000000  0.5759770000000 1.0
C      1  0.5069950000000  0.5625770000000  0.5980150000000 1.0
C      1  0.4361040000000  0.5806980000000  0.4702900000000 1.0
C      1  0.4923990000000  0.5026020000000  0.5675850000000 1.0
C      1  0.4386250000000  0.5205880000000  0.4155960000000 1.0
C      1  0.5414400000000  0.4246750000000  0.4278320000000 1.0
C      1  0.3961380000000  0.4896920000000  0.4758710000000 1.0
C      1  0.4756440000000  0.4385670000000  0.5846220000000 1.0
C      1  0.4535790000000  0.4878580000000  0.5922330000000 1.0
C      1  0.4968270000000  0.4976020000000  0.4341200000000 1.0
C      1  0.4737800000000  0.4487070000000  0.4288140000000 1.0
C      1  0.5513680000000  0.4097730000000  0.4799620000000 1.0
C      1  0.4872040000000  0.4077460000000  0.4490400000000 1.0
C      1  0.4121730000000  0.4351180000000  0.4871610000000 1.0
C      1  0.4692740000000  0.5514930000000  0.5391100000000 1.0
C      1  0.5184630000000  0.4912250000000  0.5560870000000 1.0
C      1  0.6087160000000  0.4758920000000  0.4458940000000 1.0
C      1  0.3920710000000  0.5598570000000  0.4934500000000 1.0
C      1  0.5592440000000  0.4194470000000  0.5580670000000 1.0
C      1  0.4328070000000  0.4210330000000  0.5280640000000 1.0
C      1  0.4779950000000  0.5716160000000  0.5982940000000 1.0
C      1  0.5172160000000  0.4673100000000  0.4053240000000 1.0
C      1  0.4526800000000  0.4010410000000  0.4877670000000 1.0
C      1  0.5232130000000  0.5061650000000  0.4471500000000 1.0
C      1  0.5431920000000  0.5900770000000  0.5362080000000 1.0
C      1  0.4559270000000  0.4623310000000  0.5756640000000 1.0
C      1  0.4801580000000  0.5199190000000  0.4362440000000 1.0
C      1  0.4949150000000  0.5398280000000  0.5451110000000 1.0
C      1  0.5080620000000  0.4006460000000  0.5430600000000 1.0
C      1  0.5026750000000  0.6078940000000  0.5380320000000 1.0
C      1  0.4072430000000  0.4832610000000  0.5290870000000 1.0
C      1  0.4283130000000  0.5783750000000  0.4981470000000 1.0
C      1  0.5251260000000  0.6053740000000  0.5187530000000 1.0
C      1  0.5576230000000  0.4751160000000  0.5843370000000 1.0
C      1  0.5201320000000  0.5801580000000  0.5772650000000 1.0
C      1  0.5374130000000  0.5696530000000  0.5572410000000 1.0
C      1  0.4951010000000  0.4594510000000  0.4730670000000 1.0
C      1  0.5337520000000  0.4171310000000  0.5413020000000 1.0
C      1  0.5848350000000  0.5253440000000  0.5794400000000 1.0
C      1  0.5479860000000  0.5136720000000  0.4823990000000 1.0
C      1  0.5288030000000  0.5950680000000  0.4616000000000 1.0
C      1  0.4365990000000  0.4273870000000  0.5537020000000 1.0
C      1  0.4366080000000  0.5152960000000  0.5155760000000 1.0
C      1  0.5010490000000  0.4926370000000  0.5177850000000 1.0
C      1  0.4602570000000  0.5607730000000  0.4315330000000 1.0
C      1  0.4310310000000  0.5255830000000  0.5660820000000 1.0
C      1  0.5858800000000  0.5391790000000  0.5300370000000 1.0
C      1  0.5100840000000  0.4843630000000  0.4899260000000 1.0
C      1  0.4674210000000  0.4496610000000  0.5091180000000 1.0
C      1  0.4743920000000  0.5948210000000  0.5023680000000 1.0
C      1  0.4906180000000  0.5661100000000  0.4263110000000 1.0
C      1  0.5186540000000  0.4417820000000  0.4196560000000 1.0
C      1  0.4963030000000  0.5307350000000  0.5731830000000 1.0
C      1  0.4231080000000  0.5342670000000  0.4657440000000 1.0
C      1  0.5075020000000  0.5446150000000  0.4134680000000 1.0
C      1  0.4634100000000  0.4177910000000  0.5694310000000 1.0
C      1  0.5876130000000  0.4694800000000  0.4281430000000 1.0
C      1  0.4835210000000  0.5442480000000  0.4792930000000 1.0
C      1  0.4518310000000  0.5247830000000  0.5420810000000 1.0
C      1  0.4631330000000  0.4876340000000  0.4619340000000 1.0
C      1  0.5432100000000  0.4654290000000  0.5181030000000 1.0
C      1  0.4384080000000  0.4801460000000  0.4190160000000 1.0
C      1  0.4468900000000  0.4668860000000  0.4677590000000 1.0
C      1  0.4288480000000  0.4542690000000  0.5635470000000 1.0
C      1  0.5780130000000  0.4695590000000  0.5629500000000 1.0
C      1  0.5209740000000  0.5526890000000  0.4603610000000 1.0
C      1  0.6075650000000  0.4972520000000  0.4932030000000 1.0
C      1  0.4094650000000  0.5093820000000  0.4559770000000 1.0
C      1  0.5402650000000  0.4834050000000  0.3998820000000 1.0
C      1  0.5044820000000  0.5854570000000  0.4439190000000 1.0
C      1  0.4316570000000  0.4866920000000  0.5135660000000 1.0
C      1  0.5119520000000  0.5335830000000  0.5971820000000 1.0
C      1  0.5352530000000  0.5127690000000  0.3947670000000 1.0
C      1  0.4637890000000  0.4872590000000  0.4068340000000 1.0
C      1  0.4639180000000  0.5089120000000  0.4797180000000 1.0
C      1  0.4288130000000  0.4143360000000  0.5010410000000 1.0
C      1  0.5673320000000  0.4223060000000  0.5000550000000 1.0
C      1  0.5567430000000  0.4714530000000  0.4651640000000 1.0
C      1  0.4083380000000  0.4597850000000  0.4728830000000 1.0
C      1  0.4155180000000  0.4794000000000  0.5578980000000 1.0
C      1  0.5024800000000  0.4496790000000  0.5855320000000 1.0
C      1  0.5604610000000  0.5375730000000  0.4896670000000 1.0
C      1  0.5910360000000  0.4903210000000  0.5451990000000 1.0
C      1  0.4690610000000  0.5019330000000  0.5495450000000 1.0
C      1  0.5829500000000  0.5423290000000  0.4708680000000 1.0
C      1  0.5177860000000  0.4435650000000  0.4792090000000 1.0
C      1  0.5771500000000  0.4415110000000  0.5507030000000 1.0
C      1  0.5818260000000  0.4355640000000  0.5197570000000 1.0
C      1  0.4491880000000  0.5950150000000  0.4909430000000 1.0
C      1  0.4407160000000  0.5591480000000  0.4523250000000 1.0
C      1  0.4755910000000  0.5997400000000  0.5305080000000 1.0
C      1  0.4640780000000  0.5786950000000  0.5480210000000 1.0
C      1  0.5199330000000  0.4500380000000  0.5619150000000 1.0
C      1  0.5055360000000  0.5349700000000  0.4975150000000 1.0
C      1  0.5220990000000  0.4159980000000  0.4818540000000 1.0
C      1  0.4750380000000  0.5885510000000  0.5739560000000 1.0
C      1  0.3909770000000  0.4918250000000  0.5048660000000 1.0
C      1  0.4993470000000  0.3992550000000  0.4739020000000 1.0
C      1  0.4198700000000  0.5045180000000  0.4284150000000 1.0
C      1  0.5447920000000  0.4867150000000  0.4422120000000 1.0
C      1  0.5386940000000  0.4723350000000  0.5619950000000 1.0
C      1  0.5335570000000  0.4647510000000  0.4892540000000 1.0
C      1  0.4136370000000  0.5438250000000  0.5543720000000 1.0
C      1  0.5584290000000  0.5315650000000  0.4032890000000 1.0
END
