TITL C-883741-3679-446 9.74085663961 125000 -19352.0422426522 0 0 128 (C1) n - 1
REM
REM in /home/nfs/bkarasulu/CARBON/AIRSS/Generating-Clusters/ReaxFF-fromJPCA2015/Units_Real/with-SteepDescent/Only-C1/SD-CG/Try1-3A/FIRE-CG
REM
REM
REM
REM
REM
REM ./C.cell (11c1c37f851c82e70ff6c80c92926a4b)
REM
REM compiler GCC version 9.2.1 20190827 (Red Hat 9.2.1-1)
REM options -cpp -mtune=generic -march=x86-64 -g -O0 -fpre-include=/usr/include/finclude/math-vector-fortran.h
REM seed 439919738 1412640478 -1124096160 74032111 -865467256 -2115779093 -1547862291 913041082 -1591337005 1082755033 1917766552 -32536220 -751468681 474343043 -1707456792 841164939 2047395001 1004803990 1663979156 -925143402 89953567 247391134 804453545 323326472 65289677 -1641448509 -1699936403 1014200006 -1976297481 1541412577 -1842573151 -39710623 170253189
REM
CELL 1.54180   50.00000   50.00000   50.00000   90.00000   90.00000   90.00000
LATT -1
SFAC C  
C      1  0.4911800000000  0.4257410000000  0.5280000000000 1.0
C      1  0.4135980000000  0.5020410000000  0.5071090000000 1.0
C      1  0.4607730000000  0.4185200000000  0.5302160000000 1.0
C      1  0.5128310000000  0.4089570000000  0.5135310000000 1.0
C      1  0.5638830000000  0.4983960000000  0.4900110000000 1.0
C      1  0.4458250000000  0.4170910000000  0.5050410000000 1.0
C      1  0.5041700000000  0.5767690000000  0.5154750000000 1.0
C      1  0.5644260000000  0.5683840000000  0.5474850000000 1.0
C      1  0.4436550000000  0.5818980000000  0.4753990000000 1.0
C      1  0.5462850000000  0.4411200000000  0.5348720000000 1.0
C      1  0.5511790000000  0.4573930000000  0.4721000000000 1.0
C      1  0.5071350000000  0.5119160000000  0.5358230000000 1.0
C      1  0.4268810000000  0.5225050000000  0.5449700000000 1.0
C      1  0.4616380000000  0.5056150000000  0.4089380000000 1.0
C      1  0.4754570000000  0.4410790000000  0.4766090000000 1.0
C      1  0.4921610000000  0.4854760000000  0.4417990000000 1.0
C      1  0.4141800000000  0.4719860000000  0.4612890000000 1.0
C      1  0.5208030000000  0.5528930000000  0.4267510000000 1.0
C      1  0.5157600000000  0.4826880000000  0.4003770000000 1.0
C      1  0.5547870000000  0.4325610000000  0.4810690000000 1.0
C      1  0.4155740000000  0.4835070000000  0.4084970000000 1.0
C      1  0.5480080000000  0.5167840000000  0.4758200000000 1.0
C      1  0.3978400000000  0.5005850000000  0.4085680000000 1.0
C      1  0.4122760000000  0.4999440000000  0.4755700000000 1.0
C      1  0.5150000000000  0.4789080000000  0.5595400000000 1.0
C      1  0.4664950000000  0.4996690000000  0.5228140000000 1.0
C      1  0.4715800000000  0.4915090000000  0.5928380000000 1.0
C      1  0.5834720000000  0.4940030000000  0.4545180000000 1.0
C      1  0.5264980000000  0.5312690000000  0.5269970000000 1.0
C      1  0.4567550000000  0.5134820000000  0.5466450000000 1.0
C      1  0.4979220000000  0.4550370000000  0.4893350000000 1.0
C      1  0.4808900000000  0.5642060000000  0.4817430000000 1.0
C      1  0.5079190000000  0.4081790000000  0.4606170000000 1.0
C      1  0.5043870000000  0.5588230000000  0.5787440000000 1.0
C      1  0.4399340000000  0.4637330000000  0.5403250000000 1.0
C      1  0.5988780000000  0.5372140000000  0.5213820000000 1.0
C      1  0.5041680000000  0.5677840000000  0.4632770000000 1.0
C      1  0.4260210000000  0.4316130000000  0.4897040000000 1.0
C      1  0.5451080000000  0.5905930000000  0.5409180000000 1.0
C      1  0.3969760000000  0.5135210000000  0.4298360000000 1.0
C      1  0.4758350000000  0.5140740000000  0.4974930000000 1.0
C      1  0.5203580000000  0.4020120000000  0.4858890000000 1.0
C      1  0.4267780000000  0.5375530000000  0.4597230000000 1.0
C      1  0.5411900000000  0.4676610000000  0.5226240000000 1.0
C      1  0.4903810000000  0.5140930000000  0.5944970000000 1.0
C      1  0.5814530000000  0.5610620000000  0.5243560000000 1.0
C      1  0.4154180000000  0.4816380000000  0.5273250000000 1.0
C      1  0.5399040000000  0.4156900000000  0.5211820000000 1.0
C      1  0.4202500000000  0.5286430000000  0.5178910000000 1.0
C      1  0.4870920000000  0.4736950000000  0.5595320000000 1.0
C      1  0.4939040000000  0.4586170000000  0.5185240000000 1.0
C      1  0.4372320000000  0.4667080000000  0.4156740000000 1.0
C      1  0.5436620000000  0.4834850000000  0.4095270000000 1.0
C      1  0.4939720000000  0.5608100000000  0.4368590000000 1.0
C      1  0.5513010000000  0.5105820000000  0.4173960000000 1.0
C      1  0.4472070000000  0.4359280000000  0.5493290000000 1.0
C      1  0.5130930000000  0.5497820000000  0.5076990000000 1.0
C      1  0.5293480000000  0.5439340000000  0.5809630000000 1.0
C      1  0.5906150000000  0.5019540000000  0.4818920000000 1.0
C      1  0.4724540000000  0.5036530000000  0.4478690000000 1.0
C      1  0.5151310000000  0.5881140000000  0.5404920000000 1.0
C      1  0.4817210000000  0.5952920000000  0.5087540000000 1.0
C      1  0.4765790000000  0.4257330000000  0.4380010000000 1.0
C      1  0.5134510000000  0.4888370000000  0.4606340000000 1.0
C      1  0.4622490000000  0.5046560000000  0.4731740000000 1.0
C      1  0.4704140000000  0.5920110000000  0.4814430000000 1.0
C      1  0.5430980000000  0.4386880000000  0.5637280000000 1.0
C      1  0.5912020000000  0.4931760000000  0.5511580000000 1.0
C      1  0.4631340000000  0.4777670000000  0.4056380000000 1.0
C      1  0.5376250000000  0.4406730000000  0.4299660000000 1.0
C      1  0.4848980000000  0.5369310000000  0.5768440000000 1.0
C      1  0.5261320000000  0.4611480000000  0.6074940000000 1.0
C      1  0.5179590000000  0.4225360000000  0.4338540000000 1.0
C      1  0.5682460000000  0.5038420000000  0.5349120000000 1.0
C      1  0.4175970000000  0.4436800000000  0.4644580000000 1.0
C      1  0.4913870000000  0.4693440000000  0.4164350000000 1.0
C      1  0.5211450000000  0.4646200000000  0.4745360000000 1.0
C      1  0.5755300000000  0.5691040000000  0.4966010000000 1.0
C      1  0.5625960000000  0.4554150000000  0.5797820000000 1.0
C      1  0.4795620000000  0.4595920000000  0.5848140000000 1.0
C      1  0.4796650000000  0.4142470000000  0.4636710000000 1.0
C      1  0.5517590000000  0.5859890000000  0.4875400000000 1.0
C      1  0.5418970000000  0.5601400000000  0.4452190000000 1.0
C      1  0.4717440000000  0.4738120000000  0.5328180000000 1.0
C      1  0.5982350000000  0.5281530000000  0.4919820000000 1.0
C      1  0.5316700000000  0.4930440000000  0.5798760000000 1.0
C      1  0.4849310000000  0.5259040000000  0.5489950000000 1.0
C      1  0.5694120000000  0.5153600000000  0.4399530000000 1.0
C      1  0.5298210000000  0.5303600000000  0.4091240000000 1.0
C      1  0.5461840000000  0.5943720000000  0.5133120000000 1.0
C      1  0.4949390000000  0.4379640000000  0.4209270000000 1.0
C      1  0.4519250000000  0.4410170000000  0.4926710000000 1.0
C      1  0.5791520000000  0.4743100000000  0.5683700000000 1.0
C      1  0.5531490000000  0.5464210000000  0.5635330000000 1.0
C      1  0.4501230000000  0.4971060000000  0.5746490000000 1.0
C      1  0.5839740000000  0.5485130000000  0.4783080000000 1.0
C      1  0.4016020000000  0.5237790000000  0.4552580000000 1.0
C      1  0.4677170000000  0.5840300000000  0.5512040000000 1.0
C      1  0.4375600000000  0.5785140000000  0.5040650000000 1.0
C      1  0.5052370000000  0.4459140000000  0.5971300000000 1.0
C      1  0.4308820000000  0.4774590000000  0.5658770000000 1.0
C      1  0.5202490000000  0.5128020000000  0.4744770000000 1.0
C      1  0.4659870000000  0.5442100000000  0.4972990000000 1.0
C      1  0.5497390000000  0.4085770000000  0.4931730000000 1.0
C      1  0.5199990000000  0.5173820000000  0.5911250000000 1.0
C      1  0.4956680000000  0.5815290000000  0.5617660000000 1.0
C      1  0.4683430000000  0.4349370000000  0.5690310000000 1.0
C      1  0.4929950000000  0.4236540000000  0.5582320000000 1.0
C      1  0.5623310000000  0.5387120000000  0.4580090000000 1.0
C      1  0.4637750000000  0.5245410000000  0.4274990000000 1.0
C      1  0.6053620000000  0.5196380000000  0.5444780000000 1.0
C      1  0.5166970000000  0.4310060000000  0.5741280000000 1.0
C      1  0.5697010000000  0.4687740000000  0.4507180000000 1.0
C      1  0.5325480000000  0.5771890000000  0.4657390000000 1.0
C      1  0.5596320000000  0.4868950000000  0.5141820000000 1.0
C      1  0.4394130000000  0.5493810000000  0.5060310000000 1.0
C      1  0.4436820000000  0.5611010000000  0.4537430000000 1.0
C      1  0.5565190000000  0.4607220000000  0.4256200000000 1.0
C      1  0.5484820000000  0.4755260000000  0.5977860000000 1.0
C      1  0.5037030000000  0.5278060000000  0.4904610000000 1.0
C      1  0.5144980000000  0.5102180000000  0.3978820000000 1.0
C      1  0.4653740000000  0.5538220000000  0.4354310000000 1.0
C      1  0.5161040000000  0.4791470000000  0.5309220000000 1.0
C      1  0.5531240000000  0.5280170000000  0.5405260000000 1.0
C      1  0.4368050000000  0.5143700000000  0.4722820000000 1.0
C      1  0.4131960000000  0.4974270000000  0.5523900000000 1.0
C      1  0.4338020000000  0.4593200000000  0.4444830000000 1.0
C      1  0.4572870000000  0.5907660000000  0.5245940000000 1.0
END
