TITL C-884139-6216-447 31.1805205023665 125000 -24630.0267769758 0 0 164 (C1) n - 1
REM
REM in /home/nfs/bkarasulu/CARBON/AIRSS/Generating-Clusters/ReaxFF-fromJPCA2015/Units_Real/with-SteepDescent/Only-C1/SD-CG/Try1-3A/FIRE-CG
REM
REM
REM
REM
REM
REM ./C.cell (11c1c37f851c82e70ff6c80c92926a4b)
REM
REM compiler GCC version 9.2.1 20190827 (Red Hat 9.2.1-1)
REM options -cpp -mtune=generic -march=x86-64 -g -O0 -fpre-include=/usr/include/finclude/math-vector-fortran.h
REM seed 1195498452 187930017 -210962981 -1628456393 1227100207 1734845541 -401874882 -619146000 -1718560695 754190323 -1964552585 -1635141185 1311914857 -1127754107 1208657268 -1878860043 22974920 2146512088 2122125665 2003293759 1301241740 358684025 -1884090959 -15836210 852289899 -1223498395 1740793618 -829628202 865121178 2027712433 -1457677900 925365921 -1655980169
REM
CELL 1.54180   50.00000   50.00000   50.00000   90.00000   90.00000   90.00000
LATT -1
SFAC C  
C      1  0.5038400000000  0.4476290000000  0.4780380000000 1.0
C      1  0.5154770000000  0.5601140000000  0.5366880000000 1.0
C      1  0.5303190000000  0.5100330000000  0.5358130000000 1.0
C      1  0.4663320000000  0.4575410000000  0.5827180000000 1.0
C      1  0.4411320000000  0.4734850000000  0.5806020000000 1.0
C      1  0.4171860000000  0.4345920000000  0.5211090000000 1.0
C      1  0.5434610000000  0.5389920000000  0.4892970000000 1.0
C      1  0.5882090000000  0.4688110000000  0.5605330000000 1.0
C      1  0.5102350000000  0.5088550000000  0.6129630000000 1.0
C      1  0.4697590000000  0.4847660000000  0.4825500000000 1.0
C      1  0.4777620000000  0.4409540000000  0.4183150000000 1.0
C      1  0.4108290000000  0.4467170000000  0.4545010000000 1.0
C      1  0.5122920000000  0.4714540000000  0.5163240000000 1.0
C      1  0.5456220000000  0.4996650000000  0.4027740000000 1.0
C      1  0.5479810000000  0.4653380000000  0.5472320000000 1.0
C      1  0.5183130000000  0.5513670000000  0.4817310000000 1.0
C      1  0.5395380000000  0.5124630000000  0.6097700000000 1.0
C      1  0.4868120000000  0.5211970000000  0.5125370000000 1.0
C      1  0.5789250000000  0.5009130000000  0.4953350000000 1.0
C      1  0.4793950000000  0.4741970000000  0.6038680000000 1.0
C      1  0.4145220000000  0.5588090000000  0.5288220000000 1.0
C      1  0.4711450000000  0.5358520000000  0.4747440000000 1.0
C      1  0.6199410000000  0.4391770000000  0.4706960000000 1.0
C      1  0.5074730000000  0.4802320000000  0.6076970000000 1.0
C      1  0.5072690000000  0.5436840000000  0.5084790000000 1.0
C      1  0.5149760000000  0.4250170000000  0.4927480000000 1.0
C      1  0.5382450000000  0.4219780000000  0.4324180000000 1.0
C      1  0.4338940000000  0.5237050000000  0.5845290000000 1.0
C      1  0.5705470000000  0.4952870000000  0.5727020000000 1.0
C      1  0.5976830000000  0.4617340000000  0.4424690000000 1.0
C      1  0.4792520000000  0.4739380000000  0.4578950000000 1.0
C      1  0.5411480000000  0.4667140000000  0.5192120000000 1.0
C      1  0.4767240000000  0.3978070000000  0.4559600000000 1.0
C      1  0.5102690000000  0.4360120000000  0.5702720000000 1.0
C      1  0.4220390000000  0.5314380000000  0.4055360000000 1.0
C      1  0.5607510000000  0.5140710000000  0.4528270000000 1.0
C      1  0.4902030000000  0.5300170000000  0.5676090000000 1.0
C      1  0.4556460000000  0.5705090000000  0.4306500000000 1.0
C      1  0.6170560000000  0.4696260000000  0.4635090000000 1.0
C      1  0.4486330000000  0.5505870000000  0.4836090000000 1.0
C      1  0.5221160000000  0.4272240000000  0.5183730000000 1.0
C      1  0.5261750000000  0.6085080000000  0.5246210000000 1.0
C      1  0.4969300000000  0.4028800000000  0.5456720000000 1.0
C      1  0.5416320000000  0.6005930000000  0.4994850000000 1.0
C      1  0.5357350000000  0.4961050000000  0.4528530000000 1.0
C      1  0.5251760000000  0.4054930000000  0.5382530000000 1.0
C      1  0.4225010000000  0.5027460000000  0.4014350000000 1.0
C      1  0.4502340000000  0.4558120000000  0.4170320000000 1.0
C      1  0.5029850000000  0.3920120000000  0.4663440000000 1.0
C      1  0.5567790000000  0.4761900000000  0.4146660000000 1.0
C      1  0.5968950000000  0.5215820000000  0.5078010000000 1.0
C      1  0.5522440000000  0.4898920000000  0.5974610000000 1.0
C      1  0.4452690000000  0.4849940000000  0.4118330000000 1.0
C      1  0.4324730000000  0.4910160000000  0.5003800000000 1.0
C      1  0.4649750000000  0.5253880000000  0.5518430000000 1.0
C      1  0.4969070000000  0.6008790000000  0.5314360000000 1.0
C      1  0.4389750000000  0.5756160000000  0.5324950000000 1.0
C      1  0.5008940000000  0.5204070000000  0.3942580000000 1.0
C      1  0.5404600000000  0.4637270000000  0.4503410000000 1.0
C      1  0.4504760000000  0.5279540000000  0.4354200000000 1.0
C      1  0.4523060000000  0.4708370000000  0.5003920000000 1.0
C      1  0.5574510000000  0.5508440000000  0.4275930000000 1.0
C      1  0.5778100000000  0.5243740000000  0.5759070000000 1.0
C      1  0.4307040000000  0.4514830000000  0.4354820000000 1.0
C      1  0.5833260000000  0.5424420000000  0.5540050000000 1.0
C      1  0.4882710000000  0.4929700000000  0.4359870000000 1.0
C      1  0.4822990000000  0.4639870000000  0.5604590000000 1.0
C      1  0.4409690000000  0.4990830000000  0.5963270000000 1.0
C      1  0.5851810000000  0.5096910000000  0.4402870000000 1.0
C      1  0.5283530000000  0.5216280000000  0.5074240000000 1.0
C      1  0.4022760000000  0.4362370000000  0.4951140000000 1.0
C      1  0.3704360000000  0.5090470000000  0.5296350000000 1.0
C      1  0.5444620000000  0.6039250000000  0.5462370000000 1.0
C      1  0.4947330000000  0.5782540000000  0.5491650000000 1.0
C      1  0.5545870000000  0.5312800000000  0.5931780000000 1.0
C      1  0.4819070000000  0.4455880000000  0.4599560000000 1.0
C      1  0.6086630000000  0.4903040000000  0.4823260000000 1.0
C      1  0.4551060000000  0.4503080000000  0.5212890000000 1.0
C      1  0.4282720000000  0.5470370000000  0.5711120000000 1.0
C      1  0.4621850000000  0.5275810000000  0.5238940000000 1.0
C      1  0.5324620000000  0.4690630000000  0.5960460000000 1.0
C      1  0.5770270000000  0.5752650000000  0.4688840000000 1.0
C      1  0.5052730000000  0.3993780000000  0.4947320000000 1.0
C      1  0.4522720000000  0.5880220000000  0.5097490000000 1.0
C      1  0.5884060000000  0.5441550000000  0.5248120000000 1.0
C      1  0.5605470000000  0.5593180000000  0.5613690000000 1.0
C      1  0.5753590000000  0.4172580000000  0.5031930000000 1.0
C      1  0.4561020000000  0.3935620000000  0.4775150000000 1.0
C      1  0.5194090000000  0.5321960000000  0.4291800000000 1.0
C      1  0.4005530000000  0.4601490000000  0.4793230000000 1.0
C      1  0.5569320000000  0.5742190000000  0.4466930000000 1.0
C      1  0.4039540000000  0.4879290000000  0.4908000000000 1.0
C      1  0.4755130000000  0.5363890000000  0.4463960000000 1.0
C      1  0.4119170000000  0.5709390000000  0.4764690000000 1.0
C      1  0.5308510000000  0.5857440000000  0.4542990000000 1.0
C      1  0.4831900000000  0.4892640000000  0.5533250000000 1.0
C      1  0.5478440000000  0.5728310000000  0.5381850000000 1.0
C      1  0.4942170000000  0.6051250000000  0.4841000000000 1.0
C      1  0.4746780000000  0.5691570000000  0.5696400000000 1.0
C      1  0.5328200000000  0.4516400000000  0.5723200000000 1.0
C      1  0.5175780000000  0.4974850000000  0.3918680000000 1.0
C      1  0.5626610000000  0.3896710000000  0.5096010000000 1.0
C      1  0.5343580000000  0.4513850000000  0.4242450000000 1.0
C      1  0.4584560000000  0.5855050000000  0.4544290000000 1.0
C      1  0.5527350000000  0.4783950000000  0.4954400000000 1.0
C      1  0.4564850000000  0.4980580000000  0.5515610000000 1.0
C      1  0.4058780000000  0.5559660000000  0.5010350000000 1.0
C      1  0.4595450000000  0.3997360000000  0.5079480000000 1.0
C      1  0.4850960000000  0.4250970000000  0.5642370000000 1.0
C      1  0.5087680000000  0.4740650000000  0.4885630000000 1.0
C      1  0.4804510000000  0.4458000000000  0.5411240000000 1.0
C      1  0.4419470000000  0.5797380000000  0.4808940000000 1.0
C      1  0.4094960000000  0.4197260000000  0.4708890000000 1.0
C      1  0.4831620000000  0.5595580000000  0.4298080000000 1.0
C      1  0.4996060000000  0.5439400000000  0.4091770000000 1.0
C      1  0.4780980000000  0.6008960000000  0.5091490000000 1.0
C      1  0.5156370000000  0.5417140000000  0.5595240000000 1.0
C      1  0.4329910000000  0.4063450000000  0.4739960000000 1.0
C      1  0.4844250000000  0.5482770000000  0.5893790000000 1.0
C      1  0.5026250000000  0.4464990000000  0.5240810000000 1.0
C      1  0.4610670000000  0.5037060000000  0.4263610000000 1.0
C      1  0.5082750000000  0.5674280000000  0.4579640000000 1.0
C      1  0.4750230000000  0.4236250000000  0.4419340000000 1.0
C      1  0.4091200000000  0.5576040000000  0.4511400000000 1.0
C      1  0.4121060000000  0.5360110000000  0.5482370000000 1.0
C      1  0.4295840000000  0.4819210000000  0.5536580000000 1.0
C      1  0.5843240000000  0.4465090000000  0.5468580000000 1.0
C      1  0.4855890000000  0.5252930000000  0.6084810000000 1.0
C      1  0.5452960000000  0.5281600000000  0.4144600000000 1.0
C      1  0.5243420000000  0.4026130000000  0.4482950000000 1.0
C      1  0.5115670000000  0.5094890000000  0.4460110000000 1.0
C      1  0.5027810000000  0.4994480000000  0.5329330000000 1.0
C      1  0.5654440000000  0.5834100000000  0.4959980000000 1.0
C      1  0.4429080000000  0.4208260000000  0.5190110000000 1.0
C      1  0.5906450000000  0.5521580000000  0.4627080000000 1.0
C      1  0.4864260000000  0.5895320000000  0.4614650000000 1.0
C      1  0.4986080000000  0.4811050000000  0.4072950000000 1.0
C      1  0.4313340000000  0.5512850000000  0.4278090000000 1.0
C      1  0.6030170000000  0.5282900000000  0.4566480000000 1.0
C      1  0.5720410000000  0.4331280000000  0.4780030000000 1.0
C      1  0.5232240000000  0.6029070000000  0.4775990000000 1.0
C      1  0.5817190000000  0.4821100000000  0.4289860000000 1.0
C      1  0.4269570000000  0.5366070000000  0.4937500000000 1.0
C      1  0.5031420000000  0.4536710000000  0.4130160000000 1.0
C      1  0.5384690000000  0.5474840000000  0.5756920000000 1.0
C      1  0.5549890000000  0.4006390000000  0.5365700000000 1.0
C      1  0.5271190000000  0.4954860000000  0.4824290000000 1.0
C      1  0.5649260000000  0.5229550000000  0.4794580000000 1.0
C      1  0.5933790000000  0.4354140000000  0.4571560000000 1.0
C      1  0.5505670000000  0.4945360000000  0.5489900000000 1.0
C      1  0.4780210000000  0.5116090000000  0.4876730000000 1.0
C      1  0.5541330000000  0.4559110000000  0.4742850000000 1.0
C      1  0.3987200000000  0.5348830000000  0.4609720000000 1.0
C      1  0.4080700000000  0.5070740000000  0.5448860000000 1.0
C      1  0.6148320000000  0.5184310000000  0.4833760000000 1.0
C      1  0.4478620000000  0.5678120000000  0.5596170000000 1.0
C      1  0.4868030000000  0.3966020000000  0.5184290000000 1.0
C      1  0.4293280000000  0.4575240000000  0.5347410000000 1.0
C      1  0.3920110000000  0.4983310000000  0.5216240000000 1.0
C      1  0.4393800000000  0.5166360000000  0.5103060000000 1.0
C      1  0.4682640000000  0.5008850000000  0.6086450000000 1.0
C      1  0.5705770000000  0.5669120000000  0.5182860000000 1.0
C      1  0.5748910000000  0.4237860000000  0.5320280000000 1.0
C      1  0.3938280000000  0.5096020000000  0.4693860000000 1.0
END
