TITL C-884138-6203-415 -9.50239812469009 125000 -7776.9765878148 0 0 52 (C1) n - 1
REM
REM in /home/nfs/bkarasulu/CARBON/AIRSS/Generating-Clusters/ReaxFF-fromJPCA2015/Units_Real/with-SteepDescent/Only-C1/SD-CG/Try1-3A/FIRE-CG
REM
REM
REM
REM
REM
REM ./C.cell (11c1c37f851c82e70ff6c80c92926a4b)
REM
REM compiler GCC version 9.2.1 20190827 (Red Hat 9.2.1-1)
REM options -cpp -mtune=generic -march=x86-64 -g -O0 -fpre-include=/usr/include/finclude/math-vector-fortran.h
REM seed -193410011 1135706014 633999569 -2088526854 137913303 2108158068 1157795642 1184136828 1713908854 1060074860 1744465522 -557413899 -2099830261 975452891 -1428674537 -877642329 1564660066 369826462 -1641949934 -1269655033 1910864324 -1351478505 773746541 42743308 -1303441831 1847228768 -1048663618 1037460334 -1123770982 988601480 -2012555342 740328396 -2084141451
REM
CELL 1.54180   50.00000   50.00000   50.00000   90.00000   90.00000   90.00000
LATT -1
SFAC C  
C      1  0.4918260000000  0.5500380000000  0.5594070000000 1.0
C      1  0.5080160000000  0.4525960000000  0.5269410000000 1.0
C      1  0.5538170000000  0.5013020000000  0.4590590000000 1.0
C      1  0.4980300000000  0.4766150000000  0.5681480000000 1.0
C      1  0.4771700000000  0.4490570000000  0.4574200000000 1.0
C      1  0.4319040000000  0.4991090000000  0.4405730000000 1.0
C      1  0.5375610000000  0.5420170000000  0.5445570000000 1.0
C      1  0.4229670000000  0.4994940000000  0.4688290000000 1.0
C      1  0.4480040000000  0.5263890000000  0.5046450000000 1.0
C      1  0.4589190000000  0.4978990000000  0.5416990000000 1.0
C      1  0.4598930000000  0.4780320000000  0.4983670000000 1.0
C      1  0.5178340000000  0.4382560000000  0.4807120000000 1.0
C      1  0.4984910000000  0.4775300000000  0.4266410000000 1.0
C      1  0.5054750000000  0.4417190000000  0.4546870000000 1.0
C      1  0.5000820000000  0.5020510000000  0.5080580000000 1.0
C      1  0.5304130000000  0.5719720000000  0.4917960000000 1.0
C      1  0.4993590000000  0.5008260000000  0.5762430000000 1.0
C      1  0.5138320000000  0.5577940000000  0.5394520000000 1.0
C      1  0.5202580000000  0.4636390000000  0.4408880000000 1.0
C      1  0.4714450000000  0.5379590000000  0.4920910000000 1.0
C      1  0.5418550000000  0.4730730000000  0.4575970000000 1.0
C      1  0.5160150000000  0.5417950000000  0.4527080000000 1.0
C      1  0.4972660000000  0.4444440000000  0.5006600000000 1.0
C      1  0.5085650000000  0.5696400000000  0.5137530000000 1.0
C      1  0.4483730000000  0.5252850000000  0.5347420000000 1.0
C      1  0.5315850000000  0.4695800000000  0.5240720000000 1.0
C      1  0.5367290000000  0.5231200000000  0.4547380000000 1.0
C      1  0.4860530000000  0.5039900000000  0.4320090000000 1.0
C      1  0.4739530000000  0.4555270000000  0.4859400000000 1.0
C      1  0.5716490000000  0.5077760000000  0.4829640000000 1.0
C      1  0.4641020000000  0.4499810000000  0.5576550000000 1.0
C      1  0.5362500000000  0.5136860000000  0.5425560000000 1.0
C      1  0.5095770000000  0.5641580000000  0.4719540000000 1.0
C      1  0.5500590000000  0.5525420000000  0.4948660000000 1.0
C      1  0.5539740000000  0.4617680000000  0.5061510000000 1.0
C      1  0.5267400000000  0.4985930000000  0.5210610000000 1.0
C      1  0.4721870000000  0.4647130000000  0.4328300000000 1.0
C      1  0.4768150000000  0.4885980000000  0.5200840000000 1.0
C      1  0.5571970000000  0.5254010000000  0.5300880000000 1.0
C      1  0.4937240000000  0.4537500000000  0.5529760000000 1.0
C      1  0.4453500000000  0.4744930000000  0.5532680000000 1.0
C      1  0.5659390000000  0.5318410000000  0.5016220000000 1.0
C      1  0.5676770000000  0.4838930000000  0.4956100000000 1.0
C      1  0.4408480000000  0.4488890000000  0.5424550000000 1.0
C      1  0.4589280000000  0.4912220000000  0.4304850000000 1.0
C      1  0.4955020000000  0.5197640000000  0.4551420000000 1.0
C      1  0.4898790000000  0.5162450000000  0.4843210000000 1.0
C      1  0.4890460000000  0.5623240000000  0.4927460000000 1.0
C      1  0.4964170000000  0.5258500000000  0.5742590000000 1.0
C      1  0.4676810000000  0.5397850000000  0.5488540000000 1.0
C      1  0.5432610000000  0.4536780000000  0.4792690000000 1.0
C      1  0.4415100000000  0.5002980000000  0.4923510000000 1.0
END
