TITL C-884138-6203-222 -13.2924622106637 125000 -16701.8514424459 0 0 111 (C1) n - 1
REM
REM in /home/nfs/bkarasulu/CARBON/AIRSS/Generating-Clusters/ReaxFF-fromJPCA2015/Units_Real/with-SteepDescent/Only-C1/SD-CG/Try1-3A/FIRE-CG
REM
REM
REM
REM
REM
REM ./C.cell (11c1c37f851c82e70ff6c80c92926a4b)
REM
REM compiler GCC version 9.2.1 20190827 (Red Hat 9.2.1-1)
REM options -cpp -mtune=generic -march=x86-64 -g -O0 -fpre-include=/usr/include/finclude/math-vector-fortran.h
REM seed 1134455845 2033365858 991248523 -1179287566 -1259201652 742605710 808618933 509336392 -1553697950 -1645129112 1502704481 -315041723 1013399719 -2054168362 2142611416 285980797 -109464526 -1805548392 -946988900 1947535089 -2004629182 -1985603020 -1512798650 -626334306 1522989164 1616310317 -158065742 1961546174 -1162910488 1322819052 -745509663 1709173089 1123770251
REM
CELL 1.54180   50.00000   50.00000   50.00000   90.00000   90.00000   90.00000
LATT -1
SFAC C  
C      1  0.5538120000000  0.5519630000000  0.5233000000000 1.0
C      1  0.5882380000000  0.5117360000000  0.5578210000000 1.0
C      1  0.5336520000000  0.4671760000000  0.5861720000000 1.0
C      1  0.4339090000000  0.4743310000000  0.5518980000000 1.0
C      1  0.4926320000000  0.4143780000000  0.5279850000000 1.0
C      1  0.5259800000000  0.5341710000000  0.5698940000000 1.0
C      1  0.5888320000000  0.4997010000000  0.4876660000000 1.0
C      1  0.5119310000000  0.5434460000000  0.4224730000000 1.0
C      1  0.4937370000000  0.4990650000000  0.5400550000000 1.0
C      1  0.5131020000000  0.5867930000000  0.5180390000000 1.0
C      1  0.5806400000000  0.5278940000000  0.4824690000000 1.0
C      1  0.4841240000000  0.5866380000000  0.5235820000000 1.0
C      1  0.4829430000000  0.4562370000000  0.5096300000000 1.0
C      1  0.5474450000000  0.4531690000000  0.5647550000000 1.0
C      1  0.4950870000000  0.4176100000000  0.4554240000000 1.0
C      1  0.5723420000000  0.4607910000000  0.5220360000000 1.0
C      1  0.5480210000000  0.4937850000000  0.4933340000000 1.0
C      1  0.5375170000000  0.5284860000000  0.5285360000000 1.0
C      1  0.5102550000000  0.4651580000000  0.5020940000000 1.0
C      1  0.5680080000000  0.4668470000000  0.5499810000000 1.0
C      1  0.5143920000000  0.4948060000000  0.4103060000000 1.0
C      1  0.5640970000000  0.5579360000000  0.4522480000000 1.0
C      1  0.4549840000000  0.4578460000000  0.4386700000000 1.0
C      1  0.5393600000000  0.5849380000000  0.4737300000000 1.0
C      1  0.4809420000000  0.4907690000000  0.4649350000000 1.0
C      1  0.4870880000000  0.5850110000000  0.4782980000000 1.0
C      1  0.4197570000000  0.4590620000000  0.5290340000000 1.0
C      1  0.4318680000000  0.4790870000000  0.4500490000000 1.0
C      1  0.4661690000000  0.4287480000000  0.4509040000000 1.0
C      1  0.4577230000000  0.4245290000000  0.4747130000000 1.0
C      1  0.5007640000000  0.5368660000000  0.4667430000000 1.0
C      1  0.5186210000000  0.4628780000000  0.5298600000000 1.0
C      1  0.4791530000000  0.5425900000000  0.5316470000000 1.0
C      1  0.4642230000000  0.4985920000000  0.5940050000000 1.0
C      1  0.5447770000000  0.4796130000000  0.4672680000000 1.0
C      1  0.5577950000000  0.4887040000000  0.4232370000000 1.0
C      1  0.5736850000000  0.5304600000000  0.4545780000000 1.0
C      1  0.4728040000000  0.4306110000000  0.5168540000000 1.0
C      1  0.5709080000000  0.5504800000000  0.4989770000000 1.0
C      1  0.5638710000000  0.4385550000000  0.4770060000000 1.0
C      1  0.4885920000000  0.5425870000000  0.4916220000000 1.0
C      1  0.5063730000000  0.4626490000000  0.4527140000000 1.0
C      1  0.4800910000000  0.4425940000000  0.5674760000000 1.0
C      1  0.4742640000000  0.5682560000000  0.5444540000000 1.0
C      1  0.5678090000000  0.4967930000000  0.5568920000000 1.0
C      1  0.5345600000000  0.5736200000000  0.5340290000000 1.0
C      1  0.5653380000000  0.5708910000000  0.4789710000000 1.0
C      1  0.5216370000000  0.4265490000000  0.4427490000000 1.0
C      1  0.4990760000000  0.4274180000000  0.5522600000000 1.0
C      1  0.4845690000000  0.4923830000000  0.4120160000000 1.0
C      1  0.4271230000000  0.5077170000000  0.4449790000000 1.0
C      1  0.5389740000000  0.4239040000000  0.5190850000000 1.0
C      1  0.5609810000000  0.4377560000000  0.5069020000000 1.0
C      1  0.4859300000000  0.4556570000000  0.5930920000000 1.0
C      1  0.4253070000000  0.5350930000000  0.4598270000000 1.0
C      1  0.5373930000000  0.4309030000000  0.4671690000000 1.0
C      1  0.4631880000000  0.4780130000000  0.5103180000000 1.0
C      1  0.4428070000000  0.5647350000000  0.5049730000000 1.0
C      1  0.5191810000000  0.4964180000000  0.4988970000000 1.0
C      1  0.5073400000000  0.4759880000000  0.5969580000000 1.0
C      1  0.5373180000000  0.5097530000000  0.5517600000000 1.0
C      1  0.5232830000000  0.4579070000000  0.4748560000000 1.0
C      1  0.4404130000000  0.5226000000000  0.4235120000000 1.0
C      1  0.4380280000000  0.4828010000000  0.4956500000000 1.0
C      1  0.5268070000000  0.5178230000000  0.4243020000000 1.0
C      1  0.5392930000000  0.5747540000000  0.4462900000000 1.0
C      1  0.4520710000000  0.5450160000000  0.5784960000000 1.0
C      1  0.4476290000000  0.5635780000000  0.5552680000000 1.0
C      1  0.5342470000000  0.4735780000000  0.4146560000000 1.0
C      1  0.5038320000000  0.4118690000000  0.4817520000000 1.0
C      1  0.4331060000000  0.5541300000000  0.5316530000000 1.0
C      1  0.4670970000000  0.5814350000000  0.5003330000000 1.0
C      1  0.5283740000000  0.5579250000000  0.5566150000000 1.0
C      1  0.5718150000000  0.4868660000000  0.5080730000000 1.0
C      1  0.4685670000000  0.4681120000000  0.4133620000000 1.0
C      1  0.5038350000000  0.5294020000000  0.5902020000000 1.0
C      1  0.5877020000000  0.4859010000000  0.4614270000000 1.0
C      1  0.4628250000000  0.5312570000000  0.4828170000000 1.0
C      1  0.4867000000000  0.5773880000000  0.4499560000000 1.0
C      1  0.5148580000000  0.4104340000000  0.5082680000000 1.0
C      1  0.4306970000000  0.5035790000000  0.5565200000000 1.0
C      1  0.4856880000000  0.5389380000000  0.4367740000000 1.0
C      1  0.4932080000000  0.5023120000000  0.5964840000000 1.0
C      1  0.4391910000000  0.5487590000000  0.4378150000000 1.0
C      1  0.5281670000000  0.4377430000000  0.5440920000000 1.0
C      1  0.5047830000000  0.5105220000000  0.5174750000000 1.0
C      1  0.5764480000000  0.5033240000000  0.4399670000000 1.0
C      1  0.4523090000000  0.4580610000000  0.5673740000000 1.0
C      1  0.5698610000000  0.4631290000000  0.4622060000000 1.0
C      1  0.4785380000000  0.5407960000000  0.5863020000000 1.0
C      1  0.4367190000000  0.5430710000000  0.4860080000000 1.0
C      1  0.4227630000000  0.4681360000000  0.4748920000000 1.0
C      1  0.5143580000000  0.5884840000000  0.4892190000000 1.0
C      1  0.4669940000000  0.5124730000000  0.4607360000000 1.0
C      1  0.4597270000000  0.4693720000000  0.5932250000000 1.0
C      1  0.5127980000000  0.5687630000000  0.4358520000000 1.0
C      1  0.5330320000000  0.5067620000000  0.4511300000000 1.0
C      1  0.4307230000000  0.5245530000000  0.5353560000000 1.0
C      1  0.4583480000000  0.5222230000000  0.5278910000000 1.0
C      1  0.4657270000000  0.5620220000000  0.4377580000000 1.0
C      1  0.4690660000000  0.5146390000000  0.4277140000000 1.0
C      1  0.5190390000000  0.4514550000000  0.4284040000000 1.0
C      1  0.4124330000000  0.4725560000000  0.5032130000000 1.0
C      1  0.5185600000000  0.5154590000000  0.4717710000000 1.0
C      1  0.4689540000000  0.4963970000000  0.5295790000000 1.0
C      1  0.4326150000000  0.4374030000000  0.5167360000000 1.0
C      1  0.5034640000000  0.5372850000000  0.5168050000000 1.0
C      1  0.5176540000000  0.4856150000000  0.5470950000000 1.0
C      1  0.4795880000000  0.4670510000000  0.4555380000000 1.0
C      1  0.4497230000000  0.4198620000000  0.5021380000000 1.0
C      1  0.4453030000000  0.5153500000000  0.5790950000000 1.0
END
