TITL C-883739-1268-21 1960643.9664572 125000 -23933.645315483 0 0 159 (C1) n - 1
REM
REM in /home/nfs/bkarasulu/CARBON/AIRSS/Generating-Clusters/ReaxFF-fromJPCA2015/Units_Real/with-SteepDescent/Only-C1/SD-CG/Try1-3A/FIRE-CG
REM
REM
REM
REM
REM
REM ./C.cell (11c1c37f851c82e70ff6c80c92926a4b)
REM
REM compiler GCC version 9.2.1 20190827 (Red Hat 9.2.1-1)
REM options -cpp -mtune=generic -march=x86-64 -g -O0 -fpre-include=/usr/include/finclude/math-vector-fortran.h
REM seed -323016540 -1284658566 -1389536669 -328838534 -1648959378 -732153332 -714671960 -787299780 -1917639858 -516260038 -661626217 1987914388 -2020088581 267764904 2037540461 -561965281 1654873938 -433757260 -2142216054 -573185076 -2111161287 314381402 771980448 -2018840939 -105179501 1400929023 1766169892 568571583 649037542 -1580077469 217840486 447292471 26966389
REM
CELL 1.54180   50.00000   50.00000   50.00000   90.00000   90.00000   90.00000
LATT -1
SFAC C  
C      1  0.4705220000000  0.4769730000000  0.4798280000000 1.0
C      1  0.6156410000000  0.5012330000000  0.5094360000000 1.0
C      1  0.4166320000000  0.4478510000000  0.4293700000000 1.0
C      1  0.4136220000000  0.4889480000000  0.5570450000000 1.0
C      1  0.4785460000000  0.4767800000000  0.4537860000000 1.0
C      1  0.5198530000000  0.4135740000000  0.5241090000000 1.0
C      1  0.5758210000000  0.5445480000000  0.5529040000000 1.0
C      1  0.5663170000000  0.4817090000000  0.4474990000000 1.0
C      1  0.4786340000000  0.5185540000000  0.4020140000000 1.0
C      1  0.5896670000000  0.5342380000000  0.4643950000000 1.0
C      1  0.5404300000000  0.5079790000000  0.6210360000000 1.0
C      1  0.4618510000000  0.5311370000000  0.4945070000000 1.0
C      1  0.4818360000000  0.5310860000000  0.5970860000000 1.0
C      1  0.4385040000000  0.4997480000000  0.5988360000000 1.0
C      1  0.4148920000000  0.5438260000000  0.5142570000000 1.0
C      1  0.3981710000000  0.4898580000000  0.4897460000000 1.0
C      1  0.4501630000000  0.4312150000000  0.5558310000000 1.0
C      1  0.5620420000000  0.4191900000000  0.4508530000000 1.0
C      1  0.4247230000000  0.5635470000000  0.4674330000000 1.0
C      1  0.5424910000000  0.4921570000000  0.6012790000000 1.0
C      1  0.5053030000000  0.5571390000000  0.5647710000000 1.0
C      1  0.5136860000000  0.6194540000000  0.4793500000000 1.0
C      1  0.5568230000000  0.5549590000000  0.5338300000000 1.0
C      1  0.6035920000000  0.4596050000000  0.4880890000000 1.0
C      1  0.5304840000000  0.4645830000000  0.5905030000000 1.0
C      1  0.4401430000000  0.5600870000000  0.4422680000000 1.0
C      1  0.5648950000000  0.5259030000000  0.4970810000000 1.0
C      1  0.5415990000000  0.6139350000000  0.4881960000000 1.0
C      1  0.4529060000000  0.5127030000000  0.5157510000000 1.0
C      1  0.4499440000000  0.4741760000000  0.4030110000000 1.0
C      1  0.4911040000000  0.4859320000000  0.6003120000000 1.0
C      1  0.5108660000000  0.5842640000000  0.4401090000000 1.0
C      1  0.5904060000000  0.5411840000000  0.4931330000000 1.0
C      1  0.4227260000000  0.4859890000000  0.4734930000000 1.0
C      1  0.5123960000000  0.4963050000000  0.4878260000000 1.0
C      1  0.4316450000000  0.5903100000000  0.5137680000000 1.0
C      1  0.4840680000000  0.3939740000000  0.5436530000000 1.0
C      1  0.5491930000000  0.4261030000000  0.5634570000000 1.0
C      1  0.5488250000000  0.4531880000000  0.5744760000000 1.0
C      1  0.4900500000000  0.3997750000000  0.4668580000000 1.0
C      1  0.5914470000000  0.4436330000000  0.4667890000000 1.0
C      1  0.4985680000000  0.5107300000000  0.5858840000000 1.0
C      1  0.4538960000000  0.6021280000000  0.5300910000000 1.0
C      1  0.4747090000000  0.4734300000000  0.3879150000000 1.0
C      1  0.4213830000000  0.5158400000000  0.5507070000000 1.0
C      1  0.4944540000000  0.3914940000000  0.4930600000000 1.0
C      1  0.4331000000000  0.5375450000000  0.5664090000000 1.0
C      1  0.5988610000000  0.4992800000000  0.5507570000000 1.0
C      1  0.5479930000000  0.4762690000000  0.4667250000000 1.0
C      1  0.5325590000000  0.5342660000000  0.4134450000000 1.0
C      1  0.5456780000000  0.5847420000000  0.4941920000000 1.0
C      1  0.5768560000000  0.4569910000000  0.4442630000000 1.0
C      1  0.4235530000000  0.5125680000000  0.4299760000000 1.0
C      1  0.4938030000000  0.5552630000000  0.5235340000000 1.0
C      1  0.4232120000000  0.5672460000000  0.5293270000000 1.0
C      1  0.4910890000000  0.5763220000000  0.5460720000000 1.0
C      1  0.5136620000000  0.4335860000000  0.4337050000000 1.0
C      1  0.4516240000000  0.4149420000000  0.4971030000000 1.0
C      1  0.4340480000000  0.5076130000000  0.4570180000000 1.0
C      1  0.4396930000000  0.5303120000000  0.5938680000000 1.0
C      1  0.4936980000000  0.5355390000000  0.5476670000000 1.0
C      1  0.4664270000000  0.4298650000000  0.4501450000000 1.0
C      1  0.4972090000000  0.4113660000000  0.5636140000000 1.0
C      1  0.4476030000000  0.4185640000000  0.4697270000000 1.0
C      1  0.5796610000000  0.4916850000000  0.5711870000000 1.0
C      1  0.5423400000000  0.4153640000000  0.5025690000000 1.0
C      1  0.5215400000000  0.4801610000000  0.4137200000000 1.0
C      1  0.6022220000000  0.4556360000000  0.5164530000000 1.0
C      1  0.4987140000000  0.4381430000000  0.5177210000000 1.0
C      1  0.4639830000000  0.4906370000000  0.6001250000000 1.0
C      1  0.4795390000000  0.4349860000000  0.5679820000000 1.0
C      1  0.5536330000000  0.4608660000000  0.4920370000000 1.0
C      1  0.4125110000000  0.4673260000000  0.5362040000000 1.0
C      1  0.5826320000000  0.5865690000000  0.4226160000000 1.0
C      1  0.5630650000000  0.6080480000000  0.5232570000000 1.0
C      1  0.3950960000000  0.4442230000000  0.4642510000000 1.0
C      1  0.4227810000000  0.4536320000000  0.5857680000000 1.0
C      1  0.4679950000000  0.4879060000000  0.5197800000000 1.0
C      1  0.5026610000000  0.4885330000000  0.4385480000000 1.0
C      1  0.5321560000000  0.5509710000000  0.5744050000000 1.0
C      1  0.5581120000000  0.5373140000000  0.5758560000000 1.0
C      1  0.4571140000000  0.5231520000000  0.4666280000000 1.0
C      1  0.5873050000000  0.4291900000000  0.5234120000000 1.0
C      1  0.5970890000000  0.5272000000000  0.5420330000000 1.0
C      1  0.6068520000000  0.5283840000000  0.5146110000000 1.0
C      1  0.5343640000000  0.4379670000000  0.4865980000000 1.0
C      1  0.5645580000000  0.5041160000000  0.4295870000000 1.0
C      1  0.4900600000000  0.5142510000000  0.4283510000000 1.0
C      1  0.4341220000000  0.5390020000000  0.4222640000000 1.0
C      1  0.4267870000000  0.4250690000000  0.4876920000000 1.0
C      1  0.5006590000000  0.6043090000000  0.4583170000000 1.0
C      1  0.5800020000000  0.5226620000000  0.4466560000000 1.0
C      1  0.4440570000000  0.4696900000000  0.4866820000000 1.0
C      1  0.4736890000000  0.6167710000000  0.5169420000000 1.0
C      1  0.5560120000000  0.4695110000000  0.5185720000000 1.0
C      1  0.5243750000000  0.4131350000000  0.5540840000000 1.0
C      1  0.5790100000000  0.4174660000000  0.4734670000000 1.0
C      1  0.4729560000000  0.5569970000000  0.5020270000000 1.0
C      1  0.5236100000000  0.5605230000000  0.4565980000000 1.0
C      1  0.4082600000000  0.5450080000000  0.4850880000000 1.0
C      1  0.4524300000000  0.4637360000000  0.5149800000000 1.0
C      1  0.4269740000000  0.5201630000000  0.5241340000000 1.0
C      1  0.4725390000000  0.4256200000000  0.5157330000000 1.0
C      1  0.5559170000000  0.6275230000000  0.5087720000000 1.0
C      1  0.5506400000000  0.4852380000000  0.5377930000000 1.0
C      1  0.6027350000000  0.4894660000000  0.4855880000000 1.0
C      1  0.3941360000000  0.4445290000000  0.4394540000000 1.0
C      1  0.5007440000000  0.3891490000000  0.5198410000000 1.0
C      1  0.5711290000000  0.4136680000000  0.5026440000000 1.0
C      1  0.4625950000000  0.5815050000000  0.5496720000000 1.0
C      1  0.5030950000000  0.4610290000000  0.5884840000000 1.0
C      1  0.5029390000000  0.4789010000000  0.3909270000000 1.0
C      1  0.5037260000000  0.4652040000000  0.5254880000000 1.0
C      1  0.5125420000000  0.5238080000000  0.4843060000000 1.0
C      1  0.4862500000000  0.4987760000000  0.3830890000000 1.0
C      1  0.5421520000000  0.5325730000000  0.5198860000000 1.0
C      1  0.4367990000000  0.4998100000000  0.4061670000000 1.0
C      1  0.5650390000000  0.5705150000000  0.4278090000000 1.0
C      1  0.4643850000000  0.5815600000000  0.4876770000000 1.0
C      1  0.4793160000000  0.5313140000000  0.4493930000000 1.0
C      1  0.3987450000000  0.5182250000000  0.4858790000000 1.0
C      1  0.5092480000000  0.5510680000000  0.4141060000000 1.0
C      1  0.4897110000000  0.4608530000000  0.5643930000000 1.0
C      1  0.5292330000000  0.5072700000000  0.5338010000000 1.0
C      1  0.5397690000000  0.5058510000000  0.4155140000000 1.0
C      1  0.5774740000000  0.5025710000000  0.4886430000000 1.0
C      1  0.4371610000000  0.4515500000000  0.5370320000000 1.0
C      1  0.4008310000000  0.4670490000000  0.5092490000000 1.0
C      1  0.4912700000000  0.5716100000000  0.4223300000000 1.0
C      1  0.5112770000000  0.4474250000000  0.4718580000000 1.0
C      1  0.5181080000000  0.4776470000000  0.4656510000000 1.0
C      1  0.4041420000000  0.4435350000000  0.4913670000000 1.0
C      1  0.4444010000000  0.4521070000000  0.4227100000000 1.0
C      1  0.4740160000000  0.5909460000000  0.4609020000000 1.0
C      1  0.4602250000000  0.4091980000000  0.5369340000000 1.0
C      1  0.4398180000000  0.5626820000000  0.5528830000000 1.0
C      1  0.5553700000000  0.4385020000000  0.4311790000000 1.0
C      1  0.4653040000000  0.5745130000000  0.4388640000000 1.0
C      1  0.4974330000000  0.4292610000000  0.4541160000000 1.0
C      1  0.5207060000000  0.5448610000000  0.5025990000000 1.0
C      1  0.5687940000000  0.4268520000000  0.5429630000000 1.0
C      1  0.5035070000000  0.5090970000000  0.5549850000000 1.0
C      1  0.5164700000000  0.4887400000000  0.5146100000000 1.0
C      1  0.4288450000000  0.4272820000000  0.5818090000000 1.0
C      1  0.6092010000000  0.4810000000000  0.5296320000000 1.0
C      1  0.4595150000000  0.4569000000000  0.4463330000000 1.0
C      1  0.5459840000000  0.5531270000000  0.4334340000000 1.0
C      1  0.4866750000000  0.4822180000000  0.5442370000000 1.0
C      1  0.5579940000000  0.5807280000000  0.5201310000000 1.0
C      1  0.5059550000000  0.5364520000000  0.4597920000000 1.0
C      1  0.4946750000000  0.6285150000000  0.5013070000000 1.0
C      1  0.5637770000000  0.5101560000000  0.5871730000000 1.0
C      1  0.4189020000000  0.4810920000000  0.5843360000000 1.0
C      1  0.4633020000000  0.5434920000000  0.6035320000000 1.0
C      1  0.4501870000000  0.5257770000000  0.4009390000000 1.0
C      1  0.5304030000000  0.5642430000000  0.4841630000000 1.0
C      1  0.5644030000000  0.4696060000000  0.5584980000000 1.0
C      1  0.5303430000000  0.4500230000000  0.4199310000000 1.0
C      1  0.4350860000000  0.5842370000000  0.4850850000000 1.0
END
