TITL C-884129-4740-328 -3.89822341745926 125000 -15077.1957417146 0 0 101 (C1) n - 1
REM
REM in /home/nfs/bkarasulu/CARBON/AIRSS/Generating-Clusters/ReaxFF-fromJPCA2015/Units_Real/with-SteepDescent/Only-C1/SD-CG/Try1-3A/FIRE-CG
REM
REM
REM
REM
REM
REM ./C.cell (11c1c37f851c82e70ff6c80c92926a4b)
REM
REM compiler GCC version 9.2.1 20190827 (Red Hat 9.2.1-1)
REM options -cpp -mtune=generic -march=x86-64 -g -O0 -fpre-include=/usr/include/finclude/math-vector-fortran.h
REM seed -47579469 1552756137 1439425259 1324435737 1966897484 -279876335 861955706 -606112579 -1444944426 453339679 1819637054 1169389322 -464644538 -1870388469 1541139751 -71288523 -1536380235 1443133435 -2057070141 -598377416 1960692656 1957081288 -1094041454 -13512813 -863287510 1740511855 -514294794 77846166 75228512 973820779 -304077515 1904772003 61292800
REM
CELL 1.54180   50.00000   50.00000   50.00000   90.00000   90.00000   90.00000
LATT -1
SFAC C  
C      1  0.4466120000000  0.4379430000000  0.4567760000000 1.0
C      1  0.4734710000000  0.4882400000000  0.4858000000000 1.0
C      1  0.4494640000000  0.4193420000000  0.5023950000000 1.0
C      1  0.5887370000000  0.4940630000000  0.4554890000000 1.0
C      1  0.5471450000000  0.4268410000000  0.4711600000000 1.0
C      1  0.4321550000000  0.5394140000000  0.4485570000000 1.0
C      1  0.5147250000000  0.4355800000000  0.5338540000000 1.0
C      1  0.5056950000000  0.4601150000000  0.5181270000000 1.0
C      1  0.4684470000000  0.4952960000000  0.5146310000000 1.0
C      1  0.5116760000000  0.5102980000000  0.5538510000000 1.0
C      1  0.4456270000000  0.4348110000000  0.5254180000000 1.0
C      1  0.4679300000000  0.5275940000000  0.5625980000000 1.0
C      1  0.4887000000000  0.4188180000000  0.5266180000000 1.0
C      1  0.4340450000000  0.4301490000000  0.4818200000000 1.0
C      1  0.5295680000000  0.5509070000000  0.4572490000000 1.0
C      1  0.5229400000000  0.5091220000000  0.5264580000000 1.0
C      1  0.5191040000000  0.4331760000000  0.4803410000000 1.0
C      1  0.5379600000000  0.4177990000000  0.4956260000000 1.0
C      1  0.4775250000000  0.4136250000000  0.5004340000000 1.0
C      1  0.5658740000000  0.4337780000000  0.5310110000000 1.0
C      1  0.5432370000000  0.4906320000000  0.5232190000000 1.0
C      1  0.5721370000000  0.5365110000000  0.5425340000000 1.0
C      1  0.5633380000000  0.4495500000000  0.4657020000000 1.0
C      1  0.4490920000000  0.5772370000000  0.5079780000000 1.0
C      1  0.4587420000000  0.5488030000000  0.4424230000000 1.0
C      1  0.5315240000000  0.5665510000000  0.5421780000000 1.0
C      1  0.5179280000000  0.4646500000000  0.4928630000000 1.0
C      1  0.4989240000000  0.4805870000000  0.4718610000000 1.0
C      1  0.4717570000000  0.4695730000000  0.4312870000000 1.0
C      1  0.4413880000000  0.4842990000000  0.5262160000000 1.0
C      1  0.4819290000000  0.5500980000000  0.4849950000000 1.0
C      1  0.5368360000000  0.4865240000000  0.4390260000000 1.0
C      1  0.4767010000000  0.4352310000000  0.4556560000000 1.0
C      1  0.5281160000000  0.4644540000000  0.5783860000000 1.0
C      1  0.4760090000000  0.4745390000000  0.5559710000000 1.0
C      1  0.4688870000000  0.4299490000000  0.5429430000000 1.0
C      1  0.4219800000000  0.4972800000000  0.4862320000000 1.0
C      1  0.5751260000000  0.4585010000000  0.5405550000000 1.0
C      1  0.4662000000000  0.5303060000000  0.5178310000000 1.0
C      1  0.5150230000000  0.5378940000000  0.5843530000000 1.0
C      1  0.4780890000000  0.5845030000000  0.5507770000000 1.0
C      1  0.5172100000000  0.5020460000000  0.4560100000000 1.0
C      1  0.4324170000000  0.4635350000000  0.4576710000000 1.0
C      1  0.4254290000000  0.5062410000000  0.5372700000000 1.0
C      1  0.5035740000000  0.5174300000000  0.4340110000000 1.0
C      1  0.5718590000000  0.5000510000000  0.4071770000000 1.0
C      1  0.5163740000000  0.5241140000000  0.5036740000000 1.0
C      1  0.4425190000000  0.5249380000000  0.5510490000000 1.0
C      1  0.5326560000000  0.5760150000000  0.4967090000000 1.0
C      1  0.4973070000000  0.5446780000000  0.5091280000000 1.0
C      1  0.5588210000000  0.5584330000000  0.5322420000000 1.0
C      1  0.5923160000000  0.5128310000000  0.5164730000000 1.0
C      1  0.4330460000000  0.4589990000000  0.5148990000000 1.0
C      1  0.4696590000000  0.5747270000000  0.4547600000000 1.0
C      1  0.5617350000000  0.4853260000000  0.5455120000000 1.0
C      1  0.4844130000000  0.5018110000000  0.5650550000000 1.0
C      1  0.4198990000000  0.5122750000000  0.4423220000000 1.0
C      1  0.5406980000000  0.4245400000000  0.5222230000000 1.0
C      1  0.5240930000000  0.5244250000000  0.4147230000000 1.0
C      1  0.5114100000000  0.4449930000000  0.5635930000000 1.0
C      1  0.4320390000000  0.4856290000000  0.4381210000000 1.0
C      1  0.5166390000000  0.4827850000000  0.5983080000000 1.0
C      1  0.5280320000000  0.5079290000000  0.5785620000000 1.0
C      1  0.4232070000000  0.4574710000000  0.4863610000000 1.0
C      1  0.4139700000000  0.5127530000000  0.5105390000000 1.0
C      1  0.5819850000000  0.4834260000000  0.4305380000000 1.0
C      1  0.4865170000000  0.4764720000000  0.5290630000000 1.0
C      1  0.5900010000000  0.4905180000000  0.4821660000000 1.0
C      1  0.5426980000000  0.5009300000000  0.4142320000000 1.0
C      1  0.4532600000000  0.4846980000000  0.4167980000000 1.0
C      1  0.4051550000000  0.5133280000000  0.4674930000000 1.0
C      1  0.4983260000000  0.5780530000000  0.5641970000000 1.0
C      1  0.5588620000000  0.4672710000000  0.4431380000000 1.0
C      1  0.4757000000000  0.5288510000000  0.4280150000000 1.0
C      1  0.4861410000000  0.5358710000000  0.5891330000000 1.0
C      1  0.5701210000000  0.4651620000000  0.4912950000000 1.0
C      1  0.4911700000000  0.4213160000000  0.4762240000000 1.0
C      1  0.4625790000000  0.5287260000000  0.4886730000000 1.0
C      1  0.4145670000000  0.5408890000000  0.4730210000000 1.0
C      1  0.5437160000000  0.4762730000000  0.4995910000000 1.0
C      1  0.5850740000000  0.5188370000000  0.4897000000000 1.0
C      1  0.5346960000000  0.5494350000000  0.4279610000000 1.0
C      1  0.4782940000000  0.5105960000000  0.5991020000000 1.0
C      1  0.4420930000000  0.5501400000000  0.5184460000000 1.0
C      1  0.5562720000000  0.5592090000000  0.5019710000000 1.0
C      1  0.4903630000000  0.4605150000000  0.4487990000000 1.0
C      1  0.4193000000000  0.5402830000000  0.5021860000000 1.0
C      1  0.5832470000000  0.5112770000000  0.5429480000000 1.0
C      1  0.5590560000000  0.5349390000000  0.4862670000000 1.0
C      1  0.4979710000000  0.5791010000000  0.4564620000000 1.0
C      1  0.5151110000000  0.5685490000000  0.5182570000000 1.0
C      1  0.5460560000000  0.4865110000000  0.5698320000000 1.0
C      1  0.4622810000000  0.5123850000000  0.4076250000000 1.0
C      1  0.4507380000000  0.5037740000000  0.4776600000000 1.0
C      1  0.4608410000000  0.5843910000000  0.5322290000000 1.0
C      1  0.5807900000000  0.4502420000000  0.5146310000000 1.0
C      1  0.5210390000000  0.5627900000000  0.5704180000000 1.0
C      1  0.5319130000000  0.5255130000000  0.4780270000000 1.0
C      1  0.4827610000000  0.4472750000000  0.5636290000000 1.0
C      1  0.5237830000000  0.5782010000000  0.4677370000000 1.0
C      1  0.4678430000000  0.5756960000000  0.4849510000000 1.0
END
