TITL C-884137-4758-171 24.7099292709327 125000 -11887.6649298409 0 0 81 (C1) n - 1
REM
REM in /home/nfs/bkarasulu/CARBON/AIRSS/Generating-Clusters/ReaxFF-fromJPCA2015/Units_Real/with-SteepDescent/Only-C1/SD-CG/Try1-3A/FIRE-CG
REM
REM
REM
REM
REM
REM ./C.cell (11c1c37f851c82e70ff6c80c92926a4b)
REM
REM compiler GCC version 9.2.1 20190827 (Red Hat 9.2.1-1)
REM options -cpp -mtune=generic -march=x86-64 -g -O0 -fpre-include=/usr/include/finclude/math-vector-fortran.h
REM seed 1596718864 -248526974 -1043327201 -719119251 1992656615 -721359641 -1023097448 -550846625 -1589985109 1055109585 -997780400 -1656081083 -90519350 -1378498760 2009905465 -1887179526 1290905007 478419292 -286019217 -654391348 -756066696 -399885612 -1014581474 701034006 -2023639302 -1817717612 808403805 610927372 408753246 1622672017 1700004478 244312701 1575700670
REM
CELL 1.54180   50.00000   50.00000   50.00000   90.00000   90.00000   90.00000
LATT -1
SFAC C  
C      1  0.4464970000000  0.5111310000000  0.4385530000000 1.0
C      1  0.5069480000000  0.5082550000000  0.5720630000000 1.0
C      1  0.5613920000000  0.4816250000000  0.5517370000000 1.0
C      1  0.5206390000000  0.4263160000000  0.5138730000000 1.0
C      1  0.4302640000000  0.4904270000000  0.5150260000000 1.0
C      1  0.5064710000000  0.5810580000000  0.4833790000000 1.0
C      1  0.5013650000000  0.5428690000000  0.5157410000000 1.0
C      1  0.4833700000000  0.5488710000000  0.4492770000000 1.0
C      1  0.5466420000000  0.5613350000000  0.4680320000000 1.0
C      1  0.5277630000000  0.5536060000000  0.4492870000000 1.0
C      1  0.5599030000000  0.4496530000000  0.4951420000000 1.0
C      1  0.5058530000000  0.5075910000000  0.4869570000000 1.0
C      1  0.5034030000000  0.4807090000000  0.5331240000000 1.0
C      1  0.4321310000000  0.4930210000000  0.4854000000000 1.0
C      1  0.5209590000000  0.4234790000000  0.4852470000000 1.0
C      1  0.4961210000000  0.5185600000000  0.4547410000000 1.0
C      1  0.5122210000000  0.4675960000000  0.5601280000000 1.0
C      1  0.4715410000000  0.4475480000000  0.4408700000000 1.0
C      1  0.5458900000000  0.4360170000000  0.4741490000000 1.0
C      1  0.5405400000000  0.5226460000000  0.5317410000000 1.0
C      1  0.4529720000000  0.4443520000000  0.5049970000000 1.0
C      1  0.5192750000000  0.5229750000000  0.5073470000000 1.0
C      1  0.4692580000000  0.4348460000000  0.4675240000000 1.0
C      1  0.5048840000000  0.5626020000000  0.5378830000000 1.0
C      1  0.4987070000000  0.4498210000000  0.4289490000000 1.0
C      1  0.5415780000000  0.4503830000000  0.5178900000000 1.0
C      1  0.4289030000000  0.5146070000000  0.5630110000000 1.0
C      1  0.5215640000000  0.5261220000000  0.5592020000000 1.0
C      1  0.4545210000000  0.4707650000000  0.4391630000000 1.0
C      1  0.4404910000000  0.5399180000000  0.4416380000000 1.0
C      1  0.4493630000000  0.5438940000000  0.5194070000000 1.0
C      1  0.4611750000000  0.5625570000000  0.5409250000000 1.0
C      1  0.5705350000000  0.5522290000000  0.5039310000000 1.0
C      1  0.5514070000000  0.5714350000000  0.5119650000000 1.0
C      1  0.5461490000000  0.4511580000000  0.4484090000000 1.0
C      1  0.4361580000000  0.5499790000000  0.4940530000000 1.0
C      1  0.4824370000000  0.5801110000000  0.5305170000000 1.0
C      1  0.4431290000000  0.4660130000000  0.5204520000000 1.0
C      1  0.4632200000000  0.4526150000000  0.5537870000000 1.0
C      1  0.5060680000000  0.4672610000000  0.4860880000000 1.0
C      1  0.4829680000000  0.5783640000000  0.5007490000000 1.0
C      1  0.4782770000000  0.4857210000000  0.5222350000000 1.0
C      1  0.5652040000000  0.5151260000000  0.4675800000000 1.0
C      1  0.5066000000000  0.4342200000000  0.5595130000000 1.0
C      1  0.5784410000000  0.4933640000000  0.5101240000000 1.0
C      1  0.4921460000000  0.5001210000000  0.4304070000000 1.0
C      1  0.4464820000000  0.4468910000000  0.4777390000000 1.0
C      1  0.5449970000000  0.5061020000000  0.4490510000000 1.0
C      1  0.5038630000000  0.5682050000000  0.4571190000000 1.0
C      1  0.5236910000000  0.5253520000000  0.4437990000000 1.0
C      1  0.5205470000000  0.4748420000000  0.5110080000000 1.0
C      1  0.5550310000000  0.4554130000000  0.5442090000000 1.0
C      1  0.4678030000000  0.4994510000000  0.5442050000000 1.0
C      1  0.5124060000000  0.4190820000000  0.5788570000000 1.0
C      1  0.5658450000000  0.5425520000000  0.4773060000000 1.0
C      1  0.4388200000000  0.4714300000000  0.4652250000000 1.0
C      1  0.4687730000000  0.4790550000000  0.5663160000000 1.0
C      1  0.5226110000000  0.4393780000000  0.4396590000000 1.0
C      1  0.4961710000000  0.4385840000000  0.4802510000000 1.0
C      1  0.4980320000000  0.4254820000000  0.5314930000000 1.0
C      1  0.4642250000000  0.4938790000000  0.4226750000000 1.0
C      1  0.4349830000000  0.5469820000000  0.4687380000000 1.0
C      1  0.5406480000000  0.4687350000000  0.5646190000000 1.0
C      1  0.5026890000000  0.5481100000000  0.5630580000000 1.0
C      1  0.4801980000000  0.5010730000000  0.4982920000000 1.0
C      1  0.4419900000000  0.5124260000000  0.5334380000000 1.0
C      1  0.5783600000000  0.4709670000000  0.4930250000000 1.0
C      1  0.4758770000000  0.5497480000000  0.5016710000000 1.0
C      1  0.4634630000000  0.5569900000000  0.4294230000000 1.0
C      1  0.4951030000000  0.4842480000000  0.5789450000000 1.0
C      1  0.5803950000000  0.4968850000000  0.4827680000000 1.0
C      1  0.5106850000000  0.4779300000000  0.4283030000000 1.0
C      1  0.4718060000000  0.5482240000000  0.5638510000000 1.0
C      1  0.5606250000000  0.5008200000000  0.5312710000000 1.0
C      1  0.5564300000000  0.5471240000000  0.5269040000000 1.0
C      1  0.5368030000000  0.4791760000000  0.4415020000000 1.0
C      1  0.5348740000000  0.5770590000000  0.4886350000000 1.0
C      1  0.4529620000000  0.5277570000000  0.5705650000000 1.0
C      1  0.4701640000000  0.4356540000000  0.5298050000000 1.0
C      1  0.4567250000000  0.5079970000000  0.4835040000000 1.0
C      1  0.4605770000000  0.5035210000000  0.4605630000000 1.0
END
