TITL C-884141-4321-248 11.3831404510513 125000 -25967.9254432633 0 0 175 (C1) n - 1
REM
REM in /home/nfs/bkarasulu/CARBON/AIRSS/Generating-Clusters/ReaxFF-fromJPCA2015/Units_Real/with-SteepDescent/Only-C1/SD-CG/Try1-3A/FIRE-CG
REM
REM
REM
REM
REM
REM ./C.cell (11c1c37f851c82e70ff6c80c92926a4b)
REM
REM compiler GCC version 9.2.1 20190827 (Red Hat 9.2.1-1)
REM options -cpp -mtune=generic -march=x86-64 -g -O0 -fpre-include=/usr/include/finclude/math-vector-fortran.h
REM seed -1640618699 -1811158419 -560833807 -1861280470 -948811831 -36632529 -1944626805 1041538899 -1337724474 -568314516 -744842430 -1250548524 -1808105960 648078499 1449848985 1542491799 1917955859 845226225 1025192788 1548924079 -1540870418 1523124356 1821713041 1970177379 -642621307 -1395835633 -1409865874 -2131804373 -1535116018 -352048011 209210033 -1906897415 -769631538
REM
CELL 1.54180   50.00000   50.00000   50.00000   90.00000   90.00000   90.00000
LATT -1
SFAC C  
C      1  0.5700960000000  0.5757440000000  0.4643000000000 1.0
C      1  0.5003920000000  0.5744860000000  0.5912300000000 1.0
C      1  0.6010000000000  0.4717570000000  0.4594520000000 1.0
C      1  0.4556690000000  0.5132590000000  0.5407560000000 1.0
C      1  0.5613940000000  0.5589570000000  0.5107140000000 1.0
C      1  0.6064620000000  0.4824820000000  0.5216670000000 1.0
C      1  0.5280890000000  0.4073280000000  0.4711470000000 1.0
C      1  0.6056220000000  0.5223340000000  0.4545710000000 1.0
C      1  0.4534630000000  0.4039320000000  0.5075300000000 1.0
C      1  0.4866490000000  0.5731180000000  0.5041770000000 1.0
C      1  0.4800570000000  0.4336440000000  0.4755890000000 1.0
C      1  0.4829840000000  0.5129550000000  0.4575280000000 1.0
C      1  0.4130710000000  0.4817930000000  0.4765270000000 1.0
C      1  0.3733550000000  0.5399040000000  0.4987010000000 1.0
C      1  0.4398600000000  0.5754120000000  0.5076980000000 1.0
C      1  0.4608210000000  0.5528830000000  0.5058460000000 1.0
C      1  0.4270710000000  0.5190290000000  0.4515590000000 1.0
C      1  0.4508850000000  0.5203650000000  0.4944770000000 1.0
C      1  0.4240760000000  0.4819260000000  0.4109710000000 1.0
C      1  0.4762410000000  0.4661290000000  0.5365660000000 1.0
C      1  0.5581930000000  0.5618500000000  0.5557710000000 1.0
C      1  0.3986010000000  0.4306290000000  0.5231890000000 1.0
C      1  0.5346930000000  0.5929790000000  0.5189960000000 1.0
C      1  0.4751880000000  0.5507230000000  0.5553530000000 1.0
C      1  0.4679260000000  0.5521370000000  0.4101370000000 1.0
C      1  0.5669600000000  0.5074700000000  0.4251540000000 1.0
C      1  0.5555490000000  0.5559060000000  0.4194840000000 1.0
C      1  0.4054360000000  0.4990270000000  0.4530330000000 1.0
C      1  0.5477890000000  0.5945140000000  0.4672610000000 1.0
C      1  0.5746870000000  0.5579490000000  0.4391550000000 1.0
C      1  0.4911890000000  0.5100520000000  0.6100320000000 1.0
C      1  0.4392620000000  0.5136300000000  0.5654630000000 1.0
C      1  0.4020950000000  0.4497200000000  0.5459950000000 1.0
C      1  0.5809340000000  0.4810450000000  0.4148280000000 1.0
C      1  0.4229050000000  0.5161260000000  0.5050760000000 1.0
C      1  0.4421290000000  0.4237790000000  0.5571120000000 1.0
C      1  0.5473760000000  0.4990210000000  0.4474150000000 1.0
C      1  0.4330320000000  0.5766970000000  0.5382690000000 1.0
C      1  0.5455050000000  0.4343160000000  0.4226540000000 1.0
C      1  0.4113920000000  0.4913420000000  0.5037020000000 1.0
C      1  0.4705450000000  0.5345630000000  0.6144000000000 1.0
C      1  0.4884420000000  0.4515520000000  0.4116440000000 1.0
C      1  0.5609750000000  0.4415070000000  0.5729240000000 1.0
C      1  0.5024640000000  0.5082670000000  0.5605590000000 1.0
C      1  0.6057500000000  0.5551060000000  0.4986740000000 1.0
C      1  0.4798880000000  0.4955490000000  0.4149960000000 1.0
C      1  0.5992330000000  0.5270310000000  0.5460910000000 1.0
C      1  0.5256600000000  0.5063940000000  0.4885650000000 1.0
C      1  0.3971210000000  0.4441850000000  0.4716470000000 1.0
C      1  0.5579520000000  0.5790690000000  0.5319250000000 1.0
C      1  0.4731960000000  0.4941670000000  0.5297640000000 1.0
C      1  0.4800620000000  0.6006030000000  0.5207650000000 1.0
C      1  0.5824270000000  0.4190630000000  0.5208590000000 1.0
C      1  0.5164060000000  0.5476560000000  0.5844470000000 1.0
C      1  0.5340910000000  0.6045710000000  0.4919980000000 1.0
C      1  0.5869580000000  0.4666350000000  0.5066200000000 1.0
C      1  0.3893350000000  0.5181700000000  0.5436130000000 1.0
C      1  0.5770340000000  0.4978320000000  0.5811840000000 1.0
C      1  0.4485280000000  0.5626480000000  0.5604610000000 1.0
C      1  0.5045640000000  0.4168850000000  0.5935440000000 1.0
C      1  0.5211960000000  0.5452090000000  0.4778020000000 1.0
C      1  0.4362690000000  0.4254310000000  0.4929270000000 1.0
C      1  0.5680730000000  0.4389120000000  0.4677190000000 1.0
C      1  0.5672780000000  0.5208030000000  0.5874060000000 1.0
C      1  0.4457290000000  0.5904590000000  0.4622120000000 1.0
C      1  0.4680570000000  0.4515050000000  0.5136590000000 1.0
C      1  0.5512400000000  0.3936140000000  0.4844520000000 1.0
C      1  0.5241070000000  0.4813530000000  0.4473650000000 1.0
C      1  0.5386560000000  0.4341000000000  0.5128440000000 1.0
C      1  0.4921710000000  0.5329960000000  0.5711910000000 1.0
C      1  0.4581410000000  0.4699850000000  0.5858180000000 1.0
C      1  0.5173610000000  0.5231440000000  0.6061110000000 1.0
C      1  0.5315400000000  0.5621870000000  0.4076650000000 1.0
C      1  0.4070250000000  0.5603620000000  0.5696690000000 1.0
C      1  0.5233460000000  0.5981670000000  0.4521020000000 1.0
C      1  0.5389060000000  0.4055230000000  0.5237070000000 1.0
C      1  0.5434210000000  0.5105990000000  0.6036630000000 1.0
C      1  0.5156740000000  0.5557040000000  0.4550940000000 1.0
C      1  0.4703750000000  0.4988000000000  0.5019900000000 1.0
C      1  0.5368530000000  0.4550130000000  0.4036070000000 1.0
C      1  0.5888010000000  0.4793420000000  0.5647240000000 1.0
C      1  0.5518820000000  0.5035180000000  0.3956050000000 1.0
C      1  0.5051980000000  0.4037000000000  0.5662000000000 1.0
C      1  0.6046840000000  0.4979320000000  0.5473840000000 1.0
C      1  0.5123460000000  0.4589520000000  0.5659460000000 1.0
C      1  0.4151270000000  0.5733300000000  0.4867510000000 1.0
C      1  0.5166330000000  0.4807430000000  0.4947390000000 1.0
C      1  0.5577050000000  0.5155400000000  0.5355640000000 1.0
C      1  0.4225560000000  0.4706560000000  0.5475070000000 1.0
C      1  0.5465500000000  0.4196210000000  0.5634740000000 1.0
C      1  0.5114300000000  0.4417740000000  0.5197490000000 1.0
C      1  0.4777950000000  0.5087870000000  0.3747320000000 1.0
C      1  0.5645470000000  0.3967910000000  0.5110180000000 1.0
C      1  0.4321350000000  0.5432950000000  0.5743190000000 1.0
C      1  0.5012270000000  0.4001660000000  0.4852100000000 1.0
C      1  0.5097350000000  0.4620070000000  0.3964530000000 1.0
C      1  0.5733360000000  0.5343740000000  0.5589380000000 1.0
C      1  0.4510290000000  0.4796850000000  0.4207340000000 1.0
C      1  0.4755890000000  0.5225530000000  0.3992120000000 1.0
C      1  0.5133150000000  0.5728590000000  0.5189970000000 1.0
C      1  0.5315750000000  0.5518580000000  0.5083870000000 1.0
C      1  0.4232790000000  0.5723970000000  0.4590200000000 1.0
C      1  0.4755330000000  0.4315560000000  0.4265560000000 1.0
C      1  0.4826160000000  0.4122340000000  0.5507130000000 1.0
C      1  0.5296630000000  0.4129820000000  0.4375250000000 1.0
C      1  0.5223790000000  0.4862230000000  0.5681550000000 1.0
C      1  0.4513790000000  0.5090360000000  0.4656180000000 1.0
C      1  0.3917350000000  0.5586210000000  0.4904690000000 1.0
C      1  0.4778380000000  0.3957660000000  0.4960610000000 1.0
C      1  0.4060090000000  0.4295000000000  0.4947440000000 1.0
C      1  0.5324690000000  0.4000440000000  0.5520110000000 1.0
C      1  0.5259810000000  0.5374980000000  0.3961160000000 1.0
C      1  0.4460080000000  0.4628590000000  0.4446680000000 1.0
C      1  0.4662500000000  0.5382100000000  0.5304690000000 1.0
C      1  0.4863250000000  0.4823290000000  0.4846620000000 1.0
C      1  0.4526000000000  0.4455200000000  0.5736160000000 1.0
C      1  0.5505110000000  0.5057010000000  0.4750340000000 1.0
C      1  0.4359500000000  0.4831560000000  0.5715270000000 1.0
C      1  0.6111880000000  0.5375930000000  0.4777970000000 1.0
C      1  0.5097610000000  0.4460240000000  0.5914380000000 1.0
C      1  0.5896310000000  0.4544490000000  0.4796340000000 1.0
C      1  0.4971920000000  0.4959350000000  0.4396670000000 1.0
C      1  0.5073620000000  0.4708670000000  0.6091120000000 1.0
C      1  0.5229540000000  0.4879820000000  0.5238710000000 1.0
C      1  0.4721760000000  0.5805680000000  0.4527000000000 1.0
C      1  0.4581460000000  0.4084470000000  0.5370380000000 1.0
C      1  0.4536580000000  0.4215660000000  0.4687370000000 1.0
C      1  0.4422830000000  0.4765020000000  0.4708040000000 1.0
C      1  0.4508190000000  0.5999860000000  0.4900090000000 1.0
C      1  0.5128200000000  0.5742980000000  0.4327450000000 1.0
C      1  0.3936260000000  0.4586060000000  0.4490280000000 1.0
C      1  0.4921560000000  0.4512410000000  0.4392420000000 1.0
C      1  0.4135140000000  0.4233730000000  0.5475120000000 1.0
C      1  0.4820760000000  0.4832700000000  0.6034780000000 1.0
C      1  0.5249450000000  0.5107750000000  0.3885920000000 1.0
C      1  0.5754040000000  0.5028550000000  0.4896220000000 1.0
C      1  0.4274170000000  0.4738130000000  0.5188770000000 1.0
C      1  0.4060620000000  0.5121820000000  0.5667160000000 1.0
C      1  0.5047700000000  0.5217290000000  0.4758070000000 1.0
C      1  0.5895490000000  0.4616190000000  0.4340840000000 1.0
C      1  0.5578180000000  0.4752250000000  0.3976530000000 1.0
C      1  0.5694390000000  0.4404760000000  0.4389950000000 1.0
C      1  0.5996690000000  0.5324830000000  0.5175740000000 1.0
C      1  0.5663760000000  0.4641780000000  0.5506890000000 1.0
C      1  0.4889720000000  0.4346970000000  0.5030370000000 1.0
C      1  0.5295250000000  0.5312090000000  0.5342010000000 1.0
C      1  0.4459200000000  0.5491720000000  0.4250200000000 1.0
C      1  0.5093820000000  0.5100510000000  0.5339950000000 1.0
C      1  0.5273350000000  0.4637410000000  0.4705320000000 1.0
C      1  0.4435300000000  0.4587830000000  0.4995450000000 1.0
C      1  0.4007150000000  0.4800380000000  0.4314520000000 1.0
C      1  0.5457890000000  0.4873780000000  0.5427130000000 1.0
C      1  0.5012550000000  0.4896380000000  0.3901630000000 1.0
C      1  0.5400890000000  0.4386000000000  0.4795560000000 1.0
C      1  0.4757480000000  0.6130700000000  0.4953890000000 1.0
C      1  0.5694740000000  0.4458120000000  0.5238630000000 1.0
C      1  0.4073830000000  0.5798190000000  0.5471500000000 1.0
C      1  0.5741940000000  0.5206230000000  0.5119380000000 1.0
C      1  0.4510080000000  0.4341830000000  0.4426800000000 1.0
C      1  0.4830930000000  0.4604820000000  0.4651950000000 1.0
C      1  0.5802880000000  0.5690170000000  0.4901690000000 1.0
C      1  0.4806820000000  0.5580450000000  0.6030790000000 1.0
C      1  0.5987670000000  0.4982890000000  0.4712990000000 1.0
C      1  0.5328940000000  0.5490630000000  0.5586550000000 1.0
C      1  0.3990380000000  0.5276700000000  0.5165250000000 1.0
C      1  0.4931550000000  0.5986540000000  0.5451260000000 1.0
C      1  0.4815940000000  0.5720780000000  0.4268960000000 1.0
C      1  0.5307950000000  0.4849170000000  0.5974340000000 1.0
C      1  0.4905670000000  0.5826920000000  0.4759570000000 1.0
C      1  0.4973940000000  0.5891440000000  0.5682720000000 1.0
C      1  0.5848280000000  0.5307340000000  0.4350200000000 1.0
C      1  0.4241560000000  0.5472870000000  0.4419150000000 1.0
C      1  0.4981950000000  0.4489230000000  0.5445560000000 1.0
C      1  0.5083310000000  0.6066840000000  0.4762190000000 1.0
C      1  0.5212210000000  0.4006790000000  0.4176550000000 1.0
END
