TITL C-883728-9229-338 85.0535633358476 125000 -25481.568717729 0 0 173 (C1) n - 1
REM
REM in /home/nfs/bkarasulu/CARBON/AIRSS/Generating-Clusters/ReaxFF-fromJPCA2015/Units_Real/with-SteepDescent/Only-C1/SD-CG/Try1-3A/FIRE-CG
REM
REM
REM
REM
REM
REM ./C.cell (11c1c37f851c82e70ff6c80c92926a4b)
REM
REM compiler GCC version 9.2.1 20190827 (Red Hat 9.2.1-1)
REM options -cpp -mtune=generic -march=x86-64 -g -O0 -fpre-include=/usr/include/finclude/math-vector-fortran.h
REM seed 1059503358 -778375006 353226547 1612073519 1293616643 1445929544 -930015953 -1678626204 765129182 366781098 723542021 765540294 -1067765600 -1523637210 452911132 1463478833 618705732 822318582 -258400071 -966691754 -1715556902 -522591700 -314662518 -744632084 -1893063184 -1068187007 -853291232 1183482849 -1620567690 -1421828509 -279667119 543308448 1406713547
REM
CELL 1.54180   50.00000   50.00000   50.00000   90.00000   90.00000   90.00000
LATT -1
SFAC C  
C      1  0.4396970000000  0.4680000000000  0.4361660000000 1.0
C      1  0.6016110000000  0.5002270000000  0.4805010000000 1.0
C      1  0.5515270000000  0.5500070000000  0.4206800000000 1.0
C      1  0.4996520000000  0.5324990000000  0.4716360000000 1.0
C      1  0.4774150000000  0.4371850000000  0.5368580000000 1.0
C      1  0.4074200000000  0.4637550000000  0.4701170000000 1.0
C      1  0.4819980000000  0.5821720000000  0.5427510000000 1.0
C      1  0.5622090000000  0.4225080000000  0.4623610000000 1.0
C      1  0.4926290000000  0.4534270000000  0.4631000000000 1.0
C      1  0.4790420000000  0.4956270000000  0.6098320000000 1.0
C      1  0.4323270000000  0.5547430000000  0.4639250000000 1.0
C      1  0.4690740000000  0.3980910000000  0.5147710000000 1.0
C      1  0.4144360000000  0.5095740000000  0.4403130000000 1.0
C      1  0.4344310000000  0.4366620000000  0.5608880000000 1.0
C      1  0.4820580000000  0.5987290000000  0.4942060000000 1.0
C      1  0.5323960000000  0.4141410000000  0.4774510000000 1.0
C      1  0.4661920000000  0.5902600000000  0.5176630000000 1.0
C      1  0.6002790000000  0.5513220000000  0.5260260000000 1.0
C      1  0.5938170000000  0.4967640000000  0.5100400000000 1.0
C      1  0.4523610000000  0.5755540000000  0.4564070000000 1.0
C      1  0.5642560000000  0.5602040000000  0.4460020000000 1.0
C      1  0.5204180000000  0.5219710000000  0.5102040000000 1.0
C      1  0.4936430000000  0.4122490000000  0.5329020000000 1.0
C      1  0.3959840000000  0.5077630000000  0.5468180000000 1.0
C      1  0.3894830000000  0.4837380000000  0.5297510000000 1.0
C      1  0.4781140000000  0.5766670000000  0.4107220000000 1.0
C      1  0.4934120000000  0.4614340000000  0.5559870000000 1.0
C      1  0.5074730000000  0.6066670000000  0.5069690000000 1.0
C      1  0.5050490000000  0.4002490000000  0.4725940000000 1.0
C      1  0.5642610000000  0.4999570000000  0.5044870000000 1.0
C      1  0.4606750000000  0.5154070000000  0.4316100000000 1.0
C      1  0.5942010000000  0.4751780000000  0.4664700000000 1.0
C      1  0.5242550000000  0.4899930000000  0.4505520000000 1.0
C      1  0.5025300000000  0.4238430000000  0.4263080000000 1.0
C      1  0.4751740000000  0.5044200000000  0.5598540000000 1.0
C      1  0.5444190000000  0.4827970000000  0.3919830000000 1.0
C      1  0.4182820000000  0.4975680000000  0.5034810000000 1.0
C      1  0.5098530000000  0.4880090000000  0.6088280000000 1.0
C      1  0.5687310000000  0.4880400000000  0.4607020000000 1.0
C      1  0.4589910000000  0.4622940000000  0.5876900000000 1.0
C      1  0.4337120000000  0.4151860000000  0.4885270000000 1.0
C      1  0.5120990000000  0.4022460000000  0.5574430000000 1.0
C      1  0.5247430000000  0.5923750000000  0.5599240000000 1.0
C      1  0.5333540000000  0.5549730000000  0.6001910000000 1.0
C      1  0.4628620000000  0.5100150000000  0.4074190000000 1.0
C      1  0.5942460000000  0.4663550000000  0.5113030000000 1.0
C      1  0.4536900000000  0.5734360000000  0.4276070000000 1.0
C      1  0.4292390000000  0.4412360000000  0.4432930000000 1.0
C      1  0.5042820000000  0.4439480000000  0.5835100000000 1.0
C      1  0.4702360000000  0.4806630000000  0.4004810000000 1.0
C      1  0.5179110000000  0.4263560000000  0.5195130000000 1.0
C      1  0.5357390000000  0.4605760000000  0.4909690000000 1.0
C      1  0.4913970000000  0.5343680000000  0.5223400000000 1.0
C      1  0.5035560000000  0.5542270000000  0.5400190000000 1.0
C      1  0.4562180000000  0.4855520000000  0.4623920000000 1.0
C      1  0.4423080000000  0.5912330000000  0.5305610000000 1.0
C      1  0.5572830000000  0.5419620000000  0.5887550000000 1.0
C      1  0.5720080000000  0.5410180000000  0.4670230000000 1.0
C      1  0.4257140000000  0.4655550000000  0.5637440000000 1.0
C      1  0.4849640000000  0.5658860000000  0.5895590000000 1.0
C      1  0.3997270000000  0.4909070000000  0.4603810000000 1.0
C      1  0.5933680000000  0.5400420000000  0.5510870000000 1.0
C      1  0.5798580000000  0.4169080000000  0.4993920000000 1.0
C      1  0.5925450000000  0.5131880000000  0.5407250000000 1.0
C      1  0.5113640000000  0.5195960000000  0.4035270000000 1.0
C      1  0.5833380000000  0.5144800000000  0.4635560000000 1.0
C      1  0.4963510000000  0.4905360000000  0.5179960000000 1.0
C      1  0.4388070000000  0.5502260000000  0.4186910000000 1.0
C      1  0.5592030000000  0.5225940000000  0.4171660000000 1.0
C      1  0.5190060000000  0.5422960000000  0.4898450000000 1.0
C      1  0.5606540000000  0.5912940000000  0.5262520000000 1.0
C      1  0.4488250000000  0.4239080000000  0.4323140000000 1.0
C      1  0.4657460000000  0.4136840000000  0.4546200000000 1.0
C      1  0.4872830000000  0.4699560000000  0.5093790000000 1.0
C      1  0.5159360000000  0.5377500000000  0.6149360000000 1.0
C      1  0.4067090000000  0.5229370000000  0.4938480000000 1.0
C      1  0.4261510000000  0.4881990000000  0.4291430000000 1.0
C      1  0.5145320000000  0.4966740000000  0.4991490000000 1.0
C      1  0.5030130000000  0.5105570000000  0.5653990000000 1.0
C      1  0.4866500000000  0.5445900000000  0.6104330000000 1.0
C      1  0.4397240000000  0.4063200000000  0.5148310000000 1.0
C      1  0.5091610000000  0.5466560000000  0.3910790000000 1.0
C      1  0.5051350000000  0.4984510000000  0.4709690000000 1.0
C      1  0.5544970000000  0.5408000000000  0.5184200000000 1.0
C      1  0.4722290000000  0.4372060000000  0.4787030000000 1.0
C      1  0.5386120000000  0.4101810000000  0.5073820000000 1.0
C      1  0.5245570000000  0.5694390000000  0.4911860000000 1.0
C      1  0.4217330000000  0.5146170000000  0.5590180000000 1.0
C      1  0.5479940000000  0.4641090000000  0.5839840000000 1.0
C      1  0.5586690000000  0.6000980000000  0.4812350000000 1.0
C      1  0.5606880000000  0.4802430000000  0.5394860000000 1.0
C      1  0.4400040000000  0.5633260000000  0.5618450000000 1.0
C      1  0.5623290000000  0.4380540000000  0.4380800000000 1.0
C      1  0.5524170000000  0.4832220000000  0.4848520000000 1.0
C      1  0.4218540000000  0.5870360000000  0.5500220000000 1.0
C      1  0.5359620000000  0.5797260000000  0.5157900000000 1.0
C      1  0.5134300000000  0.5450570000000  0.4499440000000 1.0
C      1  0.4804210000000  0.3935750000000  0.4890480000000 1.0
C      1  0.4651380000000  0.5386420000000  0.5035490000000 1.0
C      1  0.5719520000000  0.5486990000000  0.4957990000000 1.0
C      1  0.4801880000000  0.5547050000000  0.3921600000000 1.0
C      1  0.5625120000000  0.4900680000000  0.5819320000000 1.0
C      1  0.4839180000000  0.4794690000000  0.4663190000000 1.0
C      1  0.5939950000000  0.5677410000000  0.5038150000000 1.0
C      1  0.5617530000000  0.4932300000000  0.4157440000000 1.0
C      1  0.5103490000000  0.5293610000000  0.4293740000000 1.0
C      1  0.4629660000000  0.4303070000000  0.5621420000000 1.0
C      1  0.4331010000000  0.4911800000000  0.5758010000000 1.0
C      1  0.4766750000000  0.5095930000000  0.5300480000000 1.0
C      1  0.4513110000000  0.4880120000000  0.5998390000000 1.0
C      1  0.5246140000000  0.5750420000000  0.4607840000000 1.0
C      1  0.5250800000000  0.4227060000000  0.5721010000000 1.0
C      1  0.3915440000000  0.4853350000000  0.5005760000000 1.0
C      1  0.5273480000000  0.5108420000000  0.6110950000000 1.0
C      1  0.5331560000000  0.4734530000000  0.5391220000000 1.0
C      1  0.4711560000000  0.5339690000000  0.4768870000000 1.0
C      1  0.5136610000000  0.5649600000000  0.5796370000000 1.0
C      1  0.4613720000000  0.4332200000000  0.4085740000000 1.0
C      1  0.5120780000000  0.4839990000000  0.5543280000000 1.0
C      1  0.5765150000000  0.4960290000000  0.5566580000000 1.0
C      1  0.4335630000000  0.5402450000000  0.5447940000000 1.0
C      1  0.4956400000000  0.4720720000000  0.4103340000000 1.0
C      1  0.4752720000000  0.4380230000000  0.5873230000000 1.0
C      1  0.5318370000000  0.6105520000000  0.4909470000000 1.0
C      1  0.4641650000000  0.4373790000000  0.5053360000000 1.0
C      1  0.4375750000000  0.5469780000000  0.5164990000000 1.0
C      1  0.5005850000000  0.5894450000000  0.4494370000000 1.0
C      1  0.5253620000000  0.4545890000000  0.5176200000000 1.0
C      1  0.5637770000000  0.4143130000000  0.5222770000000 1.0
C      1  0.5048030000000  0.5806300000000  0.4220430000000 1.0
C      1  0.5161450000000  0.4893920000000  0.3968830000000 1.0
C      1  0.4957720000000  0.4526930000000  0.4331620000000 1.0
C      1  0.5218890000000  0.4649670000000  0.5973330000000 1.0
C      1  0.4887040000000  0.4247600000000  0.4054200000000 1.0
C      1  0.4565860000000  0.5108890000000  0.5073050000000 1.0
C      1  0.4196480000000  0.4383660000000  0.4705010000000 1.0
C      1  0.5245820000000  0.4430720000000  0.4701300000000 1.0
C      1  0.4931070000000  0.4063040000000  0.4487680000000 1.0
C      1  0.5261720000000  0.4290650000000  0.4204170000000 1.0
C      1  0.4510840000000  0.4615510000000  0.4103180000000 1.0
C      1  0.4769710000000  0.5891320000000  0.4668290000000 1.0
C      1  0.4451260000000  0.4874470000000  0.4936170000000 1.0
C      1  0.4248870000000  0.5382220000000  0.4412350000000 1.0
C      1  0.5708010000000  0.5546000000000  0.5665610000000 1.0
C      1  0.4225190000000  0.5475970000000  0.4916300000000 1.0
C      1  0.5570770000000  0.5767820000000  0.5524410000000 1.0
C      1  0.4614160000000  0.4642820000000  0.5070170000000 1.0
C      1  0.5790840000000  0.4637990000000  0.4339150000000 1.0
C      1  0.5064710000000  0.6003580000000  0.5383870000000 1.0
C      1  0.5536240000000  0.5845970000000  0.4570880000000 1.0
C      1  0.5392860000000  0.4802640000000  0.4337260000000 1.0
C      1  0.5835570000000  0.4271130000000  0.4784940000000 1.0
C      1  0.5377020000000  0.5587270000000  0.5344040000000 1.0
C      1  0.5474010000000  0.5139480000000  0.5228580000000 1.0
C      1  0.5666720000000  0.4342770000000  0.5444270000000 1.0
C      1  0.5364120000000  0.4468060000000  0.4388330000000 1.0
C      1  0.5780440000000  0.4584750000000  0.5334390000000 1.0
C      1  0.5774790000000  0.5928120000000  0.5032390000000 1.0
C      1  0.4082720000000  0.4468340000000  0.5308160000000 1.0
C      1  0.4563430000000  0.5384860000000  0.3978630000000 1.0
C      1  0.5525810000000  0.5131590000000  0.5956800000000 1.0
C      1  0.4237360000000  0.4241720000000  0.5359810000000 1.0
C      1  0.4670060000000  0.5724610000000  0.5686180000000 1.0
C      1  0.5500140000000  0.4393290000000  0.5677030000000 1.0
C      1  0.5112940000000  0.5385710000000  0.5629760000000 1.0
C      1  0.4703000000000  0.4766370000000  0.5648290000000 1.0
C      1  0.4534460000000  0.3978160000000  0.4765860000000 1.0
C      1  0.4731410000000  0.5204780000000  0.6091190000000 1.0
C      1  0.4580630000000  0.5157870000000  0.4575060000000 1.0
C      1  0.5257330000000  0.5630150000000  0.4091080000000 1.0
C      1  0.4153050000000  0.4726410000000  0.5373320000000 1.0
C      1  0.3855210000000  0.5068970000000  0.4809800000000 1.0
C      1  0.5942440000000  0.4533360000000  0.4857360000000 1.0
END
