TITL C-884139-6216-35 -22021.0794051026 125000 -12309.3978873162 0 0 83 (C1) n - 1
REM
REM in /home/nfs/bkarasulu/CARBON/AIRSS/Generating-Clusters/ReaxFF-fromJPCA2015/Units_Real/with-SteepDescent/Only-C1/SD-CG/Try1-3A/FIRE-CG
REM
REM
REM
REM
REM
REM ./C.cell (11c1c37f851c82e70ff6c80c92926a4b)
REM
REM compiler GCC version 9.2.1 20190827 (Red Hat 9.2.1-1)
REM options -cpp -mtune=generic -march=x86-64 -g -O0 -fpre-include=/usr/include/finclude/math-vector-fortran.h
REM seed 2116697774 133390429 -1463997023 -1527602622 -646083268 61561874 -959252943 35759780 316126388 -2081655474 -1818616698 -1299472704 616513568 1279880235 -1168492957 1379384840 1311037569 -1492195892 1133591344 1423868751 -1232958488 524219735 -1814412394 -314861777 -534915120 1625021540 -1818192238 115152211 -268275898 1988107954 -940347359 -836191142 2147166030
REM
CELL 1.54180   50.00000   50.00000   50.00000   90.00000   90.00000   90.00000
LATT -1
SFAC C  
C      1  0.4908800000000  0.5059730000000  0.4943470000000 1.0
C      1  0.4921420000000  0.4276870000000  0.5071450000000 1.0
C      1  0.5620160000000  0.4957450000000  0.5424460000000 1.0
C      1  0.5660470000000  0.5173560000000  0.5630150000000 1.0
C      1  0.4826140000000  0.5441360000000  0.4573440000000 1.0
C      1  0.5024750000000  0.4434330000000  0.4279130000000 1.0
C      1  0.4768800000000  0.5305760000000  0.5527850000000 1.0
C      1  0.4405170000000  0.5345980000000  0.5215390000000 1.0
C      1  0.4808060000000  0.4489390000000  0.5549640000000 1.0
C      1  0.5307140000000  0.4452070000000  0.4696090000000 1.0
C      1  0.4587590000000  0.5471120000000  0.5002700000000 1.0
C      1  0.5737260000000  0.5544370000000  0.5284970000000 1.0
C      1  0.5122130000000  0.4659900000000  0.4673920000000 1.0
C      1  0.5570540000000  0.5448320000000  0.4595520000000 1.0
C      1  0.5526190000000  0.4670420000000  0.4354720000000 1.0
C      1  0.4495420000000  0.4426110000000  0.5199120000000 1.0
C      1  0.5636040000000  0.5066420000000  0.5159800000000 1.0
C      1  0.4882940000000  0.5726240000000  0.4691100000000 1.0
C      1  0.5429500000000  0.5362280000000  0.5648530000000 1.0
C      1  0.5372650000000  0.5040410000000  0.4593520000000 1.0
C      1  0.5191910000000  0.4300150000000  0.5056150000000 1.0
C      1  0.4584190000000  0.5317540000000  0.4477330000000 1.0
C      1  0.5616420000000  0.4920060000000  0.4493080000000 1.0
C      1  0.5201410000000  0.5245480000000  0.5785190000000 1.0
C      1  0.4412960000000  0.5119360000000  0.5691200000000 1.0
C      1  0.4287070000000  0.4657800000000  0.4824240000000 1.0
C      1  0.5459960000000  0.4384030000000  0.4965270000000 1.0
C      1  0.5126200000000  0.4912800000000  0.4225820000000 1.0
C      1  0.4987920000000  0.4963370000000  0.5218550000000 1.0
C      1  0.5149660000000  0.4758600000000  0.5343920000000 1.0
C      1  0.5027320000000  0.5417860000000  0.4307730000000 1.0
C      1  0.4473810000000  0.4452960000000  0.4911530000000 1.0
C      1  0.4503600000000  0.4910590000000  0.5320380000000 1.0
C      1  0.5168900000000  0.5767560000000  0.4742630000000 1.0
C      1  0.5775250000000  0.5027060000000  0.4715740000000 1.0
C      1  0.4105390000000  0.5025130000000  0.4716100000000 1.0
C      1  0.4536340000000  0.4877200000000  0.5806220000000 1.0
C      1  0.4733050000000  0.4965850000000  0.6019380000000 1.0
C      1  0.5789370000000  0.5326780000000  0.4760360000000 1.0
C      1  0.5132950000000  0.4892420000000  0.4527000000000 1.0
C      1  0.5226090000000  0.4981300000000  0.5910550000000 1.0
C      1  0.5685450000000  0.4281230000000  0.4715390000000 1.0
C      1  0.5455860000000  0.5556890000000  0.5418180000000 1.0
C      1  0.4891400000000  0.4323380000000  0.4508270000000 1.0
C      1  0.4424460000000  0.4638270000000  0.5394750000000 1.0
C      1  0.4751210000000  0.4370940000000  0.4800050000000 1.0
C      1  0.5384750000000  0.5684240000000  0.4550930000000 1.0
C      1  0.5812490000000  0.5368510000000  0.5491820000000 1.0
C      1  0.4318060000000  0.5068870000000  0.5169030000000 1.0
C      1  0.4568240000000  0.4626850000000  0.5644810000000 1.0
C      1  0.4768880000000  0.4510610000000  0.4177150000000 1.0
C      1  0.4765610000000  0.5043360000000  0.5390600000000 1.0
C      1  0.5444290000000  0.5318760000000  0.5035140000000 1.0
C      1  0.4922250000000  0.5347090000000  0.5779920000000 1.0
C      1  0.4753890000000  0.4341360000000  0.5304140000000 1.0
C      1  0.4584960000000  0.4664930000000  0.4234820000000 1.0
C      1  0.5444880000000  0.4731220000000  0.5336850000000 1.0
C      1  0.5534850000000  0.4408300000000  0.4508430000000 1.0
C      1  0.4812510000000  0.5316330000000  0.4860630000000 1.0
C      1  0.5052320000000  0.4625960000000  0.5572070000000 1.0
C      1  0.4740800000000  0.4913440000000  0.4752510000000 1.0
C      1  0.5369140000000  0.5289310000000  0.4739940000000 1.0
C      1  0.5001020000000  0.4844750000000  0.6035890000000 1.0
C      1  0.5144520000000  0.5194260000000  0.4204780000000 1.0
C      1  0.5114960000000  0.5717250000000  0.5039120000000 1.0
C      1  0.4608260000000  0.5033180000000  0.4517570000000 1.0
C      1  0.5147560000000  0.4713430000000  0.5821440000000 1.0
C      1  0.5706820000000  0.5471480000000  0.5000720000000 1.0
C      1  0.5275930000000  0.5524270000000  0.5195330000000 1.0
C      1  0.4425620000000  0.4853090000000  0.4366710000000 1.0
C      1  0.4151940000000  0.5313830000000  0.4700320000000 1.0
C      1  0.4215830000000  0.4791980000000  0.4568690000000 1.0
C      1  0.4176360000000  0.4900890000000  0.4967990000000 1.0
C      1  0.4352710000000  0.5446040000000  0.4560270000000 1.0
C      1  0.4823860000000  0.5716630000000  0.4974780000000 1.0
C      1  0.5721380000000  0.4873070000000  0.4963390000000 1.0
C      1  0.4767110000000  0.5263140000000  0.6024100000000 1.0
C      1  0.4476310000000  0.5346100000000  0.5504820000000 1.0
C      1  0.5275650000000  0.5545780000000  0.4327450000000 1.0
C      1  0.5267330000000  0.4651530000000  0.4226710000000 1.0
C      1  0.4866040000000  0.4644930000000  0.4764580000000 1.0
C      1  0.4333960000000  0.5494310000000  0.4835210000000 1.0
C      1  0.5559580000000  0.4654260000000  0.5081360000000 1.0
END
