TITL C-883727-9645-251 152.677288196655 125000 -28270.0774569856 0 0 189 (C1) n - 1
REM
REM in /home/nfs/bkarasulu/CARBON/AIRSS/Generating-Clusters/ReaxFF-fromJPCA2015/Units_Real/with-SteepDescent/Only-C1/SD-CG/Try1-3A/FIRE-CG
REM
REM
REM
REM
REM
REM ./C.cell (11c1c37f851c82e70ff6c80c92926a4b)
REM
REM compiler GCC version 9.2.1 20190827 (Red Hat 9.2.1-1)
REM options -cpp -mtune=generic -march=x86-64 -g -O0 -fpre-include=/usr/include/finclude/math-vector-fortran.h
REM seed 2057762726 709684383 -2057231330 985330390 1958220637 -932749290 1388344642 782241666 1352884603 -48230413 -1264386763 -1232479648 274492562 1646965340 383283708 347356820 -1117184544 475929037 -1761947424 860232367 217812909 -1936450160 -284760115 -118362664 1170995645 492227605 -525400699 655775411 1743663113 -721367899 220073046 1946990779 -74919273
REM
CELL 1.54180   50.00000   50.00000   50.00000   90.00000   90.00000   90.00000
LATT -1
SFAC C  
C      1  0.4741880000000  0.5618250000000  0.4821740000000 1.0
C      1  0.4881260000000  0.4304660000000  0.4735940000000 1.0
C      1  0.5059460000000  0.5258620000000  0.4015000000000 1.0
C      1  0.5250660000000  0.5942810000000  0.5259760000000 1.0
C      1  0.4681630000000  0.4897070000000  0.4560530000000 1.0
C      1  0.4948490000000  0.4202930000000  0.4188430000000 1.0
C      1  0.5041550000000  0.3967450000000  0.5128480000000 1.0
C      1  0.4096100000000  0.5086150000000  0.4622990000000 1.0
C      1  0.4077780000000  0.5413930000000  0.4604060000000 1.0
C      1  0.5904620000000  0.4770160000000  0.4948890000000 1.0
C      1  0.5116040000000  0.6004250000000  0.4695820000000 1.0
C      1  0.4689010000000  0.4343050000000  0.4121560000000 1.0
C      1  0.5721040000000  0.5499460000000  0.4256330000000 1.0
C      1  0.4768090000000  0.6020890000000  0.5443260000000 1.0
C      1  0.5411210000000  0.4536750000000  0.5130500000000 1.0
C      1  0.6126370000000  0.5134710000000  0.4915110000000 1.0
C      1  0.5486570000000  0.5226110000000  0.5315360000000 1.0
C      1  0.4616050000000  0.4904950000000  0.5535270000000 1.0
C      1  0.5208940000000  0.6068560000000  0.4979850000000 1.0
C      1  0.4820760000000  0.4715590000000  0.5608740000000 1.0
C      1  0.5328720000000  0.4848460000000  0.4441490000000 1.0
C      1  0.5420560000000  0.4958680000000  0.5434920000000 1.0
C      1  0.4628970000000  0.4394920000000  0.5325450000000 1.0
C      1  0.5071950000000  0.5663370000000  0.5168650000000 1.0
C      1  0.4414930000000  0.5282730000000  0.4024040000000 1.0
C      1  0.5465840000000  0.4027680000000  0.5348740000000 1.0
C      1  0.4461380000000  0.4549510000000  0.5961170000000 1.0
C      1  0.5707620000000  0.4601870000000  0.4283660000000 1.0
C      1  0.5533820000000  0.5635320000000  0.5818950000000 1.0
C      1  0.4547570000000  0.3974850000000  0.5025130000000 1.0
C      1  0.4700080000000  0.4667870000000  0.4371400000000 1.0
C      1  0.5958470000000  0.5148740000000  0.5534300000000 1.0
C      1  0.4606150000000  0.5300490000000  0.4216150000000 1.0
C      1  0.3961570000000  0.4599940000000  0.4781030000000 1.0
C      1  0.4436690000000  0.4879020000000  0.5308930000000 1.0
C      1  0.4836990000000  0.4885540000000  0.6046100000000 1.0
C      1  0.3906680000000  0.4925410000000  0.4804080000000 1.0
C      1  0.5172860000000  0.5560760000000  0.4918400000000 1.0
C      1  0.4660210000000  0.4406900000000  0.4868080000000 1.0
C      1  0.5453850000000  0.4382700000000  0.4281330000000 1.0
C      1  0.5301880000000  0.5039930000000  0.4655530000000 1.0
C      1  0.4476780000000  0.4616360000000  0.5201740000000 1.0
C      1  0.5094890000000  0.5468860000000  0.5381080000000 1.0
C      1  0.5010440000000  0.5094650000000  0.6156270000000 1.0
C      1  0.4743590000000  0.4143920000000  0.5768460000000 1.0
C      1  0.4467350000000  0.4831530000000  0.4750090000000 1.0
C      1  0.4271230000000  0.4281030000000  0.5546840000000 1.0
C      1  0.4950220000000  0.5726940000000  0.4188550000000 1.0
C      1  0.4807310000000  0.3905020000000  0.4961000000000 1.0
C      1  0.4077060000000  0.5551310000000  0.4829870000000 1.0
C      1  0.5433440000000  0.4488990000000  0.5868020000000 1.0
C      1  0.4385230000000  0.5679600000000  0.5676840000000 1.0
C      1  0.4791520000000  0.4024390000000  0.4651330000000 1.0
C      1  0.4341660000000  0.5085010000000  0.5120180000000 1.0
C      1  0.4253250000000  0.5506950000000  0.4389600000000 1.0
C      1  0.5450900000000  0.4750720000000  0.6004510000000 1.0
C      1  0.4619440000000  0.5482330000000  0.3997900000000 1.0
C      1  0.5780130000000  0.5147820000000  0.5775250000000 1.0
C      1  0.6070280000000  0.4643150000000  0.5518390000000 1.0
C      1  0.6032900000000  0.4354120000000  0.5375000000000 1.0
C      1  0.4484270000000  0.4203990000000  0.4985810000000 1.0
C      1  0.5573490000000  0.5654570000000  0.5534510000000 1.0
C      1  0.5331980000000  0.4841680000000  0.5173660000000 1.0
C      1  0.5380410000000  0.4319460000000  0.5342990000000 1.0
C      1  0.5935250000000  0.4601640000000  0.4471780000000 1.0
C      1  0.5610780000000  0.4783700000000  0.5570010000000 1.0
C      1  0.5538520000000  0.5796730000000  0.4723410000000 1.0
C      1  0.4644270000000  0.5356550000000  0.4880570000000 1.0
C      1  0.4595070000000  0.6099380000000  0.4718000000000 1.0
C      1  0.5137290000000  0.5444520000000  0.4465310000000 1.0
C      1  0.5133600000000  0.5909530000000  0.5583580000000 1.0
C      1  0.5669510000000  0.4883080000000  0.5830700000000 1.0
C      1  0.4037240000000  0.5522130000000  0.5293520000000 1.0
C      1  0.4142770000000  0.4976970000000  0.5754570000000 1.0
C      1  0.4192560000000  0.5675330000000  0.5463610000000 1.0
C      1  0.5048700000000  0.4908520000000  0.5244690000000 1.0
C      1  0.5163340000000  0.4801940000000  0.3934360000000 1.0
C      1  0.5984450000000  0.5375030000000  0.5354170000000 1.0
C      1  0.4536960000000  0.4637530000000  0.4931410000000 1.0
C      1  0.5878870000000  0.4452090000000  0.5600710000000 1.0
C      1  0.5803400000000  0.5163540000000  0.4651180000000 1.0
C      1  0.5229750000000  0.4582170000000  0.4448570000000 1.0
C      1  0.4475940000000  0.5415160000000  0.5582030000000 1.0
C      1  0.3917740000000  0.4510150000000  0.5300590000000 1.0
C      1  0.4308780000000  0.5040120000000  0.4838430000000 1.0
C      1  0.5851420000000  0.5756220000000  0.4715730000000 1.0
C      1  0.3982590000000  0.5021720000000  0.5497020000000 1.0
C      1  0.5547620000000  0.5948440000000  0.5195920000000 1.0
C      1  0.4587430000000  0.5267770000000  0.5789250000000 1.0
C      1  0.6108380000000  0.4913140000000  0.5104410000000 1.0
C      1  0.5248820000000  0.4931770000000  0.6117970000000 1.0
C      1  0.5993480000000  0.4885750000000  0.4410500000000 1.0
C      1  0.5390160000000  0.5297200000000  0.4025940000000 1.0
C      1  0.4836750000000  0.5997650000000  0.4586050000000 1.0
C      1  0.5841020000000  0.5653000000000  0.4459830000000 1.0
C      1  0.5155570000000  0.4414010000000  0.4719480000000 1.0
C      1  0.3923470000000  0.5069520000000  0.5040920000000 1.0
C      1  0.5018480000000  0.4202170000000  0.5824460000000 1.0
C      1  0.4551400000000  0.4206070000000  0.5524610000000 1.0
C      1  0.4711730000000  0.5510230000000  0.5970900000000 1.0
C      1  0.5371780000000  0.5454740000000  0.5442670000000 1.0
C      1  0.5567050000000  0.4494790000000  0.5600970000000 1.0
C      1  0.5863250000000  0.4278900000000  0.4863600000000 1.0
C      1  0.5641820000000  0.5293790000000  0.4457050000000 1.0
C      1  0.5409770000000  0.4014600000000  0.5629920000000 1.0
C      1  0.3904470000000  0.4737430000000  0.5503480000000 1.0
C      1  0.4481040000000  0.5334300000000  0.5114550000000 1.0
C      1  0.4800960000000  0.4514290000000  0.3918550000000 1.0
C      1  0.4803240000000  0.5738620000000  0.5074510000000 1.0
C      1  0.4154560000000  0.4377460000000  0.4771380000000 1.0
C      1  0.5563460000000  0.5062900000000  0.4061240000000 1.0
C      1  0.4085040000000  0.5700990000000  0.5056090000000 1.0
C      1  0.4906430000000  0.4821750000000  0.4766220000000 1.0
C      1  0.4389500000000  0.5040560000000  0.5890710000000 1.0
C      1  0.4471410000000  0.4488400000000  0.4295320000000 1.0
C      1  0.4455570000000  0.5721570000000  0.4428970000000 1.0
C      1  0.5099130000000  0.4210390000000  0.5278810000000 1.0
C      1  0.5293790000000  0.4222370000000  0.5834180000000 1.0
C      1  0.5003580000000  0.5558160000000  0.4710190000000 1.0
C      1  0.4884810000000  0.5200670000000  0.4920240000000 1.0
C      1  0.6069780000000  0.4910180000000  0.5403090000000 1.0
C      1  0.4216450000000  0.4218950000000  0.5022440000000 1.0
C      1  0.4333010000000  0.4312410000000  0.4536120000000 1.0
C      1  0.5446580000000  0.5000280000000  0.4934590000000 1.0
C      1  0.5392130000000  0.5323310000000  0.4595820000000 1.0
C      1  0.5761800000000  0.4875770000000  0.4205600000000 1.0
C      1  0.3952600000000  0.5216200000000  0.5278180000000 1.0
C      1  0.5796300000000  0.5778510000000  0.5193490000000 1.0
C      1  0.4853030000000  0.4931780000000  0.5033040000000 1.0
C      1  0.5264570000000  0.3940420000000  0.4466410000000 1.0
C      1  0.4050300000000  0.4691090000000  0.5752360000000 1.0
C      1  0.4544860000000  0.4841380000000  0.6017670000000 1.0
C      1  0.5244750000000  0.5715770000000  0.4288220000000 1.0
C      1  0.5303990000000  0.5248140000000  0.5816640000000 1.0
C      1  0.4273580000000  0.5916060000000  0.4922290000000 1.0
C      1  0.6077460000000  0.5084300000000  0.4615630000000 1.0
C      1  0.4378750000000  0.5909290000000  0.4639820000000 1.0
C      1  0.5579060000000  0.5346090000000  0.5856730000000 1.0
C      1  0.4770200000000  0.5133770000000  0.5612800000000 1.0
C      1  0.4897610000000  0.5260020000000  0.5384450000000 1.0
C      1  0.5713010000000  0.4967370000000  0.4843020000000 1.0
C      1  0.5212620000000  0.4325210000000  0.4110040000000 1.0
C      1  0.4750650000000  0.5149860000000  0.4396380000000 1.0
C      1  0.4728890000000  0.4804640000000  0.3874840000000 1.0
C      1  0.5282860000000  0.4475190000000  0.4924040000000 1.0
C      1  0.4480670000000  0.6105760000000  0.4993280000000 1.0
C      1  0.4207140000000  0.5268050000000  0.4216730000000 1.0
C      1  0.5098490000000  0.4510120000000  0.3921960000000 1.0
C      1  0.6042470000000  0.5380440000000  0.5063720000000 1.0
C      1  0.5946770000000  0.4538880000000  0.4764650000000 1.0
C      1  0.4902460000000  0.5526110000000  0.3991320000000 1.0
C      1  0.4311150000000  0.4769300000000  0.4214170000000 1.0
C      1  0.4181350000000  0.5002010000000  0.4333820000000 1.0
C      1  0.5509880000000  0.5265280000000  0.5039010000000 1.0
C      1  0.4688920000000  0.5981640000000  0.5180010000000 1.0
C      1  0.5002120000000  0.4670340000000  0.5397700000000 1.0
C      1  0.3890620000000  0.4591540000000  0.5035540000000 1.0
C      1  0.4857070000000  0.5941880000000  0.5689750000000 1.0
C      1  0.4740890000000  0.5812980000000  0.4375610000000 1.0
C      1  0.5937280000000  0.5640220000000  0.4977030000000 1.0
C      1  0.4656070000000  0.4357910000000  0.5917050000000 1.0
C      1  0.5120810000000  0.5477790000000  0.5868240000000 1.0
C      1  0.5457580000000  0.5552030000000  0.4129920000000 1.0
C      1  0.5327810000000  0.3910090000000  0.5090200000000 1.0
C      1  0.5430370000000  0.5478600000000  0.4851050000000 1.0
C      1  0.5499290000000  0.4136710000000  0.4457670000000 1.0
C      1  0.5031750000000  0.5071970000000  0.4705000000000 1.0
C      1  0.5848650000000  0.5625780000000  0.5428620000000 1.0
C      1  0.4915100000000  0.4416500000000  0.5294680000000 1.0
C      1  0.4648530000000  0.5739950000000  0.5811870000000 1.0
C      1  0.5002990000000  0.4832300000000  0.5799610000000 1.0
C      1  0.5490510000000  0.6032040000000  0.4924540000000 1.0
C      1  0.4242820000000  0.4472590000000  0.5773200000000 1.0
C      1  0.5217560000000  0.4999450000000  0.5695020000000 1.0
C      1  0.5944170000000  0.4308430000000  0.5119000000000 1.0
C      1  0.5437480000000  0.3981910000000  0.4844150000000 1.0
C      1  0.4639710000000  0.5402060000000  0.5344870000000 1.0
C      1  0.5004680000000  0.5234180000000  0.4309430000000 1.0
C      1  0.4499910000000  0.4086820000000  0.4557590000000 1.0
C      1  0.5319690000000  0.5879640000000  0.4534350000000 1.0
C      1  0.4125720000000  0.4303820000000  0.5292730000000 1.0
C      1  0.5255870000000  0.5741700000000  0.5788880000000 1.0
C      1  0.4951840000000  0.5389400000000  0.6080850000000 1.0
C      1  0.4955390000000  0.4985560000000  0.3883530000000 1.0
C      1  0.4441680000000  0.4844610000000  0.3966760000000 1.0
C      1  0.5631010000000  0.4110760000000  0.4718330000000 1.0
C      1  0.4981810000000  0.3999770000000  0.4399860000000 1.0
C      1  0.5340760000000  0.4905350000000  0.4159700000000 1.0
C      1  0.4952460000000  0.4611150000000  0.4389340000000 1.0
END
