TITL C-883726-8501-312 124.35737267 125000 -24642.1268323627 0 0 168 (C1) n - 1
REM
REM in /home/nfs/bkarasulu/CARBON/AIRSS/Generating-Clusters/ReaxFF-fromJPCA2015/Units_Real/with-SteepDescent/Only-C1/SD-CG/Try1-3A/FIRE-CG
REM
REM
REM
REM
REM
REM ./C.cell (11c1c37f851c82e70ff6c80c92926a4b)
REM
REM compiler GCC version 9.2.1 20190827 (Red Hat 9.2.1-1)
REM options -cpp -mtune=generic -march=x86-64 -g -O0 -fpre-include=/usr/include/finclude/math-vector-fortran.h
REM seed 566208267 1935497438 1844876648 -595422134 -1169119548 -301600535 1691686980 475023390 889106057 -747145550 1749481543 -1364994456 -408877904 -354592215 358612448 -1596065643 1141265120 -1132711978 928625613 -1288957067 349028680 1696964147 46948543 -578263844 -1559165296 -1598465527 -165492616 1147027208 -56912734 -1134074127 -377596862 -1389750230 360657635
REM
CELL 1.54180   50.00000   50.00000   50.00000   90.00000   90.00000   90.00000
LATT -1
SFAC C  
C      1  0.5040150000000  0.4931520000000  0.4620760000000 1.0
C      1  0.4668550000000  0.4549980000000  0.5939770000000 1.0
C      1  0.4306050000000  0.4399930000000  0.5636450000000 1.0
C      1  0.6027690000000  0.5251640000000  0.5481580000000 1.0
C      1  0.3993160000000  0.5046700000000  0.5018610000000 1.0
C      1  0.4624510000000  0.5363920000000  0.4274010000000 1.0
C      1  0.4850980000000  0.5336190000000  0.4800330000000 1.0
C      1  0.5559130000000  0.5191100000000  0.5273910000000 1.0
C      1  0.4861340000000  0.5576350000000  0.5233960000000 1.0
C      1  0.5462500000000  0.4685320000000  0.5392160000000 1.0
C      1  0.4982840000000  0.5992070000000  0.4963620000000 1.0
C      1  0.4817020000000  0.5987240000000  0.5531410000000 1.0
C      1  0.4071030000000  0.4316580000000  0.4863730000000 1.0
C      1  0.5571280000000  0.5030420000000  0.4129360000000 1.0
C      1  0.4820120000000  0.5760200000000  0.5734570000000 1.0
C      1  0.4585740000000  0.5430530000000  0.4765430000000 1.0
C      1  0.5515570000000  0.4560260000000  0.4133670000000 1.0
C      1  0.4081670000000  0.4326930000000  0.4570870000000 1.0
C      1  0.5803320000000  0.5451130000000  0.5523390000000 1.0
C      1  0.5327400000000  0.5522430000000  0.5024110000000 1.0
C      1  0.4405710000000  0.5013580000000  0.4162640000000 1.0
C      1  0.4957920000000  0.4912190000000  0.5617180000000 1.0
C      1  0.5926270000000  0.4616960000000  0.5203340000000 1.0
C      1  0.4908760000000  0.4685690000000  0.6003100000000 1.0
C      1  0.4744900000000  0.5741800000000  0.4151810000000 1.0
C      1  0.4570990000000  0.4646880000000  0.5297450000000 1.0
C      1  0.5693870000000  0.4975740000000  0.5078170000000 1.0
C      1  0.4858210000000  0.4969120000000  0.6007370000000 1.0
C      1  0.4738030000000  0.4436200000000  0.5109220000000 1.0
C      1  0.4522690000000  0.4935650000000  0.5221020000000 1.0
C      1  0.4709880000000  0.5492850000000  0.5669280000000 1.0
C      1  0.3903960000000  0.5034450000000  0.5721330000000 1.0
C      1  0.4381840000000  0.5316050000000  0.4940630000000 1.0
C      1  0.4520570000000  0.5288200000000  0.5792120000000 1.0
C      1  0.5116790000000  0.5236140000000  0.5396420000000 1.0
C      1  0.5220640000000  0.4184720000000  0.4284630000000 1.0
C      1  0.4135500000000  0.5614720000000  0.5215680000000 1.0
C      1  0.5163000000000  0.4872750000000  0.4374460000000 1.0
C      1  0.4842260000000  0.4848150000000  0.4934480000000 1.0
C      1  0.5275900000000  0.5247840000000  0.5130470000000 1.0
C      1  0.5150890000000  0.4074200000000  0.5640230000000 1.0
C      1  0.4980300000000  0.5587610000000  0.4188140000000 1.0
C      1  0.5469150000000  0.5480060000000  0.4773810000000 1.0
C      1  0.6139480000000  0.5141530000000  0.5227690000000 1.0
C      1  0.4442490000000  0.5878310000000  0.4804100000000 1.0
C      1  0.5414550000000  0.5717890000000  0.5363700000000 1.0
C      1  0.4917940000000  0.4058630000000  0.5460200000000 1.0
C      1  0.5242860000000  0.4950120000000  0.5697760000000 1.0
C      1  0.4659410000000  0.4769860000000  0.4734110000000 1.0
C      1  0.5492680000000  0.5309710000000  0.4231860000000 1.0
C      1  0.4026510000000  0.5235590000000  0.5522880000000 1.0
C      1  0.5962610000000  0.5465570000000  0.4788100000000 1.0
C      1  0.5896280000000  0.4944450000000  0.4589820000000 1.0
C      1  0.4514800000000  0.4106610000000  0.4587890000000 1.0
C      1  0.4718580000000  0.4273370000000  0.5819280000000 1.0
C      1  0.4403980000000  0.5030030000000  0.4981150000000 1.0
C      1  0.4051480000000  0.5307350000000  0.4838500000000 1.0
C      1  0.5699660000000  0.5654870000000  0.5350210000000 1.0
C      1  0.5193890000000  0.5141950000000  0.3998250000000 1.0
C      1  0.5601270000000  0.5331640000000  0.5702590000000 1.0
C      1  0.5486530000000  0.5784820000000  0.4330820000000 1.0
C      1  0.4253980000000  0.4136390000000  0.4715720000000 1.0
C      1  0.4593230000000  0.5022160000000  0.5902830000000 1.0
C      1  0.5475990000000  0.4321060000000  0.4301000000000 1.0
C      1  0.5306080000000  0.4657930000000  0.3954590000000 1.0
C      1  0.4719890000000  0.4011930000000  0.4791640000000 1.0
C      1  0.5256790000000  0.5685160000000  0.4212820000000 1.0
C      1  0.5327220000000  0.5880840000000  0.4571990000000 1.0
C      1  0.4114670000000  0.4552550000000  0.5031610000000 1.0
C      1  0.4619330000000  0.5186030000000  0.4045780000000 1.0
C      1  0.4510090000000  0.4744650000000  0.4095920000000 1.0
C      1  0.4390010000000  0.4249180000000  0.5419460000000 1.0
C      1  0.4700280000000  0.4839060000000  0.4472500000000 1.0
C      1  0.5409380000000  0.4324040000000  0.4798280000000 1.0
C      1  0.4891280000000  0.4914980000000  0.4269170000000 1.0
C      1  0.4596410000000  0.5696450000000  0.4643060000000 1.0
C      1  0.5124040000000  0.4484050000000  0.5858160000000 1.0
C      1  0.5827310000000  0.4467040000000  0.4675090000000 1.0
C      1  0.5012220000000  0.4968290000000  0.5353220000000 1.0
C      1  0.5258640000000  0.5825170000000  0.5580640000000 1.0
C      1  0.5151690000000  0.4480600000000  0.4835710000000 1.0
C      1  0.5456770000000  0.4089330000000  0.4962630000000 1.0
C      1  0.4275720000000  0.5357720000000  0.5658680000000 1.0
C      1  0.5930020000000  0.5090620000000  0.5688170000000 1.0
C      1  0.5416550000000  0.4426460000000  0.5781680000000 1.0
C      1  0.5874030000000  0.4679170000000  0.4456590000000 1.0
C      1  0.4466730000000  0.4755320000000  0.5870980000000 1.0
C      1  0.5700630000000  0.5794660000000  0.5088730000000 1.0
C      1  0.5013370000000  0.4350170000000  0.4159890000000 1.0
C      1  0.5698910000000  0.5094320000000  0.5841130000000 1.0
C      1  0.5449380000000  0.4906360000000  0.5902000000000 1.0
C      1  0.5000580000000  0.4203870000000  0.5855270000000 1.0
C      1  0.4793180000000  0.4685100000000  0.5538120000000 1.0
C      1  0.5173210000000  0.4658770000000  0.5334290000000 1.0
C      1  0.4036660000000  0.5586120000000  0.4940590000000 1.0
C      1  0.4659550000000  0.4229270000000  0.4947520000000 1.0
C      1  0.5058510000000  0.4127590000000  0.5212070000000 1.0
C      1  0.4237190000000  0.4664430000000  0.5709880000000 1.0
C      1  0.5055640000000  0.5660840000000  0.5043830000000 1.0
C      1  0.4179600000000  0.5810450000000  0.5458600000000 1.0
C      1  0.4338430000000  0.5621220000000  0.5609640000000 1.0
C      1  0.5842450000000  0.4419150000000  0.4965470000000 1.0
C      1  0.5084090000000  0.4093410000000  0.4534120000000 1.0
C      1  0.5026930000000  0.4574950000000  0.3974590000000 1.0
C      1  0.4136120000000  0.5305630000000  0.4533090000000 1.0
C      1  0.4186730000000  0.5747030000000  0.4740600000000 1.0
C      1  0.4037200000000  0.5031990000000  0.5312020000000 1.0
C      1  0.5080660000000  0.5994110000000  0.4684860000000 1.0
C      1  0.5384660000000  0.5019610000000  0.4480650000000 1.0
C      1  0.5369170000000  0.5184130000000  0.5568750000000 1.0
C      1  0.5104530000000  0.6014380000000  0.5439330000000 1.0
C      1  0.4409660000000  0.4871140000000  0.4746750000000 1.0
C      1  0.6071260000000  0.5249490000000  0.4959770000000 1.0
C      1  0.5683300000000  0.4217620000000  0.5109470000000 1.0
C      1  0.5443330000000  0.5917200000000  0.5161390000000 1.0
C      1  0.4912040000000  0.5150870000000  0.3942570000000 1.0
C      1  0.5399340000000  0.5312250000000  0.4522790000000 1.0
C      1  0.5660300000000  0.5541990000000  0.4301160000000 1.0
C      1  0.6000640000000  0.5192310000000  0.4409420000000 1.0
C      1  0.5013870000000  0.3939920000000  0.4771270000000 1.0
C      1  0.5423990000000  0.4203360000000  0.5604040000000 1.0
C      1  0.5960460000000  0.4987590000000  0.4904100000000 1.0
C      1  0.5599130000000  0.4612720000000  0.5645530000000 1.0
C      1  0.5595030000000  0.4913550000000  0.4628600000000 1.0
C      1  0.4492390000000  0.5628840000000  0.4358900000000 1.0
C      1  0.5082730000000  0.5717740000000  0.4599710000000 1.0
C      1  0.5070270000000  0.5196800000000  0.6056160000000 1.0
C      1  0.4159210000000  0.4827410000000  0.4582590000000 1.0
C      1  0.4902230000000  0.5307980000000  0.4330030000000 1.0
C      1  0.6094320000000  0.4871710000000  0.5132810000000 1.0
C      1  0.4220400000000  0.5582360000000  0.4490680000000 1.0
C      1  0.5810990000000  0.4476490000000  0.5482520000000 1.0
C      1  0.5191710000000  0.3965810000000  0.5007670000000 1.0
C      1  0.4998770000000  0.5558380000000  0.4805430000000 1.0
C      1  0.4832760000000  0.4418580000000  0.4384650000000 1.0
C      1  0.5084990000000  0.5449730000000  0.5931230000000 1.0
C      1  0.4616970000000  0.5674050000000  0.5178600000000 1.0
C      1  0.5025420000000  0.4521170000000  0.5553570000000 1.0
C      1  0.4801300000000  0.4987740000000  0.5168380000000 1.0
C      1  0.4970760000000  0.4346410000000  0.4634060000000 1.0
C      1  0.4563080000000  0.4311710000000  0.4374620000000 1.0
C      1  0.5905420000000  0.5444670000000  0.4490770000000 1.0
C      1  0.5322310000000  0.5045890000000  0.6131150000000 1.0
C      1  0.5675530000000  0.4743500000000  0.5219910000000 1.0
C      1  0.5272260000000  0.5001450000000  0.4973180000000 1.0
C      1  0.5038980000000  0.4422650000000  0.5128640000000 1.0
C      1  0.4324640000000  0.4480760000000  0.5234910000000 1.0
C      1  0.4168770000000  0.4565510000000  0.4428720000000 1.0
C      1  0.4392480000000  0.5497070000000  0.5176320000000 1.0
C      1  0.5724780000000  0.5621800000000  0.4847800000000 1.0
C      1  0.5651790000000  0.4245160000000  0.5410240000000 1.0
C      1  0.4391870000000  0.4516780000000  0.4252520000000 1.0
C      1  0.4956310000000  0.5191840000000  0.4583000000000 1.0
C      1  0.5095880000000  0.4820720000000  0.4857870000000 1.0
C      1  0.5686400000000  0.4769600000000  0.4244220000000 1.0
C      1  0.5517490000000  0.4949150000000  0.4879700000000 1.0
C      1  0.5595780000000  0.4325400000000  0.4569080000000 1.0
C      1  0.5188930000000  0.6058300000000  0.5163020000000 1.0
C      1  0.4640820000000  0.5944770000000  0.5044910000000 1.0
C      1  0.5382930000000  0.4944250000000  0.3928470000000 1.0
C      1  0.4035770000000  0.4801390000000  0.4892640000000 1.0
C      1  0.4649950000000  0.4172570000000  0.5556810000000 1.0
C      1  0.4623960000000  0.6066100000000  0.5328010000000 1.0
C      1  0.4217360000000  0.5068700000000  0.4390600000000 1.0
C      1  0.4886540000000  0.5411630000000  0.5441550000000 1.0
C      1  0.4025950000000  0.4824190000000  0.5543100000000 1.0
C      1  0.4798510000000  0.4760360000000  0.4022860000000 1.0
C      1  0.5099110000000  0.5704900000000  0.5804900000000 1.0
END
