TITL C-883741-3679-331 -7.61966224368478 125000 -7935.8654820533 0 0 54 (C1) n - 1
REM
REM in /home/nfs/bkarasulu/CARBON/AIRSS/Generating-Clusters/ReaxFF-fromJPCA2015/Units_Real/with-SteepDescent/Only-C1/SD-CG/Try1-3A/FIRE-CG
REM
REM
REM
REM
REM
REM ./C.cell (11c1c37f851c82e70ff6c80c92926a4b)
REM
REM compiler GCC version 9.2.1 20190827 (Red Hat 9.2.1-1)
REM options -cpp -mtune=generic -march=x86-64 -g -O0 -fpre-include=/usr/include/finclude/math-vector-fortran.h
REM seed -685369739 1874827433 -59041432 -1815749280 -400259592 911788776 -1804569786 -1267064575 154483217 8583827 296532345 175128275 -983935295 70382328 -2070445714 2002178580 216535162 1503454975 331862304 2001506717 -1351213418 -866647620 1431199987 512428025 -2054476632 582641691 -390518031 1375068188 -257516277 1964352500 -341960061 1396623718 311269948
REM
CELL 1.54180   50.00000   50.00000   50.00000   90.00000   90.00000   90.00000
LATT -1
SFAC C  
C      1  0.5095040000000  0.4418820000000  0.5285210000000 1.0
C      1  0.5119410000000  0.5125980000000  0.4883920000000 1.0
C      1  0.4944800000000  0.4340420000000  0.5020190000000 1.0
C      1  0.5592590000000  0.4576210000000  0.5252380000000 1.0
C      1  0.5207680000000  0.4920600000000  0.5237980000000 1.0
C      1  0.5581050000000  0.5276620000000  0.5174630000000 1.0
C      1  0.5228130000000  0.5266380000000  0.4396440000000 1.0
C      1  0.4939500000000  0.5199750000000  0.4374920000000 1.0
C      1  0.4484420000000  0.4978900000000  0.5602900000000 1.0
C      1  0.5219950000000  0.5417830000000  0.5342950000000 1.0
C      1  0.5002870000000  0.4967870000000  0.5065600000000 1.0
C      1  0.5370970000000  0.5029680000000  0.4458350000000 1.0
C      1  0.5370300000000  0.5005580000000  0.4764380000000 1.0
C      1  0.5351910000000  0.4558160000000  0.4510480000000 1.0
C      1  0.4991560000000  0.5728950000000  0.4878070000000 1.0
C      1  0.5275040000000  0.4780920000000  0.4333410000000 1.0
C      1  0.4694120000000  0.4401240000000  0.5175050000000 1.0
C      1  0.4844550000000  0.5667300000000  0.5091190000000 1.0
C      1  0.4416020000000  0.5326710000000  0.4288260000000 1.0
C      1  0.4434290000000  0.5181860000000  0.5416330000000 1.0
C      1  0.4538630000000  0.5482710000000  0.4521380000000 1.0
C      1  0.4997840000000  0.4634020000000  0.5721430000000 1.0
C      1  0.4812850000000  0.4937060000000  0.4441270000000 1.0
C      1  0.5730160000000  0.4865740000000  0.4985950000000 1.0
C      1  0.5647280000000  0.4605450000000  0.4940700000000 1.0
C      1  0.4987500000000  0.4718510000000  0.4363970000000 1.0
C      1  0.4693280000000  0.5143860000000  0.5724730000000 1.0
C      1  0.5264160000000  0.4680260000000  0.5686120000000 1.0
C      1  0.4841310000000  0.5303300000000  0.5647240000000 1.0
C      1  0.5781150000000  0.4546870000000  0.5421770000000 1.0
C      1  0.4562850000000  0.4932690000000  0.4601810000000 1.0
C      1  0.4727620000000  0.4888490000000  0.5108760000000 1.0
C      1  0.4745310000000  0.4556280000000  0.5632470000000 1.0
C      1  0.5352150000000  0.5162450000000  0.5336720000000 1.0
C      1  0.4466390000000  0.5368140000000  0.5218620000000 1.0
C      1  0.5024860000000  0.5398610000000  0.4766240000000 1.0
C      1  0.5281590000000  0.5468000000000  0.4614660000000 1.0
C      1  0.5002160000000  0.4398400000000  0.4762830000000 1.0
C      1  0.4823660000000  0.5406200000000  0.4538810000000 1.0
C      1  0.4526250000000  0.4949630000000  0.4898450000000 1.0
C      1  0.5424990000000  0.5528090000000  0.5140090000000 1.0
C      1  0.4579230000000  0.4731780000000  0.5462680000000 1.0
C      1  0.5627660000000  0.5118920000000  0.4928430000000 1.0
C      1  0.4418580000000  0.5219680000000  0.4959080000000 1.0
C      1  0.4346910000000  0.5332950000000  0.4704120000000 1.0
C      1  0.5277660000000  0.4643010000000  0.5350810000000 1.0
C      1  0.5059780000000  0.4456650000000  0.4504330000000 1.0
C      1  0.4350270000000  0.5112200000000  0.4499850000000 1.0
C      1  0.5426170000000  0.5483650000000  0.4856530000000 1.0
C      1  0.4843670000000  0.4370290000000  0.5423410000000 1.0
C      1  0.4576560000000  0.4664070000000  0.5185050000000 1.0
C      1  0.5438850000000  0.4685480000000  0.4755410000000 1.0
C      1  0.4708520000000  0.5553140000000  0.5287930000000 1.0
C      1  0.4949950000000  0.5483660000000  0.5455720000000 1.0
END
