TITL C-884135-4325-228 -4.82310214297552 125000 -8438.51819538143 0 0 57 (C1) n - 1
REM
REM in /home/nfs/bkarasulu/CARBON/AIRSS/Generating-Clusters/ReaxFF-fromJPCA2015/Units_Real/with-SteepDescent/Only-C1/SD-CG/Try1-3A/FIRE-CG
REM
REM
REM
REM
REM
REM ./C.cell (11c1c37f851c82e70ff6c80c92926a4b)
REM
REM compiler GCC version 9.2.1 20190827 (Red Hat 9.2.1-1)
REM options -cpp -mtune=generic -march=x86-64 -g -O0 -fpre-include=/usr/include/finclude/math-vector-fortran.h
REM seed 570404656 -1376674590 413618461 -1098903745 776560925 1351123350 1500653633 -158599949 -1530745655 -346481561 1020823829 935939411 689107907 147436931 1923452366 447649679 1142679328 -2012596934 1179570388 -2027814410 -1946252033 -406253982 -2007726319 2113602108 -1619246912 1090762548 -1073156442 921437962 1050845822 1327529187 83497614 -282279558 1569190683
REM
CELL 1.54180   50.00000   50.00000   50.00000   90.00000   90.00000   90.00000
LATT -1
SFAC C  
C      1  0.5252650000000  0.5732280000000  0.4791220000000 1.0
C      1  0.4119330000000  0.4940590000000  0.4973300000000 1.0
C      1  0.4932440000000  0.5527920000000  0.5245740000000 1.0
C      1  0.5360830000000  0.4950210000000  0.4454480000000 1.0
C      1  0.4507150000000  0.5503410000000  0.5009310000000 1.0
C      1  0.4733880000000  0.5405980000000  0.4529330000000 1.0
C      1  0.5317920000000  0.5105080000000  0.5015520000000 1.0
C      1  0.4734340000000  0.4807130000000  0.5604230000000 1.0
C      1  0.4877830000000  0.5245740000000  0.5371720000000 1.0
C      1  0.5638020000000  0.4760120000000  0.5467190000000 1.0
C      1  0.5515270000000  0.4616100000000  0.4782050000000 1.0
C      1  0.4458010000000  0.4612810000000  0.4751960000000 1.0
C      1  0.5073220000000  0.4569380000000  0.4507160000000 1.0
C      1  0.5092030000000  0.4921520000000  0.5058040000000 1.0
C      1  0.5592320000000  0.5075320000000  0.4576490000000 1.0
C      1  0.5680700000000  0.5394800000000  0.5216880000000 1.0
C      1  0.5097500000000  0.5117290000000  0.5581810000000 1.0
C      1  0.5388380000000  0.4509290000000  0.5059040000000 1.0
C      1  0.5728530000000  0.5044390000000  0.5529740000000 1.0
C      1  0.4857880000000  0.5000950000000  0.5193960000000 1.0
C      1  0.4412460000000  0.5305200000000  0.5219680000000 1.0
C      1  0.5212030000000  0.5325350000000  0.4875140000000 1.0
C      1  0.5351590000000  0.4664260000000  0.4546870000000 1.0
C      1  0.5769530000000  0.4925830000000  0.5271760000000 1.0
C      1  0.5191200000000  0.4259270000000  0.5139710000000 1.0
C      1  0.4998670000000  0.4402140000000  0.5306500000000 1.0
C      1  0.4744270000000  0.4494550000000  0.5181150000000 1.0
C      1  0.5132580000000  0.4637670000000  0.4972250000000 1.0
C      1  0.5632670000000  0.5344870000000  0.4684710000000 1.0
C      1  0.4262750000000  0.5055070000000  0.5190430000000 1.0
C      1  0.4674960000000  0.5630450000000  0.5198710000000 1.0
C      1  0.5628000000000  0.5030250000000  0.5017250000000 1.0
C      1  0.4678200000000  0.4775430000000  0.5296260000000 1.0
C      1  0.5377390000000  0.5500050000000  0.4684320000000 1.0
C      1  0.5002090000000  0.5541750000000  0.4954140000000 1.0
C      1  0.4960740000000  0.4761800000000  0.4319060000000 1.0
C      1  0.4727510000000  0.5486410000000  0.4810930000000 1.0
C      1  0.5021670000000  0.4831750000000  0.5625070000000 1.0
C      1  0.5152130000000  0.4609410000000  0.5481340000000 1.0
C      1  0.4578240000000  0.5255740000000  0.5455220000000 1.0
C      1  0.5602690000000  0.5316190000000  0.5485550000000 1.0
C      1  0.5742430000000  0.5328280000000  0.4957220000000 1.0
C      1  0.4192660000000  0.4744460000000  0.4792560000000 1.0
C      1  0.4463200000000  0.5323180000000  0.4523260000000 1.0
C      1  0.5406420000000  0.4623930000000  0.5357110000000 1.0
C      1  0.4698990000000  0.4479260000000  0.4900960000000 1.0
C      1  0.4692250000000  0.4892630000000  0.4367090000000 1.0
C      1  0.4285550000000  0.5187440000000  0.4592990000000 1.0
C      1  0.4523020000000  0.5011230000000  0.5605210000000 1.0
C      1  0.4959360000000  0.4507480000000  0.4772210000000 1.0
C      1  0.4385570000000  0.4879870000000  0.5384380000000 1.0
C      1  0.5667350000000  0.4857060000000  0.4765910000000 1.0
C      1  0.5098280000000  0.5023410000000  0.4339720000000 1.0
C      1  0.4104700000000  0.5009540000000  0.4700230000000 1.0
C      1  0.4525430000000  0.4769430000000  0.4554160000000 1.0
C      1  0.5341240000000  0.5213310000000  0.5535430000000 1.0
C      1  0.4843980000000  0.5155730000000  0.4416340000000 1.0
END
