TITL C-883734-4173-382 0.0131460251339268 125000 -13108.5979914652 0 0 87 (C1) n - 1
REM
REM in /home/nfs/bkarasulu/CARBON/AIRSS/Generating-Clusters/ReaxFF-fromJPCA2015/Units_Real/with-SteepDescent/Only-C1/SD-CG/Try1-3A/FIRE-CG
REM
REM
REM
REM
REM
REM ./C.cell (11c1c37f851c82e70ff6c80c92926a4b)
REM
REM compiler GCC version 9.2.1 20190827 (Red Hat 9.2.1-1)
REM options -cpp -mtune=generic -march=x86-64 -g -O0 -fpre-include=/usr/include/finclude/math-vector-fortran.h
REM seed 143589461 71914121 1506462484 -915583148 78852710 -1303630173 370966597 1010295285 685634831 -2044381240 -619708738 -1372105125 35680173 1060890366 -1025867017 1797669053 1565909545 798717331 -950305895 694277880 -1669659097 -1850432474 839949971 330514573 1732071741 -856257273 -405717342 654221949 816900593 -1791924143 -1347196516 1120385442 1415020983
REM
CELL 1.54180   50.00000   50.00000   50.00000   90.00000   90.00000   90.00000
LATT -1
SFAC C  
C      1  0.5011980000000  0.5731260000000  0.5621740000000 1.0
C      1  0.5209830000000  0.4418270000000  0.5655880000000 1.0
C      1  0.4793630000000  0.4323580000000  0.4913210000000 1.0
C      1  0.5564330000000  0.5474110000000  0.4607120000000 1.0
C      1  0.4891590000000  0.5162560000000  0.4267210000000 1.0
C      1  0.4276070000000  0.5208330000000  0.5115180000000 1.0
C      1  0.4549290000000  0.4607380000000  0.4362020000000 1.0
C      1  0.4994610000000  0.4441000000000  0.4325750000000 1.0
C      1  0.4297380000000  0.5268250000000  0.4603730000000 1.0
C      1  0.5257790000000  0.4894860000000  0.4115610000000 1.0
C      1  0.5381080000000  0.4882650000000  0.5569150000000 1.0
C      1  0.4887940000000  0.5450480000000  0.4961590000000 1.0
C      1  0.4304040000000  0.5066080000000  0.5379490000000 1.0
C      1  0.4712450000000  0.5025160000000  0.4964520000000 1.0
C      1  0.5313040000000  0.5602290000000  0.4680770000000 1.0
C      1  0.4611040000000  0.5577360000000  0.4951960000000 1.0
C      1  0.4271000000000  0.5051840000000  0.4426730000000 1.0
C      1  0.5163020000000  0.5778320000000  0.5400740000000 1.0
C      1  0.5154040000000  0.4573820000000  0.5230600000000 1.0
C      1  0.5680470000000  0.5260930000000  0.5253080000000 1.0
C      1  0.5305070000000  0.4864540000000  0.4822230000000 1.0
C      1  0.5756150000000  0.4491440000000  0.4785260000000 1.0
C      1  0.4641040000000  0.5408520000000  0.5557000000000 1.0
C      1  0.5232110000000  0.4681120000000  0.5758550000000 1.0
C      1  0.5528650000000  0.4883610000000  0.4225930000000 1.0
C      1  0.4718720000000  0.4851930000000  0.5872630000000 1.0
C      1  0.5010440000000  0.4211280000000  0.4755150000000 1.0
C      1  0.4970390000000  0.4910430000000  0.4185560000000 1.0
C      1  0.5245030000000  0.4616850000000  0.4678310000000 1.0
C      1  0.4400160000000  0.4604520000000  0.5233280000000 1.0
C      1  0.5546100000000  0.4291800000000  0.4845300000000 1.0
C      1  0.5024540000000  0.5587200000000  0.4515660000000 1.0
C      1  0.4882910000000  0.4483380000000  0.5142620000000 1.0
C      1  0.4934550000000  0.5053800000000  0.5901420000000 1.0
C      1  0.4807840000000  0.5402070000000  0.4360700000000 1.0
C      1  0.4600840000000  0.5869180000000  0.5013540000000 1.0
C      1  0.4587340000000  0.5294530000000  0.4531800000000 1.0
C      1  0.5374380000000  0.4654710000000  0.4196300000000 1.0
C      1  0.5332070000000  0.5192410000000  0.5604620000000 1.0
C      1  0.4643340000000  0.4108150000000  0.4413950000000 1.0
C      1  0.5201020000000  0.4847930000000  0.5309670000000 1.0
C      1  0.4925900000000  0.4192610000000  0.4470560000000 1.0
C      1  0.4648070000000  0.5846710000000  0.5304940000000 1.0
C      1  0.5673210000000  0.5680030000000  0.4987870000000 1.0
C      1  0.5739990000000  0.4776770000000  0.4705670000000 1.0
C      1  0.5241400000000  0.4540750000000  0.4403850000000 1.0
C      1  0.5492440000000  0.5186760000000  0.4558490000000 1.0
C      1  0.5620840000000  0.4777500000000  0.5400330000000 1.0
C      1  0.4500270000000  0.4355470000000  0.4513010000000 1.0
C      1  0.5384820000000  0.5663260000000  0.4946470000000 1.0
C      1  0.4752290000000  0.5921320000000  0.4782320000000 1.0
C      1  0.5025830000000  0.5068850000000  0.5252990000000 1.0
C      1  0.4751830000000  0.5112940000000  0.4710420000000 1.0
C      1  0.4901040000000  0.5474230000000  0.5673670000000 1.0
C      1  0.5007300000000  0.5309670000000  0.4722770000000 1.0
C      1  0.5249070000000  0.5125610000000  0.4704320000000 1.0
C      1  0.4355660000000  0.4587090000000  0.4939730000000 1.0
C      1  0.4907560000000  0.5903870000000  0.5424640000000 1.0
C      1  0.4527480000000  0.4390560000000  0.4807660000000 1.0
C      1  0.5813440000000  0.5448670000000  0.5070970000000 1.0
C      1  0.4336780000000  0.4782290000000  0.5459920000000 1.0
C      1  0.4277440000000  0.4812540000000  0.4771770000000 1.0
C      1  0.5080230000000  0.5254580000000  0.5739950000000 1.0
C      1  0.5688280000000  0.4969770000000  0.5194270000000 1.0
C      1  0.4510480000000  0.5602340000000  0.5377400000000 1.0
C      1  0.5583930000000  0.4888200000000  0.4926660000000 1.0
C      1  0.4919980000000  0.4304180000000  0.5698560000000 1.0
C      1  0.4404200000000  0.5469850000000  0.5136220000000 1.0
C      1  0.5713970000000  0.4396340000000  0.5061020000000 1.0
C      1  0.5652830000000  0.4950610000000  0.4480850000000 1.0
C      1  0.5332130000000  0.4400230000000  0.5389930000000 1.0
C      1  0.4885800000000  0.5801180000000  0.4632930000000 1.0
C      1  0.4726670000000  0.4963900000000  0.5253090000000 1.0
C      1  0.4817120000000  0.4659550000000  0.4273440000000 1.0
C      1  0.4542190000000  0.4709520000000  0.5682940000000 1.0
C      1  0.4242150000000  0.5097070000000  0.4846210000000 1.0
C      1  0.5452890000000  0.5356720000000  0.5405690000000 1.0
C      1  0.4700600000000  0.4484320000000  0.5685660000000 1.0
C      1  0.4330030000000  0.4780190000000  0.4474440000000 1.0
C      1  0.5044090000000  0.5352210000000  0.5184350000000 1.0
C      1  0.4684030000000  0.4644840000000  0.5266090000000 1.0
C      1  0.5600550000000  0.4499810000000  0.5316530000000 1.0
C      1  0.5269500000000  0.5556320000000  0.5237130000000 1.0
C      1  0.4560790000000  0.5140170000000  0.5483860000000 1.0
C      1  0.5785870000000  0.5521130000000  0.4796800000000 1.0
C      1  0.5261470000000  0.4355660000000  0.4808720000000 1.0
C      1  0.5010220000000  0.4775840000000  0.5919320000000 1.0
END
