TITL C-883738-3659-270 35.6921161500039 125000 -29879.3832942502 0 0 199 (C1) n - 1
REM
REM in /home/nfs/bkarasulu/CARBON/AIRSS/Generating-Clusters/ReaxFF-fromJPCA2015/Units_Real/with-SteepDescent/Only-C1/SD-CG/Try1-3A/FIRE-CG
REM
REM
REM
REM
REM
REM ./C.cell (11c1c37f851c82e70ff6c80c92926a4b)
REM
REM compiler GCC version 9.2.1 20190827 (Red Hat 9.2.1-1)
REM options -cpp -mtune=generic -march=x86-64 -g -O0 -fpre-include=/usr/include/finclude/math-vector-fortran.h
REM seed 801961439 -2000722335 1008018797 904271813 -275788875 -262077011 -561775274 -860520292 -1644235822 -812298915 -1146402767 1277404619 -476665931 805190403 1314548105 -1590065458 -650270365 1686378239 1617153259 1912096171 407805249 1818620667 -760392127 517781102 141235770 -715980187 -1352950278 1138104016 1079607302 -1155701566 -1339860306 -1109489248 704466333
REM
CELL 1.54180   50.00000   50.00000   50.00000   90.00000   90.00000   90.00000
LATT -1
SFAC C  
C      1  0.4704930000000  0.3956650000000  0.5103810000000 1.0
C      1  0.4482180000000  0.4417690000000  0.4100110000000 1.0
C      1  0.6138630000000  0.5448680000000  0.4846160000000 1.0
C      1  0.5129400000000  0.4887830000000  0.5929960000000 1.0
C      1  0.5238530000000  0.6088250000000  0.5302370000000 1.0
C      1  0.5722670000000  0.4178960000000  0.5386620000000 1.0
C      1  0.4012180000000  0.5255210000000  0.5737780000000 1.0
C      1  0.3836190000000  0.5125830000000  0.4701970000000 1.0
C      1  0.5591690000000  0.5181370000000  0.4551820000000 1.0
C      1  0.4942710000000  0.4412170000000  0.5913120000000 1.0
C      1  0.5027970000000  0.5429840000000  0.3951470000000 1.0
C      1  0.4592030000000  0.5319590000000  0.4989230000000 1.0
C      1  0.4540210000000  0.4380300000000  0.5653940000000 1.0
C      1  0.4887330000000  0.5307060000000  0.5897180000000 1.0
C      1  0.5459930000000  0.5715590000000  0.4481530000000 1.0
C      1  0.4869390000000  0.5510580000000  0.4756430000000 1.0
C      1  0.4027430000000  0.4601480000000  0.4764990000000 1.0
C      1  0.4712490000000  0.5554580000000  0.5876720000000 1.0
C      1  0.4796690000000  0.6172320000000  0.5060990000000 1.0
C      1  0.5519950000000  0.4058450000000  0.4576770000000 1.0
C      1  0.4698680000000  0.4801630000000  0.6053370000000 1.0
C      1  0.5587920000000  0.4023040000000  0.4842220000000 1.0
C      1  0.4859980000000  0.5002990000000  0.5886690000000 1.0
C      1  0.4196090000000  0.5610640000000  0.5329440000000 1.0
C      1  0.4128190000000  0.4443900000000  0.5387230000000 1.0
C      1  0.6009570000000  0.4723900000000  0.4580510000000 1.0
C      1  0.4995830000000  0.4446580000000  0.5117970000000 1.0
C      1  0.4174600000000  0.5693810000000  0.5051570000000 1.0
C      1  0.4601730000000  0.4110980000000  0.5572800000000 1.0
C      1  0.4870770000000  0.5630100000000  0.5198330000000 1.0
C      1  0.4975560000000  0.4524010000000  0.4627610000000 1.0
C      1  0.4246960000000  0.5059580000000  0.5263050000000 1.0
C      1  0.5377780000000  0.3873810000000  0.4902970000000 1.0
C      1  0.5458000000000  0.5765300000000  0.5813730000000 1.0
C      1  0.5231030000000  0.3784240000000  0.5117000000000 1.0
C      1  0.4888040000000  0.4344130000000  0.5355600000000 1.0
C      1  0.5380460000000  0.5021110000000  0.5175330000000 1.0
C      1  0.5403380000000  0.4798260000000  0.5017530000000 1.0
C      1  0.4789300000000  0.5386700000000  0.4380130000000 1.0
C      1  0.4389610000000  0.5830580000000  0.4654470000000 1.0
C      1  0.4456850000000  0.5210860000000  0.5379210000000 1.0
C      1  0.5681320000000  0.4246210000000  0.5081180000000 1.0
C      1  0.4626580000000  0.5108800000000  0.3958060000000 1.0
C      1  0.5062200000000  0.4468520000000  0.3825370000000 1.0
C      1  0.4599080000000  0.5569350000000  0.5082450000000 1.0
C      1  0.4422640000000  0.5253660000000  0.4500650000000 1.0
C      1  0.4501490000000  0.4442520000000  0.4572960000000 1.0
C      1  0.4934930000000  0.3808840000000  0.5202470000000 1.0
C      1  0.4519310000000  0.5561800000000  0.4121140000000 1.0
C      1  0.4312380000000  0.3980800000000  0.4440380000000 1.0
C      1  0.5505640000000  0.5216780000000  0.5957400000000 1.0
C      1  0.5115520000000  0.4946720000000  0.3803860000000 1.0
C      1  0.4962120000000  0.5842510000000  0.4169690000000 1.0
C      1  0.4963800000000  0.4730580000000  0.5526010000000 1.0
C      1  0.4035000000000  0.4691580000000  0.4228750000000 1.0
C      1  0.5773150000000  0.5277900000000  0.5329710000000 1.0
C      1  0.4401170000000  0.4746950000000  0.6052420000000 1.0
C      1  0.4270760000000  0.4794060000000  0.5757250000000 1.0
C      1  0.5469300000000  0.5916980000000  0.5274050000000 1.0
C      1  0.5233980000000  0.4992810000000  0.4343190000000 1.0
C      1  0.5870140000000  0.5188140000000  0.4570420000000 1.0
C      1  0.5891980000000  0.5006840000000  0.4163290000000 1.0
C      1  0.4914610000000  0.3985040000000  0.4635280000000 1.0
C      1  0.5766640000000  0.4647750000000  0.4755990000000 1.0
C      1  0.5004330000000  0.5353390000000  0.4242840000000 1.0
C      1  0.5259610000000  0.4536220000000  0.4992320000000 1.0
C      1  0.4466620000000  0.5027140000000  0.5763240000000 1.0
C      1  0.4918320000000  0.5375640000000  0.5337870000000 1.0
C      1  0.4221140000000  0.5618070000000  0.4574000000000 1.0
C      1  0.5568150000000  0.4700210000000  0.5835530000000 1.0
C      1  0.4567680000000  0.5932680000000  0.4446720000000 1.0
C      1  0.3740110000000  0.4864380000000  0.4644850000000 1.0
C      1  0.5105580000000  0.4793670000000  0.6211190000000 1.0
C      1  0.4189500000000  0.5319270000000  0.5361390000000 1.0
C      1  0.6170520000000  0.4705060000000  0.4850920000000 1.0
C      1  0.4425820000000  0.5833860000000  0.4970880000000 1.0
C      1  0.6037510000000  0.5695140000000  0.4991770000000 1.0
C      1  0.4825360000000  0.5990730000000  0.4832930000000 1.0
C      1  0.4353350000000  0.5002940000000  0.6153420000000 1.0
C      1  0.5696010000000  0.5528270000000  0.4155150000000 1.0
C      1  0.4377330000000  0.5738190000000  0.5524670000000 1.0
C      1  0.4948490000000  0.5733050000000  0.4926920000000 1.0
C      1  0.4732640000000  0.4491080000000  0.5149080000000 1.0
C      1  0.4816420000000  0.5951700000000  0.5638180000000 1.0
C      1  0.4496020000000  0.4974990000000  0.4462830000000 1.0
C      1  0.5755970000000  0.5311650000000  0.5838310000000 1.0
C      1  0.5033650000000  0.4263810000000  0.4035820000000 1.0
C      1  0.5533410000000  0.5744790000000  0.5051500000000 1.0
C      1  0.5203710000000  0.5687390000000  0.5929900000000 1.0
C      1  0.4507550000000  0.4052490000000  0.5300590000000 1.0
C      1  0.5497250000000  0.4176210000000  0.4328580000000 1.0
C      1  0.3940070000000  0.5278540000000  0.4879050000000 1.0
C      1  0.5151170000000  0.5675260000000  0.5485670000000 1.0
C      1  0.5874570000000  0.5177460000000  0.5584060000000 1.0
C      1  0.4578970000000  0.5936460000000  0.5452900000000 1.0
C      1  0.5243510000000  0.4740790000000  0.5506500000000 1.0
C      1  0.4586090000000  0.5072780000000  0.4896810000000 1.0
C      1  0.5622740000000  0.4447480000000  0.4331140000000 1.0
C      1  0.4242260000000  0.4512510000000  0.4146400000000 1.0
C      1  0.5037130000000  0.6016200000000  0.4392450000000 1.0
C      1  0.4158900000000  0.4235970000000  0.5004170000000 1.0
C      1  0.5334590000000  0.5009940000000  0.5447210000000 1.0
C      1  0.3875910000000  0.4895930000000  0.5368140000000 1.0
C      1  0.5665570000000  0.5578900000000  0.5862200000000 1.0
C      1  0.3960730000000  0.4645390000000  0.5281770000000 1.0
C      1  0.5851010000000  0.4732780000000  0.4151030000000 1.0
C      1  0.5102360000000  0.6193690000000  0.5067000000000 1.0
C      1  0.5484890000000  0.4065830000000  0.5522380000000 1.0
C      1  0.4864040000000  0.4882220000000  0.3979750000000 1.0
C      1  0.4432070000000  0.5590340000000  0.5773430000000 1.0
C      1  0.5882270000000  0.4403830000000  0.5478800000000 1.0
C      1  0.3793080000000  0.4772450000000  0.4926030000000 1.0
C      1  0.4748370000000  0.4068090000000  0.4827490000000 1.0
C      1  0.5207930000000  0.4119510000000  0.4221820000000 1.0
C      1  0.4908620000000  0.5129530000000  0.5201230000000 1.0
C      1  0.5077160000000  0.5957040000000  0.5514350000000 1.0
C      1  0.5068040000000  0.5146170000000  0.4965510000000 1.0
C      1  0.4836570000000  0.4494410000000  0.5627320000000 1.0
C      1  0.4071940000000  0.4290490000000  0.4771920000000 1.0
C      1  0.5766390000000  0.5083840000000  0.5112020000000 1.0
C      1  0.5869620000000  0.4412510000000  0.4912540000000 1.0
C      1  0.6196160000000  0.4924070000000  0.5046320000000 1.0
C      1  0.5898770000000  0.4537490000000  0.4343640000000 1.0
C      1  0.4740480000000  0.4352730000000  0.4702520000000 1.0
C      1  0.4886740000000  0.4043900000000  0.5644450000000 1.0
C      1  0.5405790000000  0.4961620000000  0.5850400000000 1.0
C      1  0.3908730000000  0.4685170000000  0.4493620000000 1.0
C      1  0.4908330000000  0.5761690000000  0.5845440000000 1.0
C      1  0.6001460000000  0.5435040000000  0.4574560000000 1.0
C      1  0.5035770000000  0.5288630000000  0.4730630000000 1.0
C      1  0.5068030000000  0.5408560000000  0.5597710000000 1.0
C      1  0.4374910000000  0.5017120000000  0.4034230000000 1.0
C      1  0.4083120000000  0.5526080000000  0.4831590000000 1.0
C      1  0.5021450000000  0.3840820000000  0.5480500000000 1.0
C      1  0.5470530000000  0.4586450000000  0.5407390000000 1.0
C      1  0.5304980000000  0.5442380000000  0.6050980000000 1.0
C      1  0.4246590000000  0.4186290000000  0.5246680000000 1.0
C      1  0.5304610000000  0.3870100000000  0.5403580000000 1.0
C      1  0.4801460000000  0.4588210000000  0.3901240000000 1.0
C      1  0.4578770000000  0.6022010000000  0.5174930000000 1.0
C      1  0.5173700000000  0.5677990000000  0.4055310000000 1.0
C      1  0.5259840000000  0.4696300000000  0.3759310000000 1.0
C      1  0.4615140000000  0.4731060000000  0.5196420000000 1.0
C      1  0.5935960000000  0.4902310000000  0.5526610000000 1.0
C      1  0.4180970000000  0.4911110000000  0.4106240000000 1.0
C      1  0.5481490000000  0.5229830000000  0.3940010000000 1.0
C      1  0.4998130000000  0.4849800000000  0.4258430000000 1.0
C      1  0.5184720000000  0.5288140000000  0.4472230000000 1.0
C      1  0.5464090000000  0.5470700000000  0.5127210000000 1.0
C      1  0.4315230000000  0.5466420000000  0.4332120000000 1.0
C      1  0.5662710000000  0.4859640000000  0.4950100000000 1.0
C      1  0.5430630000000  0.5412570000000  0.4534530000000 1.0
C      1  0.5073780000000  0.4170490000000  0.5836760000000 1.0
C      1  0.5461110000000  0.4450640000000  0.5830750000000 1.0
C      1  0.4403660000000  0.5226810000000  0.5992870000000 1.0
C      1  0.5075190000000  0.5069510000000  0.6327830000000 1.0
C      1  0.4639250000000  0.5454580000000  0.4580920000000 1.0
C      1  0.5458750000000  0.4924130000000  0.4483190000000 1.0
C      1  0.4716600000000  0.4992020000000  0.4643090000000 1.0
C      1  0.5996840000000  0.4988660000000  0.4435740000000 1.0
C      1  0.5878950000000  0.5613280000000  0.4380950000000 1.0
C      1  0.5368430000000  0.4196990000000  0.5769740000000 1.0
C      1  0.5745830000000  0.5766650000000  0.4580490000000 1.0
C      1  0.5267980000000  0.5970690000000  0.4564140000000 1.0
C      1  0.5500970000000  0.5431790000000  0.5415020000000 1.0
C      1  0.4215750000000  0.5425430000000  0.5881760000000 1.0
C      1  0.6118730000000  0.4811330000000  0.5328680000000 1.0
C      1  0.4798660000000  0.6073480000000  0.4550450000000 1.0
C      1  0.5730710000000  0.4654370000000  0.5572670000000 1.0
C      1  0.5725980000000  0.5250670000000  0.4045330000000 1.0
C      1  0.5230260000000  0.5218300000000  0.3837970000000 1.0
C      1  0.5058780000000  0.4030080000000  0.4434540000000 1.0
C      1  0.4760650000000  0.4382440000000  0.4107700000000 1.0
C      1  0.4043510000000  0.4994110000000  0.5610660000000 1.0
C      1  0.5323000000000  0.5257170000000  0.5579150000000 1.0
C      1  0.6126200000000  0.4476670000000  0.5022080000000 1.0
C      1  0.5339190000000  0.5246400000000  0.4995530000000 1.0
C      1  0.4874640000000  0.4778560000000  0.4513830000000 1.0
C      1  0.6174780000000  0.5192190000000  0.4962990000000 1.0
C      1  0.4645510000000  0.5090740000000  0.5552400000000 1.0
C      1  0.4265800000000  0.4743370000000  0.4827980000000 1.0
C      1  0.6096170000000  0.4522780000000  0.5318930000000 1.0
C      1  0.5462780000000  0.4424270000000  0.5180390000000 1.0
C      1  0.5237660000000  0.6098840000000  0.4816500000000 1.0
C      1  0.4403740000000  0.4719550000000  0.4579910000000 1.0
C      1  0.5441300000000  0.5673150000000  0.4172090000000 1.0
C      1  0.4792570000000  0.4902110000000  0.5364990000000 1.0
C      1  0.5439050000000  0.5717260000000  0.5493550000000 1.0
C      1  0.4669390000000  0.5795500000000  0.4203640000000 1.0
C      1  0.4281460000000  0.4217690000000  0.4548510000000 1.0
C      1  0.4393070000000  0.4866290000000  0.5058220000000 1.0
C      1  0.5492220000000  0.4620950000000  0.4557260000000 1.0
C      1  0.4306240000000  0.4533330000000  0.5605860000000 1.0
C      1  0.5063560000000  0.5310870000000  0.6156210000000 1.0
C      1  0.4699380000000  0.5382510000000  0.3976120000000 1.0
C      1  0.4896850000000  0.4593100000000  0.6136240000000 1.0
C      1  0.5777570000000  0.5782770000000  0.4877260000000 1.0
C      1  0.3860040000000  0.4995570000000  0.5093060000000 1.0
C      1  0.5253020000000  0.4505580000000  0.4692960000000 1.0
END
