TITL C-883741-3679-422 10.1555685231987 125000 -9346.08485831964 0 0 63 (C1) n - 1
REM
REM in /home/nfs/bkarasulu/CARBON/AIRSS/Generating-Clusters/ReaxFF-fromJPCA2015/Units_Real/with-SteepDescent/Only-C1/SD-CG/Try1-3A/FIRE-CG
REM
REM
REM
REM
REM
REM ./C.cell (11c1c37f851c82e70ff6c80c92926a4b)
REM
REM compiler GCC version 9.2.1 20190827 (Red Hat 9.2.1-1)
REM options -cpp -mtune=generic -march=x86-64 -g -O0 -fpre-include=/usr/include/finclude/math-vector-fortran.h
REM seed -1958321287 881474097 -2117964341 -618296058 1953320798 1745939301 2053208772 -1247838359 1289727234 1571400848 -579911903 937456621 974132345 -799925129 -1753491056 -1714507318 1140053543 -795235463 -188059048 272812607 1400702604 1082484900 -1978356244 -1427768022 -325113825 1699623614 136656491 197387766 1695018557 1060082467 -523890598 -1216994781 -691314350
REM
CELL 1.54180   50.00000   50.00000   50.00000   90.00000   90.00000   90.00000
LATT -1
SFAC C  
C      1  0.5312340000000  0.5066640000000  0.4903440000000 1.0
C      1  0.4887950000000  0.4391420000000  0.5008090000000 1.0
C      1  0.4426880000000  0.4627040000000  0.4797980000000 1.0
C      1  0.4460170000000  0.5115800000000  0.4664920000000 1.0
C      1  0.4894690000000  0.5218050000000  0.4748620000000 1.0
C      1  0.5784050000000  0.5202790000000  0.5257510000000 1.0
C      1  0.4448570000000  0.5361160000000  0.4829230000000 1.0
C      1  0.5103710000000  0.5240280000000  0.4313480000000 1.0
C      1  0.4571890000000  0.4534630000000  0.5404240000000 1.0
C      1  0.5562710000000  0.5002730000000  0.4481930000000 1.0
C      1  0.5087030000000  0.4488300000000  0.4803280000000 1.0
C      1  0.4680430000000  0.4911060000000  0.5818970000000 1.0
C      1  0.4999140000000  0.4736650000000  0.5367210000000 1.0
C      1  0.4604380000000  0.4681460000000  0.5660830000000 1.0
C      1  0.4372220000000  0.4564980000000  0.4490380000000 1.0
C      1  0.5266570000000  0.4704410000000  0.5514350000000 1.0
C      1  0.4594150000000  0.4110890000000  0.4915960000000 1.0
C      1  0.5432770000000  0.4948510000000  0.5594410000000 1.0
C      1  0.5377830000000  0.5655550000000  0.4810250000000 1.0
C      1  0.4667670000000  0.4976460000000  0.5090440000000 1.0
C      1  0.4601930000000  0.5323850000000  0.5555970000000 1.0
C      1  0.5674220000000  0.4729540000000  0.4510120000000 1.0
C      1  0.4572100000000  0.4895640000000  0.4826030000000 1.0
C      1  0.5333470000000  0.5092010000000  0.4351610000000 1.0
C      1  0.5805320000000  0.4890080000000  0.5208430000000 1.0
C      1  0.4588600000000  0.5143300000000  0.4386050000000 1.0
C      1  0.4236200000000  0.4635680000000  0.5015670000000 1.0
C      1  0.5258590000000  0.5159450000000  0.5690930000000 1.0
C      1  0.5014690000000  0.5326790000000  0.5676890000000 1.0
C      1  0.5204000000000  0.5426220000000  0.5240650000000 1.0
C      1  0.4727200000000  0.5440260000000  0.4747760000000 1.0
C      1  0.5123820000000  0.5694420000000  0.4663570000000 1.0
C      1  0.5013880000000  0.5513030000000  0.5447630000000 1.0
C      1  0.5693580000000  0.4990880000000  0.5449980000000 1.0
C      1  0.5172910000000  0.5151800000000  0.5144100000000 1.0
C      1  0.4222920000000  0.4848470000000  0.5197370000000 1.0
C      1  0.4312720000000  0.4587610000000  0.5275730000000 1.0
C      1  0.5786450000000  0.4640160000000  0.4746270000000 1.0
C      1  0.5421030000000  0.5582900000000  0.5098420000000 1.0
C      1  0.4620460000000  0.4595140000000  0.4346490000000 1.0
C      1  0.4940580000000  0.4976040000000  0.5215870000000 1.0
C      1  0.5515950000000  0.5175820000000  0.4723650000000 1.0
C      1  0.4824640000000  0.5798410000000  0.5081990000000 1.0
C      1  0.4374830000000  0.5344310000000  0.5108740000000 1.0
C      1  0.5458550000000  0.5447800000000  0.4619460000000 1.0
C      1  0.5368930000000  0.4431800000000  0.4831830000000 1.0
C      1  0.4412050000000  0.5073870000000  0.5215190000000 1.0
C      1  0.5018720000000  0.4718930000000  0.4629280000000 1.0
C      1  0.4850760000000  0.5051510000000  0.4309490000000 1.0
C      1  0.5203080000000  0.5477980000000  0.4468150000000 1.0
C      1  0.5573660000000  0.4490740000000  0.4633840000000 1.0
C      1  0.4774770000000  0.5643280000000  0.5332500000000 1.0
C      1  0.4619980000000  0.4356870000000  0.4877000000000 1.0
C      1  0.4865780000000  0.5711430000000  0.4804010000000 1.0
C      1  0.4832310000000  0.4510480000000  0.5271470000000 1.0
C      1  0.5382100000000  0.4576280000000  0.5310020000000 1.0
C      1  0.4514200000000  0.5475950000000  0.5340080000000 1.0
C      1  0.5519430000000  0.4488330000000  0.5087610000000 1.0
C      1  0.5062520000000  0.4995390000000  0.4749490000000 1.0
C      1  0.4870350000000  0.4763120000000  0.4389630000000 1.0
C      1  0.5617250000000  0.5401470000000  0.5172790000000 1.0
C      1  0.4743790000000  0.5201220000000  0.5748700000000 1.0
C      1  0.5736520000000  0.4682930000000  0.5023990000000 1.0
END
