TITL C-884128-4793-347 98.421727152588 125000 -26715.5287725287 0 0 179 (C1) n - 1
REM
REM in /home/nfs/bkarasulu/CARBON/AIRSS/Generating-Clusters/ReaxFF-fromJPCA2015/Units_Real/with-SteepDescent/Only-C1/SD-CG/Try1-3A/FIRE-CG
REM
REM
REM
REM
REM
REM ./C.cell (11c1c37f851c82e70ff6c80c92926a4b)
REM
REM compiler GCC version 9.2.1 20190827 (Red Hat 9.2.1-1)
REM options -cpp -mtune=generic -march=x86-64 -g -O0 -fpre-include=/usr/include/finclude/math-vector-fortran.h
REM seed -1384091201 77823481 620544873 -139589106 -895964295 624948569 1346264434 466057521 -1821808451 -1529389435 785728773 638618135 1890744016 -2795875 -1524837500 562203480 1846575675 1536745312 1451061021 -1953757502 -938566402 1524624829 -1852125606 -920023421 -228598640 279964240 1778053253 -451553294 1311263785 1855014907 -1823088986 574452324 -1201164666
REM
CELL 1.54180   50.00000   50.00000   50.00000   90.00000   90.00000   90.00000
LATT -1
SFAC C  
C      1  0.5350360000000  0.5011380000000  0.3815290000000 1.0
C      1  0.5425000000000  0.4827490000000  0.6034300000000 1.0
C      1  0.4920340000000  0.6064110000000  0.4806820000000 1.0
C      1  0.5243640000000  0.4640790000000  0.5019640000000 1.0
C      1  0.5846950000000  0.5598420000000  0.5356020000000 1.0
C      1  0.5580430000000  0.4433350000000  0.4226670000000 1.0
C      1  0.5232370000000  0.4077620000000  0.4330540000000 1.0
C      1  0.5510000000000  0.4290500000000  0.4851130000000 1.0
C      1  0.4426480000000  0.4257870000000  0.5087080000000 1.0
C      1  0.4803690000000  0.5868550000000  0.5689200000000 1.0
C      1  0.4363770000000  0.4678320000000  0.4528080000000 1.0
C      1  0.4719040000000  0.4187620000000  0.4655690000000 1.0
C      1  0.4308470000000  0.4788930000000  0.4232510000000 1.0
C      1  0.4567420000000  0.5694550000000  0.4539540000000 1.0
C      1  0.5524270000000  0.4982060000000  0.5379340000000 1.0
C      1  0.5769210000000  0.4979930000000  0.5832670000000 1.0
C      1  0.4126370000000  0.4660360000000  0.4968530000000 1.0
C      1  0.4141180000000  0.5205160000000  0.5618490000000 1.0
C      1  0.5936340000000  0.5067680000000  0.5600250000000 1.0
C      1  0.6017590000000  0.5033950000000  0.4664020000000 1.0
C      1  0.4807090000000  0.5379540000000  0.4172860000000 1.0
C      1  0.5718990000000  0.4514710000000  0.5764330000000 1.0
C      1  0.6090550000000  0.5311410000000  0.4702170000000 1.0
C      1  0.5067600000000  0.5418570000000  0.4292770000000 1.0
C      1  0.5158960000000  0.4625450000000  0.4412610000000 1.0
C      1  0.5414430000000  0.5872160000000  0.5137150000000 1.0
C      1  0.5438450000000  0.5550970000000  0.5533350000000 1.0
C      1  0.5145530000000  0.5326980000000  0.4678420000000 1.0
C      1  0.5027730000000  0.5481780000000  0.5276460000000 1.0
C      1  0.5838970000000  0.5338860000000  0.5529370000000 1.0
C      1  0.4837670000000  0.5768930000000  0.4097940000000 1.0
C      1  0.5950140000000  0.5518080000000  0.5096620000000 1.0
C      1  0.4106720000000  0.5455000000000  0.4572760000000 1.0
C      1  0.5580380000000  0.4067950000000  0.5050330000000 1.0
C      1  0.5100320000000  0.4406180000000  0.5021260000000 1.0
C      1  0.4478500000000  0.4310060000000  0.4234460000000 1.0
C      1  0.4734170000000  0.5103620000000  0.4178550000000 1.0
C      1  0.5937610000000  0.4441900000000  0.5126070000000 1.0
C      1  0.5400790000000  0.5453910000000  0.4618920000000 1.0
C      1  0.5386790000000  0.4502510000000  0.3990690000000 1.0
C      1  0.4116520000000  0.4711580000000  0.4679550000000 1.0
C      1  0.4643880000000  0.6013350000000  0.5252010000000 1.0
C      1  0.5464950000000  0.5910970000000  0.4847770000000 1.0
C      1  0.5537830000000  0.5855590000000  0.4436210000000 1.0
C      1  0.5674610000000  0.4225280000000  0.4603260000000 1.0
C      1  0.5601280000000  0.4859340000000  0.5122060000000 1.0
C      1  0.5509190000000  0.4192580000000  0.4359790000000 1.0
C      1  0.4178110000000  0.6069690000000  0.5086220000000 1.0
C      1  0.4799010000000  0.5834430000000  0.4381300000000 1.0
C      1  0.3958550000000  0.4845170000000  0.5360390000000 1.0
C      1  0.4741650000000  0.4875460000000  0.4835410000000 1.0
C      1  0.4286730000000  0.4254170000000  0.4796780000000 1.0
C      1  0.5164680000000  0.4725340000000  0.5951670000000 1.0
C      1  0.5667440000000  0.5504260000000  0.5006930000000 1.0
C      1  0.4995950000000  0.4262670000000  0.4195420000000 1.0
C      1  0.6105050000000  0.5008950000000  0.5100620000000 1.0
C      1  0.5590060000000  0.5272410000000  0.4487590000000 1.0
C      1  0.4698230000000  0.4639960000000  0.3982960000000 1.0
C      1  0.4488020000000  0.5157490000000  0.5838070000000 1.0
C      1  0.4804550000000  0.5395880000000  0.5700110000000 1.0
C      1  0.4930250000000  0.5656800000000  0.4993830000000 1.0
C      1  0.4462910000000  0.5046790000000  0.4116710000000 1.0
C      1  0.5070210000000  0.5205460000000  0.4926360000000 1.0
C      1  0.6090600000000  0.4833360000000  0.4865660000000 1.0
C      1  0.5010360000000  0.3977100000000  0.5507890000000 1.0
C      1  0.4430200000000  0.5153900000000  0.4738500000000 1.0
C      1  0.4765320000000  0.4595440000000  0.4884570000000 1.0
C      1  0.4344210000000  0.5472040000000  0.4412230000000 1.0
C      1  0.3989930000000  0.4957160000000  0.4555250000000 1.0
C      1  0.4587000000000  0.4972700000000  0.5624210000000 1.0
C      1  0.4096920000000  0.5001240000000  0.4289380000000 1.0
C      1  0.5573690000000  0.5248450000000  0.5495880000000 1.0
C      1  0.4793120000000  0.3995630000000  0.4856020000000 1.0
C      1  0.5285300000000  0.4810690000000  0.4567600000000 1.0
C      1  0.5301780000000  0.4834510000000  0.5456830000000 1.0
C      1  0.6109860000000  0.5289910000000  0.4994700000000 1.0
C      1  0.5004920000000  0.5986160000000  0.4551270000000 1.0
C      1  0.5494610000000  0.5296250000000  0.5094570000000 1.0
C      1  0.4254480000000  0.4671270000000  0.5704120000000 1.0
C      1  0.5624730000000  0.5081190000000  0.4962830000000 1.0
C      1  0.3812540000000  0.4585560000000  0.5321030000000 1.0
C      1  0.5398600000000  0.4112430000000  0.5566550000000 1.0
C      1  0.5548340000000  0.5248840000000  0.4226690000000 1.0
C      1  0.6031040000000  0.4898900000000  0.5363680000000 1.0
C      1  0.4551720000000  0.4283660000000  0.5745370000000 1.0
C      1  0.5721350000000  0.4600950000000  0.4419370000000 1.0
C      1  0.4959530000000  0.4357390000000  0.5264910000000 1.0
C      1  0.5762270000000  0.4215760000000  0.5217300000000 1.0
C      1  0.5180610000000  0.3902020000000  0.4545530000000 1.0
C      1  0.5093150000000  0.5842960000000  0.5636910000000 1.0
C      1  0.4442430000000  0.4330290000000  0.4571350000000 1.0
C      1  0.5313890000000  0.5955060000000  0.4590440000000 1.0
C      1  0.4911810000000  0.4593260000000  0.6033640000000 1.0
C      1  0.5115120000000  0.5361060000000  0.6066720000000 1.0
C      1  0.5875220000000  0.4441950000000  0.4610320000000 1.0
C      1  0.4795630000000  0.5638480000000  0.5867650000000 1.0
C      1  0.5128700000000  0.4200770000000  0.5664320000000 1.0
C      1  0.5215830000000  0.5410530000000  0.4029300000000 1.0
C      1  0.4810860000000  0.4351350000000  0.5881520000000 1.0
C      1  0.4314360000000  0.4399100000000  0.5605980000000 1.0
C      1  0.5103820000000  0.4773950000000  0.5657810000000 1.0
C      1  0.4693500000000  0.4782850000000  0.6040830000000 1.0
C      1  0.4571190000000  0.5240010000000  0.5231920000000 1.0
C      1  0.4004910000000  0.5205340000000  0.4698530000000 1.0
C      1  0.5541210000000  0.5635430000000  0.4793580000000 1.0
C      1  0.5990490000000  0.4554910000000  0.4859860000000 1.0
C      1  0.4099770000000  0.4899540000000  0.5611860000000 1.0
C      1  0.5276690000000  0.3913580000000  0.5385190000000 1.0
C      1  0.4604070000000  0.4504300000000  0.5092070000000 1.0
C      1  0.5400800000000  0.5361740000000  0.5994720000000 1.0
C      1  0.4879370000000  0.4959670000000  0.5579360000000 1.0
C      1  0.5104300000000  0.5860520000000  0.5114930000000 1.0
C      1  0.4150480000000  0.5678580000000  0.4753590000000 1.0
C      1  0.4332190000000  0.6088690000000  0.4847860000000 1.0
C      1  0.4634440000000  0.4748370000000  0.5234190000000 1.0
C      1  0.4949180000000  0.4448570000000  0.4439660000000 1.0
C      1  0.5091010000000  0.4476640000000  0.3982590000000 1.0
C      1  0.5795260000000  0.5688110000000  0.4478590000000 1.0
C      1  0.4702000000000  0.4154240000000  0.4155710000000 1.0
C      1  0.4437160000000  0.6155780000000  0.5109970000000 1.0
C      1  0.4193340000000  0.5156090000000  0.4926380000000 1.0
C      1  0.4167870000000  0.4893330000000  0.5140980000000 1.0
C      1  0.4453380000000  0.4557450000000  0.4076940000000 1.0
C      1  0.5664690000000  0.4219060000000  0.5486500000000 1.0
C      1  0.4454900000000  0.4972480000000  0.5306260000000 1.0
C      1  0.5530900000000  0.5097990000000  0.5961580000000 1.0
C      1  0.5983990000000  0.4615250000000  0.5350020000000 1.0
C      1  0.5221900000000  0.4221210000000  0.4857090000000 1.0
C      1  0.4797390000000  0.5124870000000  0.4976230000000 1.0
C      1  0.4591510000000  0.5848660000000  0.5492440000000 1.0
C      1  0.4894120000000  0.6072470000000  0.5093940000000 1.0
C      1  0.4241460000000  0.4320590000000  0.5332760000000 1.0
C      1  0.5692810000000  0.4710080000000  0.5945020000000 1.0
C      1  0.4378650000000  0.5656350000000  0.5582900000000 1.0
C      1  0.5148310000000  0.4809810000000  0.5223080000000 1.0
C      1  0.5017100000000  0.5298370000000  0.3840320000000 1.0
C      1  0.5466270000000  0.5259740000000  0.3973820000000 1.0
C      1  0.4890430000000  0.4849520000000  0.5320120000000 1.0
C      1  0.4542110000000  0.4727370000000  0.5778440000000 1.0
C      1  0.5448420000000  0.5600500000000  0.5837940000000 1.0
C      1  0.5111490000000  0.4873570000000  0.4363030000000 1.0
C      1  0.4287350000000  0.5240960000000  0.4247220000000 1.0
C      1  0.4716610000000  0.4475410000000  0.5651660000000 1.0
C      1  0.5111550000000  0.3944100000000  0.4846960000000 1.0
C      1  0.4650400000000  0.5316250000000  0.4819330000000 1.0
C      1  0.4921870000000  0.5206330000000  0.5901540000000 1.0
C      1  0.4942720000000  0.4715720000000  0.3895310000000 1.0
C      1  0.4157210000000  0.5614990000000  0.5022910000000 1.0
C      1  0.5169660000000  0.5625240000000  0.5472940000000 1.0
C      1  0.4342930000000  0.5386570000000  0.5732130000000 1.0
C      1  0.4724440000000  0.5590110000000  0.4805230000000 1.0
C      1  0.4648360000000  0.4028630000000  0.5094840000000 1.0
C      1  0.4096990000000  0.5820840000000  0.5192530000000 1.0
C      1  0.5587350000000  0.5739290000000  0.5331630000000 1.0
C      1  0.5520880000000  0.4642850000000  0.4934280000000 1.0
C      1  0.4763320000000  0.5368510000000  0.5408680000000 1.0
C      1  0.4127850000000  0.5672990000000  0.5447760000000 1.0
C      1  0.5011290000000  0.5233500000000  0.4475300000000 1.0
C      1  0.5340160000000  0.3916950000000  0.5099790000000 1.0
C      1  0.4864010000000  0.4998630000000  0.4416990000000 1.0
C      1  0.4688750000000  0.5073510000000  0.6032800000000 1.0
C      1  0.5060620000000  0.5009500000000  0.3815490000000 1.0
C      1  0.4555580000000  0.4918700000000  0.4616790000000 1.0
C      1  0.5824140000000  0.4445800000000  0.5555520000000 1.0
C      1  0.5235410000000  0.5784690000000  0.5889500000000 1.0
C      1  0.4036340000000  0.4447610000000  0.5169140000000 1.0
C      1  0.5030270000000  0.4453140000000  0.5532440000000 1.0
C      1  0.5945900000000  0.5536890000000  0.4555970000000 1.0
C      1  0.5029920000000  0.5636980000000  0.6043050000000 1.0
C      1  0.4870370000000  0.4402960000000  0.4699440000000 1.0
C      1  0.5562590000000  0.4768620000000  0.4628480000000 1.0
C      1  0.4248280000000  0.5372500000000  0.5141130000000 1.0
C      1  0.5401340000000  0.4757450000000  0.3901190000000 1.0
C      1  0.5213500000000  0.5295680000000  0.5149510000000 1.0
C      1  0.5707430000000  0.5041450000000  0.4675260000000 1.0
C      1  0.4082060000000  0.5384900000000  0.5396030000000 1.0
C      1  0.4824950000000  0.5521410000000  0.3918920000000 1.0
C      1  0.4826420000000  0.4101840000000  0.5313560000000 1.0
C      1  0.4354310000000  0.5864790000000  0.4666130000000 1.0
END
