TITL C-883738-3659-341 7.95161185823352 125000 -8875.8291816728 0 0 61 (C1) n - 1
REM
REM in /home/nfs/bkarasulu/CARBON/AIRSS/Generating-Clusters/ReaxFF-fromJPCA2015/Units_Real/with-SteepDescent/Only-C1/SD-CG/Try1-3A/FIRE-CG
REM
REM
REM
REM
REM
REM ./C.cell (11c1c37f851c82e70ff6c80c92926a4b)
REM
REM compiler GCC version 9.2.1 20190827 (Red Hat 9.2.1-1)
REM options -cpp -mtune=generic -march=x86-64 -g -O0 -fpre-include=/usr/include/finclude/math-vector-fortran.h
REM seed 899172389 -801188064 1688931687 1019625133 1595923865 1054293992 -992635774 712711673 695274714 1965020135 -1590278254 1113755526 -352674425 -1693508005 833423332 1814533432 -829348789 1224984553 -819377004 471613545 758552305 1536712614 -541401073 524964345 -309311366 -1359988060 -549597513 656667162 -404753099 660460426 -2038022708 -357427881 1565403578
REM
CELL 1.54180   50.00000   50.00000   50.00000   90.00000   90.00000   90.00000
LATT -1
SFAC C  
C      1  0.4439270000000  0.4347320000000  0.4942720000000 1.0
C      1  0.4985770000000  0.5530220000000  0.5512100000000 1.0
C      1  0.4465640000000  0.5155810000000  0.4600400000000 1.0
C      1  0.4785250000000  0.4740880000000  0.5582580000000 1.0
C      1  0.5709760000000  0.5122970000000  0.4932220000000 1.0
C      1  0.5153750000000  0.5360630000000  0.4491690000000 1.0
C      1  0.5756690000000  0.4973120000000  0.4674800000000 1.0
C      1  0.4883750000000  0.5331070000000  0.5698680000000 1.0
C      1  0.5581200000000  0.4743750000000  0.4589640000000 1.0
C      1  0.5075380000000  0.4551620000000  0.4565060000000 1.0
C      1  0.4691500000000  0.4831550000000  0.4837250000000 1.0
C      1  0.5166710000000  0.5333500000000  0.5641450000000 1.0
C      1  0.4876460000000  0.5442270000000  0.4506240000000 1.0
C      1  0.5073420000000  0.5590620000000  0.5009300000000 1.0
C      1  0.5172130000000  0.4386840000000  0.5098250000000 1.0
C      1  0.4665450000000  0.5136110000000  0.5621760000000 1.0
C      1  0.4618460000000  0.5677830000000  0.5146290000000 1.0
C      1  0.5605340000000  0.5153720000000  0.4531000000000 1.0
C      1  0.5385110000000  0.4581450000000  0.5537640000000 1.0
C      1  0.4858270000000  0.5114640000000  0.5148270000000 1.0
C      1  0.4466130000000  0.4864750000000  0.4656550000000 1.0
C      1  0.4864270000000  0.5068110000000  0.4855650000000 1.0
C      1  0.4783430000000  0.4549690000000  0.4850680000000 1.0
C      1  0.5577420000000  0.5185970000000  0.5386600000000 1.0
C      1  0.5603440000000  0.4572440000000  0.4820560000000 1.0
C      1  0.4208120000000  0.5108130000000  0.5029600000000 1.0
C      1  0.4928330000000  0.4413200000000  0.5251670000000 1.0
C      1  0.5297880000000  0.4718730000000  0.4483530000000 1.0
C      1  0.4950670000000  0.4678780000000  0.5376640000000 1.0
C      1  0.5595930000000  0.5710810000000  0.5420260000000 1.0
C      1  0.5377000000000  0.5125600000000  0.5580770000000 1.0
C      1  0.4652730000000  0.4874070000000  0.5739930000000 1.0
C      1  0.4810550000000  0.4658210000000  0.4433730000000 1.0
C      1  0.4576410000000  0.4414430000000  0.4675580000000 1.0
C      1  0.4848310000000  0.4941940000000  0.4366620000000 1.0
C      1  0.5517130000000  0.4737310000000  0.5087510000000 1.0
C      1  0.4912170000000  0.5623320000000  0.4743880000000 1.0
C      1  0.5420520000000  0.5344660000000  0.4606360000000 1.0
C      1  0.4895570000000  0.5615070000000  0.5240830000000 1.0
C      1  0.5364010000000  0.4844190000000  0.5674120000000 1.0
C      1  0.4704820000000  0.4359770000000  0.5068960000000 1.0
C      1  0.4334840000000  0.5293010000000  0.4826800000000 1.0
C      1  0.4626590000000  0.5145600000000  0.5323800000000 1.0
C      1  0.5522400000000  0.5491070000000  0.5295400000000 1.0
C      1  0.5420850000000  0.5232290000000  0.4910060000000 1.0
C      1  0.5689520000000  0.5002140000000  0.5194250000000 1.0
C      1  0.5335690000000  0.5478960000000  0.5051720000000 1.0
C      1  0.5132680000000  0.4950540000000  0.4421860000000 1.0
C      1  0.4207050000000  0.4832190000000  0.5039940000000 1.0
C      1  0.5302360000000  0.4946040000000  0.5051780000000 1.0
C      1  0.4697660000000  0.5732400000000  0.4884380000000 1.0
C      1  0.5071890000000  0.4922470000000  0.5215480000000 1.0
C      1  0.5447670000000  0.4343870000000  0.4777950000000 1.0
C      1  0.5388300000000  0.4513470000000  0.5248670000000 1.0
C      1  0.4231450000000  0.4545400000000  0.5042280000000 1.0
C      1  0.4714640000000  0.5194410000000  0.4457880000000 1.0
C      1  0.5168010000000  0.4369380000000  0.4787950000000 1.0
C      1  0.5079380000000  0.5123010000000  0.4651180000000 1.0
C      1  0.4369650000000  0.5254910000000  0.5239160000000 1.0
C      1  0.4414990000000  0.5476730000000  0.5049510000000 1.0
C      1  0.4540240000000  0.4637030000000  0.4512540000000 1.0
END
