TITL C-884129-4740-315 -29.6432250381728 125000 -7128.21782608569 0 0 48 (C1) n - 1
REM
REM in /home/nfs/bkarasulu/CARBON/AIRSS/Generating-Clusters/ReaxFF-fromJPCA2015/Units_Real/with-SteepDescent/Only-C1/SD-CG/Try1-3A/FIRE-CG
REM
REM
REM
REM
REM
REM ./C.cell (11c1c37f851c82e70ff6c80c92926a4b)
REM
REM compiler GCC version 9.2.1 20190827 (Red Hat 9.2.1-1)
REM options -cpp -mtune=generic -march=x86-64 -g -O0 -fpre-include=/usr/include/finclude/math-vector-fortran.h
REM seed 2052611268 -1015159464 -626984606 -1388350403 -1259437778 432616479 338522381 -880650023 1877237980 -1175092341 -948378115 -699128719 -838683121 -418619077 2075950604 -1082048201 484138296 1785542068 899197743 521184547 799926245 -1720790251 1577851346 -1054478403 487836492 948373210 -998437991 1140943453 -810364294 1308296395 -2143109247 -63904648 692674675
REM
CELL 1.54180   50.00000   50.00000   50.00000   90.00000   90.00000   90.00000
LATT -1
SFAC C  
C      1  0.4397740000000  0.5109570000000  0.5051440000000 1.0
C      1  0.5586550000000  0.5394970000000  0.5069800000000 1.0
C      1  0.5050180000000  0.5491220000000  0.5022610000000 1.0
C      1  0.5220980000000  0.4411130000000  0.4940940000000 1.0
C      1  0.4740530000000  0.4670930000000  0.5565140000000 1.0
C      1  0.5250470000000  0.5568970000000  0.5197110000000 1.0
C      1  0.5050410000000  0.5504160000000  0.4572770000000 1.0
C      1  0.4876070000000  0.5178160000000  0.5628830000000 1.0
C      1  0.4971750000000  0.5198410000000  0.4959410000000 1.0
C      1  0.5447890000000  0.4666200000000  0.5287420000000 1.0
C      1  0.4801380000000  0.5352650000000  0.4477470000000 1.0
C      1  0.5290940000000  0.5052650000000  0.5265270000000 1.0
C      1  0.4658420000000  0.5278590000000  0.5113320000000 1.0
C      1  0.5354520000000  0.4716370000000  0.4591260000000 1.0
C      1  0.5156580000000  0.4709590000000  0.4396100000000 1.0
C      1  0.4493540000000  0.4768410000000  0.4643810000000 1.0
C      1  0.4687360000000  0.4823520000000  0.4419670000000 1.0
C      1  0.5291130000000  0.5344520000000  0.4638770000000 1.0
C      1  0.4812030000000  0.4392810000000  0.4611820000000 1.0
C      1  0.4923950000000  0.4736560000000  0.5145670000000 1.0
C      1  0.4968590000000  0.5672050000000  0.4799340000000 1.0
C      1  0.5233100000000  0.4655650000000  0.5484510000000 1.0
C      1  0.4444850000000  0.4941590000000  0.4850640000000 1.0
C      1  0.5129690000000  0.5116950000000  0.4706530000000 1.0
C      1  0.4685000000000  0.5747270000000  0.4870500000000 1.0
C      1  0.5089220000000  0.4998420000000  0.4433790000000 1.0
C      1  0.4970170000000  0.4327000000000  0.4868040000000 1.0
C      1  0.5478440000000  0.5472590000000  0.5328850000000 1.0
C      1  0.5533750000000  0.4739240000000  0.4799770000000 1.0
C      1  0.4548800000000  0.5403420000000  0.4622630000000 1.0
C      1  0.5051860000000  0.4994950000000  0.5136300000000 1.0
C      1  0.4733940000000  0.5288240000000  0.5402740000000 1.0
C      1  0.4818590000000  0.5079700000000  0.4363930000000 1.0
C      1  0.5536440000000  0.5276910000000  0.4818640000000 1.0
C      1  0.4605080000000  0.4517050000000  0.4773520000000 1.0
C      1  0.5533160000000  0.4937530000000  0.5207350000000 1.0
C      1  0.4325070000000  0.4897650000000  0.5260170000000 1.0
C      1  0.5593060000000  0.5001470000000  0.4922280000000 1.0
C      1  0.4475000000000  0.4730220000000  0.5447230000000 1.0
C      1  0.4874160000000  0.4602400000000  0.4418120000000 1.0
C      1  0.5178540000000  0.5154950000000  0.5669150000000 1.0
C      1  0.5377700000000  0.5216110000000  0.5467440000000 1.0
C      1  0.4964040000000  0.4577840000000  0.5388710000000 1.0
C      1  0.4866770000000  0.4882390000000  0.5719590000000 1.0
C      1  0.5157650000000  0.4860670000000  0.5691880000000 1.0
C      1  0.4536230000000  0.5487940000000  0.4912920000000 1.0
C      1  0.4777170000000  0.4519040000000  0.5013360000000 1.0
C      1  0.5451510000000  0.4531360000000  0.5023420000000 1.0
END
