TITL C-884127-5181-213 27.4778537608505 125000 -13220.1533513926 0 0 90 (C1) n - 1
REM
REM in /home/nfs/bkarasulu/CARBON/AIRSS/Generating-Clusters/ReaxFF-fromJPCA2015/Units_Real/with-SteepDescent/Only-C1/SD-CG/Try1-3A/FIRE-CG
REM
REM
REM
REM
REM
REM ./C.cell (11c1c37f851c82e70ff6c80c92926a4b)
REM
REM compiler GCC version 9.2.1 20190827 (Red Hat 9.2.1-1)
REM options -cpp -mtune=generic -march=x86-64 -g -O0 -fpre-include=/usr/include/finclude/math-vector-fortran.h
REM seed -207543542 1356285775 -868187861 -78298442 218102153 -1475375762 -1281239934 -1417593673 -959022514 2109510145 542270717 -1296605316 -1867000905 1570159521 1196224563 1852154050 -614090908 105991575 -888346874 1658998937 -233405976 -566483733 -1684931912 -362751304 -802114105 -1889805420 -1723099341 537280008 -1042589580 -1068802702 1459675203 -1213962742 355692490
REM
CELL 1.54180   50.00000   50.00000   50.00000   90.00000   90.00000   90.00000
LATT -1
SFAC C  
C      1  0.4731620000000  0.5084910000000  0.5354550000000 1.0
C      1  0.4452990000000  0.5036990000000  0.4953930000000 1.0
C      1  0.5343240000000  0.4456560000000  0.4630970000000 1.0
C      1  0.4274760000000  0.4488650000000  0.4726250000000 1.0
C      1  0.4407170000000  0.5510910000000  0.5023270000000 1.0
C      1  0.4829860000000  0.4246180000000  0.5125500000000 1.0
C      1  0.5221940000000  0.5085130000000  0.5342700000000 1.0
C      1  0.5412500000000  0.5168440000000  0.5162370000000 1.0
C      1  0.5308420000000  0.4836060000000  0.4254480000000 1.0
C      1  0.4800600000000  0.5453880000000  0.4188620000000 1.0
C      1  0.5395030000000  0.5856680000000  0.4990170000000 1.0
C      1  0.4561230000000  0.4945000000000  0.5548580000000 1.0
C      1  0.4296150000000  0.4860060000000  0.4402570000000 1.0
C      1  0.4846770000000  0.4477870000000  0.4706490000000 1.0
C      1  0.4927740000000  0.4868230000000  0.5068040000000 1.0
C      1  0.4734290000000  0.5050000000000  0.4928350000000 1.0
C      1  0.5038750000000  0.4720320000000  0.5697300000000 1.0
C      1  0.4320220000000  0.4822120000000  0.5106940000000 1.0
C      1  0.5195740000000  0.4415530000000  0.5366180000000 1.0
C      1  0.5247640000000  0.5240200000000  0.4684590000000 1.0
C      1  0.4879000000000  0.5162830000000  0.5831400000000 1.0
C      1  0.5123390000000  0.4294040000000  0.5107810000000 1.0
C      1  0.5729070000000  0.4383420000000  0.5406860000000 1.0
C      1  0.5496990000000  0.5785420000000  0.5260170000000 1.0
C      1  0.5585310000000  0.5540290000000  0.5397390000000 1.0
C      1  0.5204080000000  0.4597980000000  0.4418950000000 1.0
C      1  0.5050210000000  0.5675750000000  0.5388490000000 1.0
C      1  0.4912910000000  0.5771680000000  0.5178100000000 1.0
C      1  0.4376120000000  0.4761840000000  0.5402990000000 1.0
C      1  0.4440470000000  0.5102420000000  0.4340760000000 1.0
C      1  0.4025010000000  0.5176850000000  0.4784940000000 1.0
C      1  0.4701020000000  0.5376020000000  0.5431750000000 1.0
C      1  0.4691970000000  0.5530850000000  0.5125570000000 1.0
C      1  0.4677350000000  0.4109330000000  0.4703230000000 1.0
C      1  0.5653000000000  0.5469990000000  0.4909360000000 1.0
C      1  0.4587310000000  0.5140090000000  0.5774650000000 1.0
C      1  0.5562030000000  0.5718390000000  0.4786400000000 1.0
C      1  0.4891390000000  0.5646160000000  0.4558260000000 1.0
C      1  0.5600230000000  0.4600020000000  0.4684120000000 1.0
C      1  0.4633500000000  0.5529680000000  0.4412680000000 1.0
C      1  0.5502590000000  0.5032660000000  0.4366870000000 1.0
C      1  0.4707980000000  0.4121350000000  0.5370150000000 1.0
C      1  0.4706100000000  0.4706650000000  0.4271190000000 1.0
C      1  0.5452490000000  0.4584320000000  0.5386510000000 1.0
C      1  0.5535580000000  0.4883010000000  0.4618880000000 1.0
C      1  0.4451360000000  0.5327680000000  0.4524100000000 1.0
C      1  0.5513130000000  0.5568370000000  0.4528780000000 1.0
C      1  0.4465930000000  0.4272860000000  0.4811780000000 1.0
C      1  0.4712290000000  0.4357620000000  0.5559690000000 1.0
C      1  0.4682010000000  0.4988270000000  0.4204560000000 1.0
C      1  0.5098780000000  0.4968960000000  0.5781220000000 1.0
C      1  0.4521470000000  0.4539990000000  0.5481070000000 1.0
C      1  0.4917340000000  0.4610200000000  0.4451400000000 1.0
C      1  0.4900660000000  0.5167970000000  0.4112570000000 1.0
C      1  0.4907250000000  0.5402020000000  0.5673740000000 1.0
C      1  0.5876210000000  0.4641650000000  0.4988140000000 1.0
C      1  0.4198080000000  0.5454390000000  0.5536610000000 1.0
C      1  0.4949830000000  0.4195850000000  0.4674940000000 1.0
C      1  0.5690550000000  0.5176030000000  0.5294260000000 1.0
C      1  0.5801060000000  0.5425320000000  0.5165790000000 1.0
C      1  0.5921120000000  0.4876700000000  0.5169180000000 1.0
C      1  0.4022690000000  0.4909210000000  0.4841180000000 1.0
C      1  0.4676680000000  0.4434540000000  0.4944780000000 1.0
C      1  0.4985940000000  0.5414700000000  0.4718260000000 1.0
C      1  0.5414330000000  0.5310800000000  0.4428070000000 1.0
C      1  0.5530520000000  0.4837700000000  0.5532540000000 1.0
C      1  0.5098600000000  0.5908200000000  0.4980860000000 1.0
C      1  0.5612190000000  0.4549060000000  0.4951280000000 1.0
C      1  0.5195360000000  0.4802550000000  0.4964250000000 1.0
C      1  0.4269220000000  0.5494350000000  0.5255280000000 1.0
C      1  0.4976470000000  0.4977630000000  0.5303910000000 1.0
C      1  0.5349670000000  0.5068430000000  0.5603560000000 1.0
C      1  0.5417740000000  0.5392510000000  0.5572910000000 1.0
C      1  0.4443520000000  0.4611370000000  0.4371290000000 1.0
C      1  0.4821840000000  0.5335770000000  0.4937790000000 1.0
C      1  0.5003700000000  0.4473310000000  0.5582400000000 1.0
C      1  0.5901360000000  0.4471950000000  0.5218010000000 1.0
C      1  0.4481530000000  0.5379120000000  0.5637460000000 1.0
C      1  0.5399650000000  0.4656990000000  0.5102160000000 1.0
C      1  0.4393620000000  0.4710720000000  0.4624680000000 1.0
C      1  0.5133130000000  0.5030820000000  0.4177640000000 1.0
C      1  0.5290570000000  0.4950660000000  0.4742250000000 1.0
C      1  0.4136440000000  0.4661240000000  0.4930450000000 1.0
C      1  0.5918840000000  0.5157230000000  0.5105830000000 1.0
C      1  0.5166350000000  0.5540480000000  0.5607250000000 1.0
C      1  0.5423800000000  0.5303070000000  0.4920840000000 1.0
C      1  0.4336670000000  0.5293080000000  0.4808370000000 1.0
C      1  0.5202770000000  0.4274710000000  0.4820420000000 1.0
C      1  0.4943420000000  0.5826770000000  0.4762930000000 1.0
C      1  0.5774570000000  0.4924380000000  0.5416180000000 1.0
END
