TITL C-884132-5695-135 3.99793324393261 125000 -3260.29879291658 0 0 24 (C1) n - 1
REM
REM in /home/nfs/bkarasulu/CARBON/AIRSS/Generating-Clusters/ReaxFF-fromJPCA2015/Units_Real/with-SteepDescent/Only-C1/SD-CG/Try1-3A/FIRE-CG
REM
REM
REM
REM
REM
REM ./C.cell (11c1c37f851c82e70ff6c80c92926a4b)
REM
REM compiler GCC version 9.2.1 20190827 (Red Hat 9.2.1-1)
REM options -cpp -mtune=generic -march=x86-64 -g -O0 -fpre-include=/usr/include/finclude/math-vector-fortran.h
REM seed 611941544 -1503217598 1470821289 107439917 -1737687702 -160052617 -750931658 -1408018622 -1635945894 272433945 -726250462 1445972145 -2002527878 -204580907 1524506851 -2094230216 657918600 1352040156 -2074809147 -615022939 -1658147495 -519350463 -274365125 -536776652 1682015443 1302821683 1566182735 339929737 1293820421 -378110808 789745730 -1772399645 -1130015629
REM
CELL 1.54180   50.00000   50.00000   50.00000   90.00000   90.00000   90.00000
LATT -1
SFAC C  
C      1  0.4650780000000  0.4744370000000  0.5346460000000 1.0
C      1  0.4579910000000  0.5178770000000  0.4547870000000 1.0
C      1  0.4794730000000  0.5315120000000  0.4468220000000 1.0
C      1  0.4939050000000  0.4778360000000  0.5276060000000 1.0
C      1  0.5405490000000  0.4664950000000  0.5249970000000 1.0
C      1  0.4524330000000  0.4887920000000  0.4422840000000 1.0
C      1  0.5590110000000  0.5012940000000  0.4882300000000 1.0
C      1  0.5651310000000  0.5080210000000  0.5145670000000 1.0
C      1  0.5420800000000  0.4835830000000  0.5490570000000 1.0
C      1  0.5073200000000  0.5525550000000  0.5414600000000 1.0
C      1  0.4588000000000  0.5219300000000  0.4834380000000 1.0
C      1  0.4917400000000  0.4570120000000  0.4666930000000 1.0
C      1  0.4710020000000  0.4703050000000  0.4524400000000 1.0
C      1  0.5081960000000  0.4705830000000  0.4894050000000 1.0
C      1  0.5483750000000  0.5120550000000  0.5398200000000 1.0
C      1  0.4419470000000  0.4891350000000  0.5232500000000 1.0
C      1  0.4388970000000  0.5081250000000  0.5007080000000 1.0
C      1  0.4970400000000  0.4943210000000  0.5028930000000 1.0
C      1  0.5285430000000  0.5316190000000  0.5406120000000 1.0
C      1  0.5606040000000  0.4796670000000  0.5057220000000 1.0
C      1  0.5134940000000  0.4583980000000  0.5158070000000 1.0
C      1  0.4857240000000  0.5212890000000  0.4974290000000 1.0
C      1  0.4992400000000  0.5440350000000  0.4394550000000 1.0
C      1  0.4934280000000  0.5391230000000  0.5178740000000 1.0
END
