TITL C-883732-77-188 6.90530755245897 125000 -9927.66500495829 0 0 67 (C1) n - 1
REM
REM in /home/nfs/bkarasulu/CARBON/AIRSS/Generating-Clusters/ReaxFF-fromJPCA2015/Units_Real/with-SteepDescent/Only-C1/SD-CG/Try1-3A/FIRE-CG
REM
REM
REM
REM
REM
REM ./C.cell (11c1c37f851c82e70ff6c80c92926a4b)
REM
REM compiler GCC version 9.2.1 20190827 (Red Hat 9.2.1-1)
REM options -cpp -mtune=generic -march=x86-64 -g -O0 -fpre-include=/usr/include/finclude/math-vector-fortran.h
REM seed 2011868160 -1793185163 313668889 -985900632 -1599517491 1338498008 1658795861 -964812048 -750331632 -1938264010 -2015248703 -569627239 -1647880474 381011963 1104941080 -893359617 -1506261687 -463803482 1853593218 -610526921 -781318540 -1388683186 -1006834276 -1930899022 -777164763 -47937168 647735578 -1777736458 -510736063 1491603910 -1667439081 -394333835 -1089795138
REM
CELL 1.54180   50.00000   50.00000   50.00000   90.00000   90.00000   90.00000
LATT -1
SFAC C  
C      1  0.5318820000000  0.4823190000000  0.4838630000000 1.0
C      1  0.4214460000000  0.4957650000000  0.4740110000000 1.0
C      1  0.5767080000000  0.5354540000000  0.5432050000000 1.0
C      1  0.5200560000000  0.4798760000000  0.5351560000000 1.0
C      1  0.4903650000000  0.5023080000000  0.4673530000000 1.0
C      1  0.5350860000000  0.5285260000000  0.5680810000000 1.0
C      1  0.5492680000000  0.4586150000000  0.4813730000000 1.0
C      1  0.5022680000000  0.4441970000000  0.4855430000000 1.0
C      1  0.5462270000000  0.4948330000000  0.5284880000000 1.0
C      1  0.4551490000000  0.5212780000000  0.5598420000000 1.0
C      1  0.4937140000000  0.5526500000000  0.5450510000000 1.0
C      1  0.4541900000000  0.4362690000000  0.4684460000000 1.0
C      1  0.5219620000000  0.5549670000000  0.4711400000000 1.0
C      1  0.5166230000000  0.4559270000000  0.4574410000000 1.0
C      1  0.5356260000000  0.4541750000000  0.5254530000000 1.0
C      1  0.5550790000000  0.5174380000000  0.5497910000000 1.0
C      1  0.4856170000000  0.4550010000000  0.5520810000000 1.0
C      1  0.5495810000000  0.5137570000000  0.4436210000000 1.0
C      1  0.4766750000000  0.4279370000000  0.4849790000000 1.0
C      1  0.4556550000000  0.5388520000000  0.4446020000000 1.0
C      1  0.4625170000000  0.4705530000000  0.4250090000000 1.0
C      1  0.4443580000000  0.5492610000000  0.5305110000000 1.0
C      1  0.5013140000000  0.5379020000000  0.4340530000000 1.0
C      1  0.4958170000000  0.4953790000000  0.5733170000000 1.0
C      1  0.5759340000000  0.5570200000000  0.5199750000000 1.0
C      1  0.4662840000000  0.5468260000000  0.5503860000000 1.0
C      1  0.5063020000000  0.4732950000000  0.5600420000000 1.0
C      1  0.4614280000000  0.4713270000000  0.5528190000000 1.0
C      1  0.4993830000000  0.4888470000000  0.5123210000000 1.0
C      1  0.5599950000000  0.4686030000000  0.5202420000000 1.0
C      1  0.5788930000000  0.5357330000000  0.5013990000000 1.0
C      1  0.4455650000000  0.5042340000000  0.4910730000000 1.0
C      1  0.4323600000000  0.4455650000000  0.4857200000000 1.0
C      1  0.5109930000000  0.5435150000000  0.5648330000000 1.0
C      1  0.5026510000000  0.5124230000000  0.4945370000000 1.0
C      1  0.4430260000000  0.4711820000000  0.5300140000000 1.0
C      1  0.5129110000000  0.4841440000000  0.4623080000000 1.0
C      1  0.5658650000000  0.5147090000000  0.4887730000000 1.0
C      1  0.4515740000000  0.5525950000000  0.5036560000000 1.0
C      1  0.4675850000000  0.4302970000000  0.5126930000000 1.0
C      1  0.4907210000000  0.4361810000000  0.5299020000000 1.0
C      1  0.4359350000000  0.5210960000000  0.5376680000000 1.0
C      1  0.4793210000000  0.5181120000000  0.4390470000000 1.0
C      1  0.4864940000000  0.4699500000000  0.4963110000000 1.0
C      1  0.4971740000000  0.5553590000000  0.4566650000000 1.0
C      1  0.4674630000000  0.5541160000000  0.4659400000000 1.0
C      1  0.4259280000000  0.4676940000000  0.4664750000000 1.0
C      1  0.4682950000000  0.4960160000000  0.5664650000000 1.0
C      1  0.5148140000000  0.4383040000000  0.5133180000000 1.0
C      1  0.4552940000000  0.4638970000000  0.4552950000000 1.0
C      1  0.5384570000000  0.5058080000000  0.5002000000000 1.0
C      1  0.4433420000000  0.4472340000000  0.5129010000000 1.0
C      1  0.4377940000000  0.4981200000000  0.5195900000000 1.0
C      1  0.5295810000000  0.5307680000000  0.4304660000000 1.0
C      1  0.4620760000000  0.5356550000000  0.4911190000000 1.0
C      1  0.4726200000000  0.4957120000000  0.4175220000000 1.0
C      1  0.4684780000000  0.4844240000000  0.4774750000000 1.0
C      1  0.4871150000000  0.5337350000000  0.5039200000000 1.0
C      1  0.5105320000000  0.5186040000000  0.5782100000000 1.0
C      1  0.5452800000000  0.4601730000000  0.4524810000000 1.0
C      1  0.5237110000000  0.5627390000000  0.5008020000000 1.0
C      1  0.5418990000000  0.5405930000000  0.4550890000000 1.0
C      1  0.5737410000000  0.4679080000000  0.4943770000000 1.0
C      1  0.5594840000000  0.4871390000000  0.4515070000000 1.0
C      1  0.5496630000000  0.5626400000000  0.5112300000000 1.0
C      1  0.5006660000000  0.5542310000000  0.5176980000000 1.0
C      1  0.5761900000000  0.4902370000000  0.4751250000000 1.0
END
