TITL C-884127-5181-412 7.38603093824858 125000 -4358.26582921875 0 0 31 (C1) n - 1
REM
REM in /home/nfs/bkarasulu/CARBON/AIRSS/Generating-Clusters/ReaxFF-fromJPCA2015/Units_Real/with-SteepDescent/Only-C1/SD-CG/Try1-3A/FIRE-CG
REM
REM
REM
REM
REM
REM ./C.cell (11c1c37f851c82e70ff6c80c92926a4b)
REM
REM compiler GCC version 9.2.1 20190827 (Red Hat 9.2.1-1)
REM options -cpp -mtune=generic -march=x86-64 -g -O0 -fpre-include=/usr/include/finclude/math-vector-fortran.h
REM seed 1639680661 -1168671154 -1909845828 -1981545328 -1076053355 439988273 65764064 -1255093709 1144421056 -1981843032 -341245784 -600118762 -720578673 1369866537 -1463727032 -1212996050 -197123789 343144189 -1411428960 -169797338 114261830 1613328164 867019451 26751685 -1802149266 -803310868 915628479 -545216462 -841546729 1473635149 388716220 286366632 5138593
REM
CELL 1.54180   50.00000   50.00000   50.00000   90.00000   90.00000   90.00000
LATT -1
SFAC C  
C      1  0.5310250000000  0.5345100000000  0.4729930000000 1.0
C      1  0.4171930000000  0.4963790000000  0.4973520000000 1.0
C      1  0.4798790000000  0.4769920000000  0.4613110000000 1.0
C      1  0.5006330000000  0.4420060000000  0.4970860000000 1.0
C      1  0.4775220000000  0.4612850000000  0.4859470000000 1.0
C      1  0.4844880000000  0.5164450000000  0.5290600000000 1.0
C      1  0.5255610000000  0.4556160000000  0.5102170000000 1.0
C      1  0.4866810000000  0.5421060000000  0.4868910000000 1.0
C      1  0.5052110000000  0.4537580000000  0.5642310000000 1.0
C      1  0.4946520000000  0.4888360000000  0.5216070000000 1.0
C      1  0.5455580000000  0.4926060000000  0.4985830000000 1.0
C      1  0.4834810000000  0.5714730000000  0.4799660000000 1.0
C      1  0.4967430000000  0.5387230000000  0.5148250000000 1.0
C      1  0.4544800000000  0.5150980000000  0.5323710000000 1.0
C      1  0.5495070000000  0.4932330000000  0.5284180000000 1.0
C      1  0.5151420000000  0.4239510000000  0.4855570000000 1.0
C      1  0.5122800000000  0.5770640000000  0.4869630000000 1.0
C      1  0.5086040000000  0.4737030000000  0.5491100000000 1.0
C      1  0.4695110000000  0.4769240000000  0.5090530000000 1.0
C      1  0.5285510000000  0.4964170000000  0.4572350000000 1.0
C      1  0.5473530000000  0.5095140000000  0.4739370000000 1.0
C      1  0.4537790000000  0.4855040000000  0.4626150000000 1.0
C      1  0.5345860000000  0.4668430000000  0.5362120000000 1.0
C      1  0.5258400000000  0.5426550000000  0.5210190000000 1.0
C      1  0.5029760000000  0.5271360000000  0.4671650000000 1.0
C      1  0.4329880000000  0.4923620000000  0.4749660000000 1.0
C      1  0.4454680000000  0.4928650000000  0.5145580000000 1.0
C      1  0.5181870000000  0.4824250000000  0.5011660000000 1.0
C      1  0.5011390000000  0.4991080000000  0.4562270000000 1.0
C      1  0.5312790000000  0.5550600000000  0.4943170000000 1.0
C      1  0.5397050000000  0.5194030000000  0.5290410000000 1.0
END
