TITL C-883731-9874-10 20281348.5681052 125000 -28395.1046990135 0 0 190 (C1) n - 1
REM
REM in /home/nfs/bkarasulu/CARBON/AIRSS/Generating-Clusters/ReaxFF-fromJPCA2015/Units_Real/with-SteepDescent/Only-C1/SD-CG/Try1-3A/FIRE-CG
REM
REM
REM
REM
REM
REM ./C.cell (11c1c37f851c82e70ff6c80c92926a4b)
REM
REM compiler GCC version 9.2.1 20190827 (Red Hat 9.2.1-1)
REM options -cpp -mtune=generic -march=x86-64 -g -O0 -fpre-include=/usr/include/finclude/math-vector-fortran.h
REM seed 1864192555 958759645 345961831 2137243609 -1311521080 568460838 -165724278 1357805790 917911278 -638265082 2000778296 294876908 -1112219763 182435135 712637401 -856788636 -1784426819 1550325207 -1945434644 -30435651 -1245482906 -1653469541 -630284646 -1549275063 -987795285 2043700335 -1881829560 -723844440 1519726921 913522872 -510062751 1951632782 1781704140
REM
CELL 1.54180   50.00000   50.00000   50.00000   90.00000   90.00000   90.00000
LATT -1
SFAC C  
C      1  0.5988010000000  0.5669790000000  0.4784570000000 1.0
C      1  0.5521930000000  0.5979360000000  0.5289550000000 1.0
C      1  0.5568890000000  0.4184350000000  0.5411720000000 1.0
C      1  0.5576600000000  0.5104530000000  0.4128690000000 1.0
C      1  0.5858950000000  0.5526800000000  0.4260140000000 1.0
C      1  0.4702360000000  0.5652720000000  0.4067440000000 1.0
C      1  0.5428020000000  0.4699630000000  0.6016610000000 1.0
C      1  0.4737910000000  0.4560120000000  0.4043280000000 1.0
C      1  0.5142490000000  0.3892100000000  0.5256710000000 1.0
C      1  0.3784160000000  0.4636230000000  0.4678520000000 1.0
C      1  0.4493240000000  0.5826430000000  0.5124050000000 1.0
C      1  0.4621920000000  0.4910900000000  0.5775960000000 1.0
C      1  0.5050910000000  0.5921300000000  0.4450210000000 1.0
C      1  0.5926240000000  0.5599640000000  0.5271850000000 1.0
C      1  0.5209950000000  0.5346170000000  0.5866770000000 1.0
C      1  0.4051950000000  0.4882380000000  0.4287870000000 1.0
C      1  0.5725700000000  0.4234250000000  0.5169630000000 1.0
C      1  0.4556220000000  0.4502110000000  0.5592470000000 1.0
C      1  0.5107630000000  0.5352610000000  0.4600720000000 1.0
C      1  0.4316980000000  0.4833380000000  0.5733410000000 1.0
C      1  0.5153370000000  0.5120890000000  0.5121980000000 1.0
C      1  0.4349080000000  0.4158360000000  0.4519740000000 1.0
C      1  0.5589470000000  0.5308440000000  0.5410510000000 1.0
C      1  0.4438500000000  0.5696270000000  0.4187440000000 1.0
C      1  0.5254710000000  0.4643340000000  0.5127040000000 1.0
C      1  0.4904340000000  0.4629250000000  0.6094240000000 1.0
C      1  0.5604390000000  0.4412460000000  0.4274540000000 1.0
C      1  0.6119050000000  0.5194960000000  0.4579990000000 1.0
C      1  0.4202610000000  0.4862030000000  0.5441380000000 1.0
C      1  0.5371250000000  0.4897530000000  0.5512460000000 1.0
C      1  0.4715190000000  0.6062660000000  0.4845510000000 1.0
C      1  0.5592550000000  0.5911710000000  0.5003340000000 1.0
C      1  0.4255900000000  0.4783370000000  0.4118440000000 1.0
C      1  0.5918120000000  0.4768660000000  0.4342330000000 1.0
C      1  0.5421720000000  0.5535870000000  0.5813190000000 1.0
C      1  0.3889030000000  0.4658200000000  0.4401700000000 1.0
C      1  0.4945400000000  0.5656580000000  0.6029220000000 1.0
C      1  0.5510300000000  0.4192190000000  0.4968970000000 1.0
C      1  0.5012280000000  0.4500340000000  0.4011520000000 1.0
C      1  0.4324010000000  0.5719640000000  0.5560160000000 1.0
C      1  0.4537570000000  0.5029680000000  0.3960070000000 1.0
C      1  0.4085490000000  0.5581090000000  0.4671150000000 1.0
C      1  0.6043270000000  0.4596890000000  0.5400110000000 1.0
C      1  0.4124670000000  0.4422400000000  0.5533740000000 1.0
C      1  0.5497910000000  0.4200580000000  0.4455370000000 1.0
C      1  0.4111340000000  0.5398310000000  0.4425870000000 1.0
C      1  0.4258410000000  0.5815110000000  0.4659300000000 1.0
C      1  0.5727220000000  0.5923100000000  0.5503540000000 1.0
C      1  0.4656050000000  0.5574850000000  0.5135920000000 1.0
C      1  0.4259280000000  0.5808140000000  0.5295950000000 1.0
C      1  0.5782930000000  0.4847820000000  0.5202510000000 1.0
C      1  0.5861830000000  0.4700670000000  0.5615970000000 1.0
C      1  0.5650570000000  0.4199150000000  0.4710980000000 1.0
C      1  0.5238690000000  0.4063920000000  0.4454200000000 1.0
C      1  0.5119380000000  0.6187830000000  0.4920850000000 1.0
C      1  0.4874190000000  0.5503650000000  0.4496340000000 1.0
C      1  0.5621490000000  0.5394950000000  0.4123430000000 1.0
C      1  0.4733600000000  0.5395750000000  0.3943730000000 1.0
C      1  0.4313760000000  0.5004520000000  0.5219020000000 1.0
C      1  0.4818730000000  0.5007450000000  0.5078220000000 1.0
C      1  0.5105700000000  0.4981490000000  0.3952180000000 1.0
C      1  0.4127330000000  0.4607240000000  0.5034230000000 1.0
C      1  0.5910850000000  0.5648020000000  0.4510540000000 1.0
C      1  0.6066920000000  0.4869680000000  0.5283660000000 1.0
C      1  0.4233280000000  0.4244770000000  0.5333110000000 1.0
C      1  0.4960370000000  0.4425930000000  0.4395590000000 1.0
C      1  0.4396470000000  0.4005580000000  0.5366870000000 1.0
C      1  0.5283570000000  0.4398050000000  0.5010400000000 1.0
C      1  0.5847800000000  0.4494360000000  0.4411350000000 1.0
C      1  0.4308700000000  0.5329140000000  0.5773200000000 1.0
C      1  0.5066400000000  0.5177610000000  0.5675920000000 1.0
C      1  0.4940130000000  0.5136450000000  0.6094770000000 1.0
C      1  0.5271450000000  0.4771980000000  0.4368680000000 1.0
C      1  0.4541520000000  0.4884270000000  0.4647990000000 1.0
C      1  0.4576410000000  0.4010230000000  0.4888560000000 1.0
C      1  0.4593700000000  0.3992910000000  0.4570360000000 1.0
C      1  0.5827960000000  0.5648330000000  0.5545560000000 1.0
C      1  0.5706970000000  0.5235840000000  0.4583960000000 1.0
C      1  0.5562350000000  0.4422700000000  0.5583590000000 1.0
C      1  0.4648120000000  0.4056370000000  0.5517670000000 1.0
C      1  0.5333930000000  0.5533330000000  0.4491600000000 1.0
C      1  0.5023760000000  0.4186200000000  0.4262390000000 1.0
C      1  0.5135140000000  0.5486120000000  0.4093410000000 1.0
C      1  0.5371560000000  0.5039700000000  0.4332110000000 1.0
C      1  0.5955320000000  0.4419740000000  0.5170560000000 1.0
C      1  0.4800750000000  0.4652360000000  0.4321620000000 1.0
C      1  0.5039620000000  0.5691430000000  0.5246260000000 1.0
C      1  0.4565880000000  0.4594170000000  0.5325360000000 1.0
C      1  0.4874350000000  0.3998760000000  0.5334430000000 1.0
C      1  0.5514320000000  0.5424530000000  0.4984190000000 1.0
C      1  0.5156300000000  0.5640450000000  0.4979260000000 1.0
C      1  0.5496840000000  0.5527510000000  0.5244770000000 1.0
C      1  0.5896630000000  0.5311310000000  0.5312720000000 1.0
C      1  0.4946880000000  0.6073350000000  0.4664410000000 1.0
C      1  0.5026040000000  0.4453880000000  0.5477890000000 1.0
C      1  0.5340210000000  0.5134230000000  0.5356250000000 1.0
C      1  0.4803500000000  0.5401370000000  0.6025320000000 1.0
C      1  0.5427820000000  0.4443810000000  0.5840560000000 1.0
C      1  0.4275690000000  0.5457630000000  0.4189310000000 1.0
C      1  0.5011690000000  0.4598650000000  0.5233480000000 1.0
C      1  0.5011180000000  0.5259340000000  0.3968780000000 1.0
C      1  0.5025140000000  0.4171250000000  0.5511890000000 1.0
C      1  0.3865190000000  0.5311040000000  0.5096780000000 1.0
C      1  0.4323240000000  0.4520330000000  0.5730840000000 1.0
C      1  0.5029560000000  0.5819190000000  0.5787100000000 1.0
C      1  0.4855170000000  0.5486130000000  0.5315190000000 1.0
C      1  0.5471660000000  0.4874900000000  0.4784730000000 1.0
C      1  0.4540670000000  0.4609660000000  0.4536760000000 1.0
C      1  0.4917380000000  0.4403560000000  0.5871200000000 1.0
C      1  0.5232910000000  0.5143160000000  0.6068050000000 1.0
C      1  0.4465250000000  0.5286290000000  0.4015770000000 1.0
C      1  0.4945730000000  0.5676590000000  0.4248070000000 1.0
C      1  0.5925030000000  0.5257500000000  0.4370970000000 1.0
C      1  0.4572340000000  0.4292360000000  0.4948130000000 1.0
C      1  0.4075910000000  0.4245210000000  0.4644140000000 1.0
C      1  0.4397710000000  0.4434180000000  0.5150530000000 1.0
C      1  0.4695340000000  0.4468620000000  0.4761370000000 1.0
C      1  0.6029810000000  0.4488330000000  0.4896260000000 1.0
C      1  0.4312730000000  0.5072380000000  0.4700600000000 1.0
C      1  0.4474790000000  0.5765830000000  0.4472710000000 1.0
C      1  0.5354470000000  0.5780070000000  0.4828720000000 1.0
C      1  0.6035650000000  0.5104660000000  0.5459020000000 1.0
C      1  0.4959150000000  0.4398370000000  0.4668910000000 1.0
C      1  0.4990640000000  0.4627010000000  0.5689180000000 1.0
C      1  0.4722090000000  0.5005190000000  0.5526220000000 1.0
C      1  0.5749650000000  0.5319620000000  0.4850890000000 1.0
C      1  0.5306880000000  0.5819340000000  0.4541670000000 1.0
C      1  0.4342640000000  0.4410800000000  0.4381740000000 1.0
C      1  0.4204220000000  0.5090370000000  0.5888930000000 1.0
C      1  0.5852540000000  0.5763840000000  0.5031700000000 1.0
C      1  0.4116310000000  0.5114020000000  0.4469750000000 1.0
C      1  0.5201420000000  0.4268990000000  0.5862900000000 1.0
C      1  0.4619450000000  0.5444000000000  0.5783810000000 1.0
C      1  0.3873570000000  0.5029560000000  0.5001580000000 1.0
C      1  0.6072660000000  0.4905350000000  0.4555370000000 1.0
C      1  0.5392810000000  0.6206780000000  0.4987990000000 1.0
C      1  0.4875180000000  0.6126970000000  0.5092820000000 1.0
C      1  0.5340180000000  0.5740670000000  0.5381410000000 1.0
C      1  0.4574790000000  0.5139060000000  0.5175070000000 1.0
C      1  0.4047520000000  0.4420460000000  0.4403680000000 1.0
C      1  0.4894570000000  0.5958280000000  0.5326590000000 1.0
C      1  0.5176140000000  0.3935750000000  0.4980300000000 1.0
C      1  0.4059310000000  0.4633100000000  0.5340990000000 1.0
C      1  0.5891790000000  0.4985270000000  0.5691450000000 1.0
C      1  0.5226090000000  0.5364920000000  0.4921440000000 1.0
C      1  0.5379710000000  0.5502380000000  0.4214900000000 1.0
C      1  0.5129410000000  0.4888380000000  0.5667660000000 1.0
C      1  0.5289560000000  0.5749370000000  0.5681800000000 1.0
C      1  0.4496870000000  0.4750040000000  0.3967150000000 1.0
C      1  0.5605680000000  0.4702730000000  0.5452390000000 1.0
C      1  0.3980210000000  0.4455880000000  0.4822450000000 1.0
C      1  0.4046640000000  0.5661290000000  0.5195860000000 1.0
C      1  0.5688050000000  0.5132960000000  0.5831950000000 1.0
C      1  0.4168050000000  0.4918820000000  0.4977320000000 1.0
C      1  0.4779920000000  0.4784220000000  0.5267530000000 1.0
C      1  0.3739820000000  0.4872860000000  0.4825690000000 1.0
C      1  0.4981730000000  0.5060390000000  0.4580870000000 1.0
C      1  0.5480050000000  0.5087860000000  0.4582760000000 1.0
C      1  0.4817940000000  0.4057090000000  0.4412400000000 1.0
C      1  0.5222470000000  0.3990920000000  0.4729680000000 1.0
C      1  0.4788550000000  0.4970890000000  0.4773960000000 1.0
C      1  0.5656650000000  0.5410630000000  0.5715900000000 1.0
C      1  0.5764790000000  0.4847400000000  0.4927730000000 1.0
C      1  0.4809930000000  0.5901290000000  0.5600840000000 1.0
C      1  0.4534570000000  0.5359240000000  0.5023540000000 1.0
C      1  0.6022590000000  0.4774970000000  0.4814780000000 1.0
C      1  0.5165780000000  0.4723930000000  0.6093090000000 1.0
C      1  0.4466090000000  0.5331460000000  0.4761420000000 1.0
C      1  0.4784660000000  0.4894000000000  0.6031400000000 1.0
C      1  0.5288460000000  0.4883920000000  0.5011470000000 1.0
C      1  0.5888250000000  0.4362390000000  0.4675830000000 1.0
C      1  0.4609300000000  0.5516170000000  0.4584430000000 1.0
C      1  0.4823360000000  0.5298100000000  0.5543100000000 1.0
C      1  0.3979040000000  0.5531120000000  0.4938410000000 1.0
C      1  0.4661210000000  0.4283090000000  0.5704250000000 1.0
C      1  0.5474390000000  0.4993870000000  0.5986340000000 1.0
C      1  0.5348850000000  0.4658680000000  0.4622760000000 1.0
C      1  0.6036860000000  0.5373450000000  0.4801750000000 1.0
C      1  0.5712720000000  0.4847200000000  0.4141620000000 1.0
C      1  0.5200940000000  0.4475480000000  0.4760640000000 1.0
C      1  0.4437430000000  0.3862930000000  0.5100800000000 1.0
C      1  0.5205060000000  0.4712780000000  0.3976760000000 1.0
C      1  0.5495720000000  0.4641490000000  0.4116200000000 1.0
C      1  0.4169370000000  0.5475140000000  0.5560210000000 1.0
C      1  0.4588050000000  0.5721800000000  0.5681940000000 1.0
C      1  0.5001150000000  0.4873400000000  0.4368570000000 1.0
C      1  0.4444690000000  0.5939130000000  0.4858900000000 1.0
C      1  0.3971020000000  0.5435010000000  0.5345900000000 1.0
C      1  0.5224140000000  0.4037980000000  0.5690040000000 1.0
C      1  0.5363910000000  0.3976680000000  0.5440890000000 1.0
END
