TITL C-883738-3659-399 -3.75867284940319 125000 -14120.2676682942 0 0 96 (C1) n - 1
REM
REM in /home/nfs/bkarasulu/CARBON/AIRSS/Generating-Clusters/ReaxFF-fromJPCA2015/Units_Real/with-SteepDescent/Only-C1/SD-CG/Try1-3A/FIRE-CG
REM
REM
REM
REM
REM
REM ./C.cell (11c1c37f851c82e70ff6c80c92926a4b)
REM
REM compiler GCC version 9.2.1 20190827 (Red Hat 9.2.1-1)
REM options -cpp -mtune=generic -march=x86-64 -g -O0 -fpre-include=/usr/include/finclude/math-vector-fortran.h
REM seed -1743411534 388453704 1772099323 -1585520666 -1039232982 1296147513 562359213 -527283026 1136184170 450050966 713845635 1534822337 297658889 1176325136 1951125609 -1779913780 1338689937 371874950 1335560388 -589136171 -1423458858 1960815297 402336171 603411041 -674761754 1033208130 -2056793191 1702970589 -1133523303 1179742948 1413007797 1889588545 1713017677
REM
CELL 1.54180   50.00000   50.00000   50.00000   90.00000   90.00000   90.00000
LATT -1
SFAC C  
C      1  0.4815750000000  0.5738270000000  0.4840660000000 1.0
C      1  0.5724780000000  0.4486550000000  0.5252390000000 1.0
C      1  0.5682760000000  0.4295450000000  0.5030950000000 1.0
C      1  0.4997670000000  0.5344800000000  0.4582240000000 1.0
C      1  0.4361690000000  0.5422290000000  0.4717520000000 1.0
C      1  0.4240270000000  0.5507640000000  0.4953850000000 1.0
C      1  0.5205190000000  0.4731420000000  0.5778870000000 1.0
C      1  0.5448880000000  0.5594370000000  0.4530710000000 1.0
C      1  0.4603440000000  0.4599810000000  0.4484670000000 1.0
C      1  0.5740140000000  0.5215570000000  0.4769580000000 1.0
C      1  0.4239180000000  0.4592890000000  0.4889360000000 1.0
C      1  0.4433200000000  0.4813740000000  0.5717210000000 1.0
C      1  0.5207240000000  0.5150610000000  0.4635500000000 1.0
C      1  0.4419480000000  0.4807130000000  0.4471280000000 1.0
C      1  0.4927980000000  0.4130900000000  0.4971870000000 1.0
C      1  0.5137610000000  0.5275560000000  0.4180840000000 1.0
C      1  0.4792300000000  0.5071510000000  0.4843890000000 1.0
C      1  0.5219470000000  0.5717260000000  0.5159480000000 1.0
C      1  0.5599490000000  0.5351640000000  0.4547420000000 1.0
C      1  0.4269290000000  0.5087430000000  0.4976880000000 1.0
C      1  0.4827460000000  0.5610440000000  0.5586120000000 1.0
C      1  0.5096960000000  0.4968670000000  0.5901850000000 1.0
C      1  0.5754230000000  0.4768560000000  0.5157010000000 1.0
C      1  0.4375740000000  0.5750550000000  0.5075680000000 1.0
C      1  0.4945550000000  0.5578990000000  0.5079070000000 1.0
C      1  0.5387170000000  0.5186210000000  0.4384720000000 1.0
C      1  0.4671780000000  0.4508930000000  0.4782710000000 1.0
C      1  0.5478790000000  0.4646990000000  0.4777540000000 1.0
C      1  0.4554640000000  0.5084460000000  0.5019870000000 1.0
C      1  0.4186990000000  0.5226240000000  0.5403990000000 1.0
C      1  0.5032830000000  0.4387450000000  0.4514140000000 1.0
C      1  0.5399860000000  0.5623030000000  0.5365230000000 1.0
C      1  0.4358130000000  0.5366390000000  0.5536160000000 1.0
C      1  0.4896970000000  0.4256660000000  0.5231450000000 1.0
C      1  0.5557270000000  0.4350990000000  0.4513390000000 1.0
C      1  0.5313820000000  0.4845730000000  0.4904690000000 1.0
C      1  0.4603220000000  0.4971620000000  0.5271480000000 1.0
C      1  0.5006130000000  0.5253500000000  0.5034590000000 1.0
C      1  0.4934570000000  0.5078240000000  0.4265780000000 1.0
C      1  0.4722810000000  0.4205410000000  0.5450970000000 1.0
C      1  0.4888660000000  0.5077740000000  0.5746820000000 1.0
C      1  0.4108560000000  0.4765400000000  0.4736070000000 1.0
C      1  0.5659680000000  0.4443060000000  0.4762280000000 1.0
C      1  0.5441760000000  0.5477920000000  0.4928520000000 1.0
C      1  0.5198670000000  0.4110090000000  0.4942670000000 1.0
C      1  0.5811860000000  0.4940720000000  0.4608230000000 1.0
C      1  0.5456590000000  0.4771710000000  0.5159540000000 1.0
C      1  0.5523240000000  0.5017150000000  0.5477180000000 1.0
C      1  0.5571420000000  0.5501020000000  0.5164830000000 1.0
C      1  0.5081530000000  0.5553550000000  0.4165900000000 1.0
C      1  0.5515270000000  0.4544190000000  0.4294940000000 1.0
C      1  0.4395820000000  0.4535380000000  0.5270830000000 1.0
C      1  0.4824930000000  0.4776270000000  0.4850380000000 1.0
C      1  0.4599120000000  0.4587220000000  0.5720100000000 1.0
C      1  0.4258780000000  0.4962720000000  0.5550610000000 1.0
C      1  0.4528850000000  0.5749480000000  0.5326190000000 1.0
C      1  0.5729890000000  0.5256740000000  0.5071650000000 1.0
C      1  0.4522610000000  0.4403140000000  0.5500510000000 1.0
C      1  0.5293520000000  0.5197270000000  0.5452690000000 1.0
C      1  0.4109460000000  0.5050200000000  0.4756980000000 1.0
C      1  0.5671330000000  0.4792980000000  0.4372910000000 1.0
C      1  0.4464770000000  0.5284740000000  0.4506410000000 1.0
C      1  0.4521140000000  0.5587090000000  0.5583880000000 1.0
C      1  0.5056550000000  0.4688970000000  0.4983640000000 1.0
C      1  0.4550860000000  0.5876140000000  0.4868680000000 1.0
C      1  0.5047550000000  0.5820350000000  0.4691110000000 1.0
C      1  0.4272410000000  0.5047060000000  0.4491000000000 1.0
C      1  0.5056650000000  0.5145130000000  0.5290760000000 1.0
C      1  0.4873660000000  0.4584350000000  0.4369090000000 1.0
C      1  0.5462950000000  0.4561980000000  0.5369860000000 1.0
C      1  0.5302100000000  0.4359820000000  0.4437490000000 1.0
C      1  0.4933840000000  0.4565280000000  0.5693910000000 1.0
C      1  0.4373720000000  0.4817060000000  0.5322670000000 1.0
C      1  0.5021810000000  0.4799560000000  0.4240810000000 1.0
C      1  0.4886250000000  0.4298450000000  0.4748190000000 1.0
C      1  0.4133540000000  0.5273690000000  0.5102470000000 1.0
C      1  0.5032980000000  0.5285290000000  0.5867370000000 1.0
C      1  0.4956950000000  0.4694850000000  0.5452380000000 1.0
C      1  0.5427650000000  0.4758250000000  0.5590300000000 1.0
C      1  0.4817050000000  0.5711900000000  0.5316720000000 1.0
C      1  0.5737670000000  0.5041140000000  0.5272160000000 1.0
C      1  0.5476360000000  0.5716430000000  0.4787190000000 1.0
C      1  0.4761390000000  0.5185420000000  0.4513130000000 1.0
C      1  0.5295780000000  0.5460280000000  0.5591100000000 1.0
C      1  0.4858780000000  0.4989230000000  0.5430560000000 1.0
C      1  0.5439990000000  0.4164200000000  0.4993350000000 1.0
C      1  0.5054490000000  0.5520460000000  0.5725350000000 1.0
C      1  0.4437060000000  0.4451940000000  0.4991350000000 1.0
C      1  0.6037700000000  0.4938490000000  0.4721450000000 1.0
C      1  0.5305970000000  0.4748970000000  0.4185090000000 1.0
C      1  0.5246810000000  0.5856590000000  0.4902460000000 1.0
C      1  0.4898250000000  0.4313320000000  0.5636610000000 1.0
C      1  0.5267720000000  0.5250710000000  0.4903450000000 1.0
C      1  0.5004740000000  0.4527080000000  0.5223920000000 1.0
C      1  0.5138930000000  0.5611600000000  0.4484290000000 1.0
C      1  0.5483670000000  0.4946280000000  0.4260380000000 1.0
END
