TITL C-884132-5695-362 -0.357725049998971 125000 -9755.2479115498 0 0 66 (C1) n - 1
REM
REM in /home/nfs/bkarasulu/CARBON/AIRSS/Generating-Clusters/ReaxFF-fromJPCA2015/Units_Real/with-SteepDescent/Only-C1/SD-CG/Try1-3A/FIRE-CG
REM
REM
REM
REM
REM
REM ./C.cell (11c1c37f851c82e70ff6c80c92926a4b)
REM
REM compiler GCC version 9.2.1 20190827 (Red Hat 9.2.1-1)
REM options -cpp -mtune=generic -march=x86-64 -g -O0 -fpre-include=/usr/include/finclude/math-vector-fortran.h
REM seed 1978390567 1953233858 626839374 1259832525 -1662187492 -340293862 -394738832 1161791070 -1394356870 1326719378 -348663738 1950534032 2005869639 1022718176 -1123494749 -932964656 925890262 -2125269343 -1795047959 -1101898008 1010876940 847391720 -778230822 -62453719 -1467138518 -23676801 -855901494 483722152 -1877073879 2074566272 -656682101 1337361531 -1573078332
REM
CELL 1.54180   50.00000   50.00000   50.00000   90.00000   90.00000   90.00000
LATT -1
SFAC C  
C      1  0.5422860000000  0.5545670000000  0.5443960000000 1.0
C      1  0.4584890000000  0.4836720000000  0.4420410000000 1.0
C      1  0.5682620000000  0.5477550000000  0.4943220000000 1.0
C      1  0.4346590000000  0.4494440000000  0.4808930000000 1.0
C      1  0.5599480000000  0.5402140000000  0.5220730000000 1.0
C      1  0.4418930000000  0.4464880000000  0.5094520000000 1.0
C      1  0.5091260000000  0.5107150000000  0.4889100000000 1.0
C      1  0.5574960000000  0.5314720000000  0.4515530000000 1.0
C      1  0.5143460000000  0.5481170000000  0.4601400000000 1.0
C      1  0.5524300000000  0.4622790000000  0.5149970000000 1.0
C      1  0.4405440000000  0.5412740000000  0.4508230000000 1.0
C      1  0.5062580000000  0.4608720000000  0.4473810000000 1.0
C      1  0.5060370000000  0.5809180000000  0.5151210000000 1.0
C      1  0.4816150000000  0.4746710000000  0.5142480000000 1.0
C      1  0.5267240000000  0.4820060000000  0.4455680000000 1.0
C      1  0.5164600000000  0.5421210000000  0.4895720000000 1.0
C      1  0.4871540000000  0.5480360000000  0.5411290000000 1.0
C      1  0.4884570000000  0.5428240000000  0.4501380000000 1.0
C      1  0.5093880000000  0.4551690000000  0.5620240000000 1.0
C      1  0.4852040000000  0.5207330000000  0.5527700000000 1.0
C      1  0.4888750000000  0.4972830000000  0.5001700000000 1.0
C      1  0.4608660000000  0.5061790000000  0.5481910000000 1.0
C      1  0.5282220000000  0.4884890000000  0.4897960000000 1.0
C      1  0.5260340000000  0.4933090000000  0.5443640000000 1.0
C      1  0.4635760000000  0.4478300000000  0.4732150000000 1.0
C      1  0.4919380000000  0.5191730000000  0.4317060000000 1.0
C      1  0.4241030000000  0.5169100000000  0.5131260000000 1.0
C      1  0.4439220000000  0.5257180000000  0.4282250000000 1.0
C      1  0.5693950000000  0.5089320000000  0.5257430000000 1.0
C      1  0.5247010000000  0.4687150000000  0.5107690000000 1.0
C      1  0.5062230000000  0.4729330000000  0.5341770000000 1.0
C      1  0.5489040000000  0.4813160000000  0.4691370000000 1.0
C      1  0.4704530000000  0.4502200000000  0.5021140000000 1.0
C      1  0.5184820000000  0.5064850000000  0.4335180000000 1.0
C      1  0.4896980000000  0.4351340000000  0.5537940000000 1.0
C      1  0.5776860000000  0.5319870000000  0.4706460000000 1.0
C      1  0.4329900000000  0.4905730000000  0.4555160000000 1.0
C      1  0.4236190000000  0.4766590000000  0.4791100000000 1.0
C      1  0.5031170000000  0.4199960000000  0.5300980000000 1.0
C      1  0.5734470000000  0.5029100000000  0.5005590000000 1.0
C      1  0.5136560000000  0.5138520000000  0.5597250000000 1.0
C      1  0.5358230000000  0.4592610000000  0.5671580000000 1.0
C      1  0.5320230000000  0.5334420000000  0.4405860000000 1.0
C      1  0.4759300000000  0.4630760000000  0.4517520000000 1.0
C      1  0.5741920000000  0.5014790000000  0.4735570000000 1.0
C      1  0.4908670000000  0.5546180000000  0.5093420000000 1.0
C      1  0.4336290000000  0.4693590000000  0.5258930000000 1.0
C      1  0.4967580000000  0.5693620000000  0.5589160000000 1.0
C      1  0.5209520000000  0.5756880000000  0.5401310000000 1.0
C      1  0.4692860000000  0.4543890000000  0.5519720000000 1.0
C      1  0.4253990000000  0.5176760000000  0.4485570000000 1.0
C      1  0.4647560000000  0.5494100000000  0.4944690000000 1.0
C      1  0.5551300000000  0.4852170000000  0.5371460000000 1.0
C      1  0.4233320000000  0.4883690000000  0.5063080000000 1.0
C      1  0.4639760000000  0.5473310000000  0.4658640000000 1.0
C      1  0.4661740000000  0.5068750000000  0.4258110000000 1.0
C      1  0.5337260000000  0.5364330000000  0.5653020000000 1.0
C      1  0.5553110000000  0.4555900000000  0.4869040000000 1.0
C      1  0.4424640000000  0.5401180000000  0.5105910000000 1.0
C      1  0.5201330000000  0.4447220000000  0.4653720000000 1.0
C      1  0.5424820000000  0.5478570000000  0.5001210000000 1.0
C      1  0.5355190000000  0.4328120000000  0.4846730000000 1.0
C      1  0.5613290000000  0.4687360000000  0.5665620000000 1.0
C      1  0.4526110000000  0.4766650000000  0.5478690000000 1.0
C      1  0.4413850000000  0.5239720000000  0.5356220000000 1.0
C      1  0.5201290000000  0.4195900000000  0.5082710000000 1.0
END
