TITL C-884131-4643-309 0.722602564503887 125000 -17447.9988684567 0 0 118 (C1) n - 1
REM
REM in /home/nfs/bkarasulu/CARBON/AIRSS/Generating-Clusters/ReaxFF-fromJPCA2015/Units_Real/with-SteepDescent/Only-C1/SD-CG/Try1-3A/FIRE-CG
REM
REM
REM
REM
REM
REM ./C.cell (11c1c37f851c82e70ff6c80c92926a4b)
REM
REM compiler GCC version 9.2.1 20190827 (Red Hat 9.2.1-1)
REM options -cpp -mtune=generic -march=x86-64 -g -O0 -fpre-include=/usr/include/finclude/math-vector-fortran.h
REM seed -1396819299 -2007270380 -605181076 1127713612 -187198925 590291147 429786019 -1208653110 -2037899028 -1684142879 -610222643 1407530080 1815244740 -1933142503 -391134227 531712548 -366010245 1930486767 -636261317 482387947 1754561746 -929013280 671422688 -1326835735 678803336 846286801 1285477959 642756917 451342723 -1577769546 -338107351 37170470 -2060637985
REM
CELL 1.54180   50.00000   50.00000   50.00000   90.00000   90.00000   90.00000
LATT -1
SFAC C  
C      1  0.5450330000000  0.5423380000000  0.4305850000000 1.0
C      1  0.5341430000000  0.4566490000000  0.4989480000000 1.0
C      1  0.4762230000000  0.5384540000000  0.4053640000000 1.0
C      1  0.4169370000000  0.4960280000000  0.4887420000000 1.0
C      1  0.4770980000000  0.4133480000000  0.5345910000000 1.0
C      1  0.5385750000000  0.4093310000000  0.5103060000000 1.0
C      1  0.5046790000000  0.5308610000000  0.4896510000000 1.0
C      1  0.5873520000000  0.4693220000000  0.4864670000000 1.0
C      1  0.4565210000000  0.5301090000000  0.5834790000000 1.0
C      1  0.5126240000000  0.5933740000000  0.4874230000000 1.0
C      1  0.5022590000000  0.5582100000000  0.4457460000000 1.0
C      1  0.5453110000000  0.5094210000000  0.5807070000000 1.0
C      1  0.5565690000000  0.5233290000000  0.4801610000000 1.0
C      1  0.4210950000000  0.5459410000000  0.4887740000000 1.0
C      1  0.5603340000000  0.5673970000000  0.5066820000000 1.0
C      1  0.4765010000000  0.4372250000000  0.4295220000000 1.0
C      1  0.5794680000000  0.4794480000000  0.5640510000000 1.0
C      1  0.4347040000000  0.4704440000000  0.4368400000000 1.0
C      1  0.4857400000000  0.4450710000000  0.4895940000000 1.0
C      1  0.4673360000000  0.5576350000000  0.5823880000000 1.0
C      1  0.5033530000000  0.5668640000000  0.5498710000000 1.0
C      1  0.4894700000000  0.4934850000000  0.4031040000000 1.0
C      1  0.5434440000000  0.5228190000000  0.5258140000000 1.0
C      1  0.5295840000000  0.4098110000000  0.5375270000000 1.0
C      1  0.5902830000000  0.4793370000000  0.5156290000000 1.0
C      1  0.5181630000000  0.4769930000000  0.5526360000000 1.0
C      1  0.5325790000000  0.5032950000000  0.5535850000000 1.0
C      1  0.5565870000000  0.4840390000000  0.4198940000000 1.0
C      1  0.4764980000000  0.5737060000000  0.4510850000000 1.0
C      1  0.5631860000000  0.4413600000000  0.5336350000000 1.0
C      1  0.5225520000000  0.5364750000000  0.5110340000000 1.0
C      1  0.5138640000000  0.4838550000000  0.4680200000000 1.0
C      1  0.5650300000000  0.5282280000000  0.5706540000000 1.0
C      1  0.4673520000000  0.5108020000000  0.5214190000000 1.0
C      1  0.5083030000000  0.4826750000000  0.5269280000000 1.0
C      1  0.5006170000000  0.4018380000000  0.5276400000000 1.0
C      1  0.4642870000000  0.4162720000000  0.4266380000000 1.0
C      1  0.4882060000000  0.4617780000000  0.4331420000000 1.0
C      1  0.5481860000000  0.5060160000000  0.5021990000000 1.0
C      1  0.4565630000000  0.5508810000000  0.4493120000000 1.0
C      1  0.5713480000000  0.4457010000000  0.4778070000000 1.0
C      1  0.4608490000000  0.4358830000000  0.5698470000000 1.0
C      1  0.5095660000000  0.5607400000000  0.5223490000000 1.0
C      1  0.5818650000000  0.4631150000000  0.5380000000000 1.0
C      1  0.4874240000000  0.5533090000000  0.5008140000000 1.0
C      1  0.5352390000000  0.4489660000000  0.5763120000000 1.0
C      1  0.4744020000000  0.5633370000000  0.5532910000000 1.0
C      1  0.5426960000000  0.4318740000000  0.5522720000000 1.0
C      1  0.5580150000000  0.4646840000000  0.5740930000000 1.0
C      1  0.4163830000000  0.5360400000000  0.5155260000000 1.0
C      1  0.4754070000000  0.4707880000000  0.4938150000000 1.0
C      1  0.4938550000000  0.5586340000000  0.4155200000000 1.0
C      1  0.5325350000000  0.5659490000000  0.4415110000000 1.0
C      1  0.4352500000000  0.5199320000000  0.4387790000000 1.0
C      1  0.4193940000000  0.4401220000000  0.5004370000000 1.0
C      1  0.4982780000000  0.4942610000000  0.5921480000000 1.0
C      1  0.4643210000000  0.4918290000000  0.3944620000000 1.0
C      1  0.5548520000000  0.4359680000000  0.5049170000000 1.0
C      1  0.4778620000000  0.5093250000000  0.4622490000000 1.0
C      1  0.4499020000000  0.4862800000000  0.5802070000000 1.0
C      1  0.4335100000000  0.5279580000000  0.5649890000000 1.0
C      1  0.4120790000000  0.5064950000000  0.5151810000000 1.0
C      1  0.4294360000000  0.5193460000000  0.4697340000000 1.0
C      1  0.5163450000000  0.4507840000000  0.4323470000000 1.0
C      1  0.5334530000000  0.5303440000000  0.4055860000000 1.0
C      1  0.5238750000000  0.4358080000000  0.4573130000000 1.0
C      1  0.5868100000000  0.5273420000000  0.5092900000000 1.0
C      1  0.4822540000000  0.4497190000000  0.5814530000000 1.0
C      1  0.5030630000000  0.5272690000000  0.4600480000000 1.0
C      1  0.4622340000000  0.5819000000000  0.4745770000000 1.0
C      1  0.4584520000000  0.4840200000000  0.5141570000000 1.0
C      1  0.4860890000000  0.5816240000000  0.4904650000000 1.0
C      1  0.5248290000000  0.5588610000000  0.5676880000000 1.0
C      1  0.5121240000000  0.4044420000000  0.4994880000000 1.0
C      1  0.5204100000000  0.5883280000000  0.5139750000000 1.0
C      1  0.4709060000000  0.5034170000000  0.5890890000000 1.0
C      1  0.5193480000000  0.5139770000000  0.5941850000000 1.0
C      1  0.4535660000000  0.4253260000000  0.5426700000000 1.0
C      1  0.4318030000000  0.5581200000000  0.4518040000000 1.0
C      1  0.5309990000000  0.4833990000000  0.5087390000000 1.0
C      1  0.4572260000000  0.5274780000000  0.4747120000000 1.0
C      1  0.5131150000000  0.4955680000000  0.4177400000000 1.0
C      1  0.4183220000000  0.4901110000000  0.5389130000000 1.0
C      1  0.4467970000000  0.4940110000000  0.4247890000000 1.0
C      1  0.4305270000000  0.5445720000000  0.5403850000000 1.0
C      1  0.4342090000000  0.4418320000000  0.5264850000000 1.0
C      1  0.5587490000000  0.5509740000000  0.5308520000000 1.0
C      1  0.5056570000000  0.5387550000000  0.3984260000000 1.0
C      1  0.4717240000000  0.4860780000000  0.4400130000000 1.0
C      1  0.4286360000000  0.4996080000000  0.5644380000000 1.0
C      1  0.5716460000000  0.4972900000000  0.4413890000000 1.0
C      1  0.5807710000000  0.5078430000000  0.5569070000000 1.0
C      1  0.4914540000000  0.4932140000000  0.4820240000000 1.0
C      1  0.5525060000000  0.5531400000000  0.5591830000000 1.0
C      1  0.5060320000000  0.4669940000000  0.5783790000000 1.0
C      1  0.4557880000000  0.5548250000000  0.5321210000000 1.0
C      1  0.5205610000000  0.5049990000000  0.4487660000000 1.0
C      1  0.5741680000000  0.5451380000000  0.4910830000000 1.0
C      1  0.4242480000000  0.4664120000000  0.4573220000000 1.0
C      1  0.4532520000000  0.5370210000000  0.4243050000000 1.0
C      1  0.4154020000000  0.4682590000000  0.4829220000000 1.0
C      1  0.4919410000000  0.5053230000000  0.5356100000000 1.0
C      1  0.4134510000000  0.4167850000000  0.4902260000000 1.0
C      1  0.4559220000000  0.4586920000000  0.5842990000000 1.0
C      1  0.5914160000000  0.5062760000000  0.5276290000000 1.0
C      1  0.5221200000000  0.4578630000000  0.4750930000000 1.0
C      1  0.5077710000000  0.5188530000000  0.5543240000000 1.0
C      1  0.5449950000000  0.4592340000000  0.4311100000000 1.0
C      1  0.5086120000000  0.5365130000000  0.5778490000000 1.0
C      1  0.5420320000000  0.5875220000000  0.4957650000000 1.0
C      1  0.4341770000000  0.5698140000000  0.4774820000000 1.0
C      1  0.5811350000000  0.4834580000000  0.4635930000000 1.0
C      1  0.5508630000000  0.5186050000000  0.4511200000000 1.0
C      1  0.4385280000000  0.4702450000000  0.5305350000000 1.0
C      1  0.5014400000000  0.4248720000000  0.4807980000000 1.0
C      1  0.4634460000000  0.5373190000000  0.5076510000000 1.0
C      1  0.5551810000000  0.4436530000000  0.4542660000000 1.0
C      1  0.5385390000000  0.5011750000000  0.4045810000000 1.0
END
