TITL C-883727-9645-4 2167237.69655039 125000 -23195.4748571916 0 0 155 (C1) n - 1
REM
REM in /home/nfs/bkarasulu/CARBON/AIRSS/Generating-Clusters/ReaxFF-fromJPCA2015/Units_Real/with-SteepDescent/Only-C1/SD-CG/Try1-3A/FIRE-CG
REM
REM
REM
REM
REM
REM ./C.cell (11c1c37f851c82e70ff6c80c92926a4b)
REM
REM compiler GCC version 9.2.1 20190827 (Red Hat 9.2.1-1)
REM options -cpp -mtune=generic -march=x86-64 -g -O0 -fpre-include=/usr/include/finclude/math-vector-fortran.h
REM seed 1515191740 1386774584 542362617 -1273006959 941147382 1001577193 -541825817 -2072352101 66207515 -530947670 -2129889293 103270772 -993444966 1673327006 -2009612485 -1249423402 541391410 1921009998 -1639893652 -796856889 1637472415 -253976142 712087452 1756221211 661733700 1506792845 1153844757 1976049139 -27882981 -1476919118 1355926531 1657569849 -1397025321
REM
CELL 1.54180   50.00000   50.00000   50.00000   90.00000   90.00000   90.00000
LATT -1
SFAC C  
C      1  0.4443110000000  0.5011960000000  0.5347320000000 1.0
C      1  0.4190150000000  0.4650580000000  0.4285720000000 1.0
C      1  0.5310930000000  0.5446210000000  0.5702750000000 1.0
C      1  0.4466690000000  0.4600490000000  0.4391590000000 1.0
C      1  0.4864450000000  0.4802550000000  0.4519670000000 1.0
C      1  0.4715660000000  0.5054690000000  0.5400900000000 1.0
C      1  0.4754470000000  0.5318860000000  0.4780980000000 1.0
C      1  0.5655140000000  0.5066430000000  0.5266640000000 1.0
C      1  0.4773170000000  0.4216830000000  0.4316030000000 1.0
C      1  0.5793340000000  0.4315460000000  0.5389200000000 1.0
C      1  0.4015920000000  0.4722100000000  0.4969840000000 1.0
C      1  0.4683290000000  0.4121320000000  0.4563380000000 1.0
C      1  0.4432520000000  0.4722510000000  0.5374970000000 1.0
C      1  0.4718490000000  0.5986660000000  0.5035470000000 1.0
C      1  0.5731320000000  0.4252120000000  0.5104220000000 1.0
C      1  0.5244790000000  0.4540700000000  0.5042500000000 1.0
C      1  0.5624570000000  0.5795300000000  0.4974080000000 1.0
C      1  0.4668840000000  0.4032770000000  0.4818800000000 1.0
C      1  0.5061700000000  0.4186780000000  0.4380520000000 1.0
C      1  0.4895920000000  0.4583720000000  0.4705030000000 1.0
C      1  0.4806600000000  0.4647190000000  0.4040370000000 1.0
C      1  0.4956290000000  0.5643860000000  0.4227490000000 1.0
C      1  0.4192430000000  0.4501920000000  0.4522480000000 1.0
C      1  0.5182790000000  0.4377080000000  0.4201580000000 1.0
C      1  0.5703380000000  0.5117920000000  0.5921990000000 1.0
C      1  0.5953650000000  0.4919320000000  0.4735250000000 1.0
C      1  0.4869120000000  0.5906030000000  0.5289950000000 1.0
C      1  0.5923550000000  0.4911570000000  0.4436150000000 1.0
C      1  0.4831540000000  0.5304540000000  0.4504640000000 1.0
C      1  0.4541280000000  0.4175040000000  0.5089310000000 1.0
C      1  0.5205340000000  0.5491640000000  0.4879260000000 1.0
C      1  0.5278220000000  0.4996020000000  0.4746420000000 1.0
C      1  0.4330400000000  0.4510100000000  0.5788740000000 1.0
C      1  0.4982700000000  0.3979800000000  0.5151500000000 1.0
C      1  0.4459830000000  0.5261780000000  0.4860070000000 1.0
C      1  0.5008230000000  0.4816250000000  0.5864560000000 1.0
C      1  0.4143800000000  0.4927570000000  0.4351430000000 1.0
C      1  0.4069830000000  0.4669270000000  0.4701920000000 1.0
C      1  0.4805320000000  0.4950320000000  0.4044120000000 1.0
C      1  0.4901480000000  0.5814240000000  0.4704720000000 1.0
C      1  0.4729980000000  0.4766350000000  0.5792120000000 1.0
C      1  0.4021730000000  0.5271360000000  0.4942280000000 1.0
C      1  0.5069040000000  0.5798580000000  0.4463950000000 1.0
C      1  0.5058040000000  0.4511570000000  0.3967230000000 1.0
C      1  0.5163600000000  0.4131540000000  0.4665200000000 1.0
C      1  0.5678640000000  0.5235720000000  0.5467850000000 1.0
C      1  0.5324430000000  0.4950980000000  0.5496630000000 1.0
C      1  0.4337670000000  0.5139510000000  0.4287380000000 1.0
C      1  0.5270420000000  0.4059710000000  0.5247200000000 1.0
C      1  0.5440480000000  0.5708580000000  0.5677470000000 1.0
C      1  0.4750500000000  0.5528820000000  0.5970620000000 1.0
C      1  0.5174350000000  0.4892250000000  0.5241900000000 1.0
C      1  0.5828390000000  0.5603450000000  0.4888060000000 1.0
C      1  0.4064230000000  0.5506720000000  0.5118800000000 1.0
C      1  0.5475050000000  0.5775630000000  0.4335490000000 1.0
C      1  0.3987080000000  0.5003800000000  0.5072970000000 1.0
C      1  0.5842390000000  0.4403980000000  0.4875500000000 1.0
C      1  0.5474310000000  0.4784910000000  0.4757360000000 1.0
C      1  0.5758110000000  0.5508530000000  0.5434290000000 1.0
C      1  0.5499010000000  0.4093310000000  0.5027510000000 1.0
C      1  0.4871400000000  0.5687500000000  0.5738850000000 1.0
C      1  0.4545450000000  0.5165840000000  0.5994050000000 1.0
C      1  0.4465070000000  0.5851290000000  0.4946980000000 1.0
C      1  0.5280560000000  0.4337220000000  0.5708900000000 1.0
C      1  0.4442820000000  0.5246150000000  0.5166670000000 1.0
C      1  0.5584110000000  0.5360840000000  0.4526710000000 1.0
C      1  0.5731960000000  0.4481500000000  0.4456160000000 1.0
C      1  0.4427820000000  0.5644340000000  0.4411770000000 1.0
C      1  0.4250730000000  0.4510690000000  0.5321230000000 1.0
C      1  0.4156790000000  0.4917490000000  0.4642990000000 1.0
C      1  0.5064500000000  0.5456850000000  0.5309650000000 1.0
C      1  0.5673630000000  0.4782080000000  0.5235040000000 1.0
C      1  0.5823070000000  0.5120360000000  0.4280290000000 1.0
C      1  0.4939210000000  0.4991100000000  0.5365900000000 1.0
C      1  0.5416070000000  0.5931780000000  0.4829490000000 1.0
C      1  0.4447460000000  0.4957860000000  0.4721700000000 1.0
C      1  0.4923450000000  0.5565160000000  0.4889800000000 1.0
C      1  0.4434630000000  0.5795150000000  0.4660710000000 1.0
C      1  0.5962650000000  0.4675200000000  0.4906050000000 1.0
C      1  0.5557450000000  0.5265280000000  0.5093360000000 1.0
C      1  0.5739560000000  0.4710050000000  0.4286980000000 1.0
C      1  0.5390180000000  0.5856410000000  0.5427670000000 1.0
C      1  0.4724580000000  0.4019230000000  0.5290610000000 1.0
C      1  0.5334040000000  0.5899600000000  0.4535410000000 1.0
C      1  0.4816270000000  0.5254970000000  0.6061930000000 1.0
C      1  0.4073310000000  0.4486130000000  0.5122040000000 1.0
C      1  0.5498090000000  0.4602190000000  0.5780120000000 1.0
C      1  0.4837130000000  0.5589660000000  0.5192860000000 1.0
C      1  0.4486980000000  0.4893170000000  0.5895680000000 1.0
C      1  0.4577130000000  0.5117210000000  0.4108230000000 1.0
C      1  0.5609960000000  0.5613940000000  0.4182680000000 1.0
C      1  0.5480920000000  0.4698320000000  0.5032080000000 1.0
C      1  0.4686310000000  0.5344100000000  0.4261120000000 1.0
C      1  0.5327660000000  0.5453920000000  0.5137260000000 1.0
C      1  0.5563510000000  0.5686360000000  0.5251890000000 1.0
C      1  0.5314110000000  0.5394270000000  0.4636420000000 1.0
C      1  0.4635030000000  0.4873280000000  0.4921660000000 1.0
C      1  0.3955120000000  0.5368850000000  0.5357360000000 1.0
C      1  0.5225650000000  0.4352340000000  0.5253160000000 1.0
C      1  0.5943310000000  0.5198450000000  0.4822890000000 1.0
C      1  0.4066400000000  0.4911910000000  0.5580740000000 1.0
C      1  0.4953210000000  0.3996030000000  0.4869710000000 1.0
C      1  0.4932840000000  0.6027920000000  0.4871170000000 1.0
C      1  0.4396330000000  0.5511190000000  0.5604320000000 1.0
C      1  0.5045640000000  0.5052270000000  0.6034100000000 1.0
C      1  0.3950470000000  0.5052520000000  0.5356520000000 1.0
C      1  0.4717410000000  0.4602710000000  0.4914110000000 1.0
C      1  0.5170750000000  0.5971300000000  0.5275630000000 1.0
C      1  0.4839930000000  0.5066880000000  0.4925490000000 1.0
C      1  0.5327110000000  0.5029670000000  0.6039680000000 1.0
C      1  0.5465130000000  0.4787850000000  0.4201550000000 1.0
C      1  0.5639500000000  0.5329660000000  0.4227630000000 1.0
C      1  0.5252010000000  0.4747990000000  0.5695350000000 1.0
C      1  0.5051950000000  0.5395920000000  0.4094610000000 1.0
C      1  0.4659640000000  0.4465590000000  0.4198530000000 1.0
C      1  0.4728060000000  0.4413060000000  0.5132680000000 1.0
C      1  0.5451470000000  0.4121000000000  0.4751320000000 1.0
C      1  0.4661700000000  0.5631410000000  0.4221420000000 1.0
C      1  0.4467830000000  0.4261980000000  0.5729300000000 1.0
C      1  0.4826550000000  0.4472690000000  0.5403800000000 1.0
C      1  0.5326940000000  0.4582210000000  0.4331040000000 1.0
C      1  0.4641520000000  0.4087930000000  0.5562530000000 1.0
C      1  0.5548420000000  0.4886800000000  0.5963060000000 1.0
C      1  0.5232540000000  0.4710130000000  0.3822120000000 1.0
C      1  0.4160580000000  0.5447860000000  0.5522550000000 1.0
C      1  0.5108720000000  0.5257170000000  0.4478130000000 1.0
C      1  0.4585680000000  0.4866410000000  0.4479300000000 1.0
C      1  0.5778590000000  0.5367360000000  0.5825980000000 1.0
C      1  0.4210530000000  0.5359620000000  0.4728020000000 1.0
C      1  0.4520000000000  0.5510410000000  0.5289500000000 1.0
C      1  0.5721740000000  0.4502380000000  0.5606500000000 1.0
C      1  0.4488470000000  0.5439510000000  0.5875910000000 1.0
C      1  0.5103580000000  0.4972210000000  0.4510910000000 1.0
C      1  0.5427870000000  0.5208210000000  0.5585110000000 1.0
C      1  0.5312480000000  0.4933350000000  0.4002060000000 1.0
C      1  0.4321830000000  0.5662720000000  0.5129400000000 1.0
C      1  0.5197180000000  0.6027930000000  0.4994470000000 1.0
C      1  0.5092920000000  0.4423180000000  0.5491720000000 1.0
C      1  0.5846160000000  0.5422970000000  0.4653680000000 1.0
C      1  0.4225340000000  0.4787060000000  0.5791250000000 1.0
C      1  0.5055130000000  0.5112110000000  0.4034210000000 1.0
C      1  0.5046090000000  0.5481490000000  0.5588930000000 1.0
C      1  0.5959740000000  0.4554490000000  0.5432600000000 1.0
C      1  0.4762430000000  0.5904280000000  0.5591730000000 1.0
C      1  0.5149410000000  0.4461840000000  0.4766540000000 1.0
C      1  0.5334520000000  0.4101010000000  0.5566540000000 1.0
C      1  0.5700620000000  0.4280830000000  0.4645040000000 1.0
C      1  0.4269550000000  0.4284770000000  0.5156410000000 1.0
C      1  0.4275290000000  0.5388640000000  0.4445010000000 1.0
C      1  0.4657470000000  0.4640510000000  0.5539590000000 1.0
C      1  0.5345540000000  0.4582420000000  0.4600650000000 1.0
C      1  0.5958110000000  0.4726820000000  0.5192810000000 1.0
C      1  0.5119090000000  0.5018060000000  0.4981930000000 1.0
C      1  0.5835780000000  0.5358670000000  0.5060190000000 1.0
C      1  0.5720780000000  0.5618190000000  0.5701210000000 1.0
END
