TITL C-883732-77-153 14.7960944754672 125000 -9671.77187665761 0 0 66 (C1) n - 1
REM
REM in /home/nfs/bkarasulu/CARBON/AIRSS/Generating-Clusters/ReaxFF-fromJPCA2015/Units_Real/with-SteepDescent/Only-C1/SD-CG/Try1-3A/FIRE-CG
REM
REM
REM
REM
REM
REM ./C.cell (11c1c37f851c82e70ff6c80c92926a4b)
REM
REM compiler GCC version 9.2.1 20190827 (Red Hat 9.2.1-1)
REM options -cpp -mtune=generic -march=x86-64 -g -O0 -fpre-include=/usr/include/finclude/math-vector-fortran.h
REM seed 373954468 695515175 -1529182064 1545895475 1671434519 -370395798 -919023301 -121924446 1977817162 -1903096707 580945306 -1050888783 492123972 -1308104835 -1489961818 -285271250 1269929858 1395668195 1868234524 -1811867343 1463337349 2094401122 -2014794964 177298227 1931378732 -115857370 459516977 1438290459 868217284 35860664 146846094 -1985171227 -1248905141
REM
CELL 1.54180   50.00000   50.00000   50.00000   90.00000   90.00000   90.00000
LATT -1
SFAC C  
C      1  0.5086900000000  0.4704230000000  0.5046910000000 1.0
C      1  0.4934650000000  0.5174720000000  0.5411480000000 1.0
C      1  0.4547030000000  0.4813880000000  0.5453790000000 1.0
C      1  0.5184710000000  0.4779590000000  0.4573490000000 1.0
C      1  0.4705130000000  0.4786440000000  0.5015690000000 1.0
C      1  0.5253440000000  0.5514000000000  0.4633640000000 1.0
C      1  0.4955150000000  0.5598790000000  0.4635510000000 1.0
C      1  0.4811480000000  0.5404560000000  0.4478680000000 1.0
C      1  0.4455490000000  0.5019410000000  0.4724520000000 1.0
C      1  0.4437820000000  0.5017730000000  0.5623120000000 1.0
C      1  0.5273270000000  0.5186700000000  0.5144420000000 1.0
C      1  0.4581180000000  0.5506510000000  0.5332520000000 1.0
C      1  0.5407770000000  0.4848000000000  0.5553550000000 1.0
C      1  0.4904140000000  0.4423920000000  0.4504010000000 1.0
C      1  0.5008440000000  0.5002610000000  0.4659720000000 1.0
C      1  0.4758600000000  0.5034410000000  0.4839850000000 1.0
C      1  0.4922850000000  0.4376860000000  0.5320960000000 1.0
C      1  0.4251410000000  0.5146420000000  0.5433280000000 1.0
C      1  0.4668960000000  0.5538140000000  0.5048890000000 1.0
C      1  0.4838940000000  0.4851190000000  0.5467330000000 1.0
C      1  0.5486860000000  0.5559930000000  0.4811040000000 1.0
C      1  0.5523040000000  0.5095760000000  0.4567870000000 1.0
C      1  0.4871020000000  0.4091180000000  0.4885290000000 1.0
C      1  0.5678880000000  0.4561790000000  0.4508700000000 1.0
C      1  0.5200290000000  0.4467110000000  0.4912340000000 1.0
C      1  0.4826610000000  0.5300700000000  0.4989150000000 1.0
C      1  0.5011950000000  0.5169360000000  0.4411110000000 1.0
C      1  0.5274760000000  0.4919850000000  0.5055230000000 1.0
C      1  0.5084390000000  0.5376500000000  0.5082730000000 1.0
C      1  0.4898870000000  0.4937060000000  0.5754770000000 1.0
C      1  0.5475160000000  0.4812330000000  0.4537530000000 1.0
C      1  0.4789620000000  0.5736040000000  0.4845450000000 1.0
C      1  0.5193910000000  0.4984130000000  0.5726680000000 1.0
C      1  0.4266740000000  0.5264200000000  0.5027520000000 1.0
C      1  0.5506200000000  0.5282570000000  0.5304180000000 1.0
C      1  0.5552640000000  0.4586090000000  0.5189630000000 1.0
C      1  0.5577460000000  0.4440320000000  0.4740920000000 1.0
C      1  0.5294050000000  0.5277920000000  0.4482350000000 1.0
C      1  0.4743480000000  0.5359680000000  0.5536020000000 1.0
C      1  0.4311690000000  0.5402090000000  0.5292190000000 1.0
C      1  0.4667270000000  0.4560420000000  0.4589980000000 1.0
C      1  0.4764150000000  0.4312210000000  0.5053250000000 1.0
C      1  0.5192300000000  0.4354470000000  0.5444410000000 1.0
C      1  0.4971830000000  0.4660420000000  0.5299920000000 1.0
C      1  0.5133060000000  0.5231210000000  0.5607260000000 1.0
C      1  0.4649900000000  0.4798170000000  0.4399430000000 1.0
C      1  0.5674730000000  0.5444190000000  0.5150840000000 1.0
C      1  0.4249790000000  0.5005710000000  0.5174430000000 1.0
C      1  0.5483370000000  0.5638920000000  0.5097080000000 1.0
C      1  0.5046110000000  0.4636490000000  0.4349200000000 1.0
C      1  0.4680400000000  0.5140970000000  0.5737160000000 1.0
C      1  0.4480230000000  0.5041750000000  0.4435720000000 1.0
C      1  0.4900260000000  0.4876410000000  0.4275030000000 1.0
C      1  0.5043740000000  0.4289910000000  0.4728970000000 1.0
C      1  0.4528830000000  0.5338420000000  0.4487120000000 1.0
C      1  0.4351540000000  0.5288430000000  0.4747040000000 1.0
C      1  0.5186960000000  0.5646750000000  0.5164800000000 1.0
C      1  0.5567190000000  0.5006740000000  0.5377240000000 1.0
C      1  0.5410330000000  0.4572250000000  0.5437360000000 1.0
C      1  0.4457370000000  0.4788270000000  0.5181190000000 1.0
C      1  0.4640340000000  0.4533780000000  0.4884300000000 1.0
C      1  0.5642490000000  0.5070530000000  0.4828300000000 1.0
C      1  0.5687600000000  0.5350500000000  0.4881760000000 1.0
C      1  0.5464720000000  0.4403640000000  0.4993330000000 1.0
C      1  0.5001830000000  0.5785230000000  0.5012290000000 1.0
C      1  0.5568660000000  0.4871480000000  0.5100510000000 1.0
END
