TITL C-884127-5181-96 12.4152514358683 125000 -26528.2960195359 0 0 176 (C1) n - 1
REM
REM in /home/nfs/bkarasulu/CARBON/AIRSS/Generating-Clusters/ReaxFF-fromJPCA2015/Units_Real/with-SteepDescent/Only-C1/SD-CG/Try1-3A/FIRE-CG
REM
REM
REM
REM
REM
REM ./C.cell (11c1c37f851c82e70ff6c80c92926a4b)
REM
REM compiler GCC version 9.2.1 20190827 (Red Hat 9.2.1-1)
REM options -cpp -mtune=generic -march=x86-64 -g -O0 -fpre-include=/usr/include/finclude/math-vector-fortran.h
REM seed -1310893971 646334359 434888937 -1224109832 880162124 -1378925366 -37951327 -1808550491 -1257449154 -686562892 1865077499 -1998693743 -746267070 457494663 1204772129 -1881715622 1370067463 1229541537 1888683531 920276478 -711976002 1960754578 -421217248 -815066268 1480568821 264216550 821940422 858122861 896250545 1820270198 -1424770986 -1696898064 -503023546
REM
CELL 1.54180   50.00000   50.00000   50.00000   90.00000   90.00000   90.00000
LATT -1
SFAC C  
C      1  0.4862150000000  0.5607290000000  0.5096370000000 1.0
C      1  0.4420650000000  0.4338130000000  0.5140340000000 1.0
C      1  0.4314960000000  0.4512670000000  0.4347010000000 1.0
C      1  0.5058350000000  0.4382610000000  0.4128840000000 1.0
C      1  0.6017170000000  0.5167150000000  0.5206180000000 1.0
C      1  0.5668110000000  0.4773450000000  0.4772090000000 1.0
C      1  0.4259820000000  0.5230750000000  0.4113730000000 1.0
C      1  0.5203730000000  0.5792350000000  0.4431520000000 1.0
C      1  0.5509940000000  0.5846290000000  0.5612460000000 1.0
C      1  0.4655280000000  0.4950830000000  0.3960290000000 1.0
C      1  0.5672270000000  0.5639790000000  0.4766470000000 1.0
C      1  0.4054550000000  0.5152360000000  0.5486280000000 1.0
C      1  0.5180880000000  0.4933180000000  0.5242750000000 1.0
C      1  0.4265350000000  0.4382890000000  0.4614930000000 1.0
C      1  0.5368790000000  0.5652950000000  0.5766150000000 1.0
C      1  0.5101570000000  0.5563060000000  0.4058770000000 1.0
C      1  0.5175370000000  0.6047170000000  0.4936840000000 1.0
C      1  0.4274400000000  0.5717820000000  0.4529580000000 1.0
C      1  0.5041970000000  0.4582100000000  0.5632980000000 1.0
C      1  0.4482850000000  0.4852160000000  0.5759920000000 1.0
C      1  0.4910690000000  0.5039570000000  0.6005380000000 1.0
C      1  0.5554850000000  0.5346220000000  0.5224840000000 1.0
C      1  0.4695620000000  0.5963190000000  0.4795160000000 1.0
C      1  0.4960040000000  0.4472840000000  0.5906800000000 1.0
C      1  0.5626350000000  0.4101730000000  0.5232210000000 1.0
C      1  0.4435720000000  0.4150870000000  0.4704420000000 1.0
C      1  0.6050770000000  0.4628690000000  0.4617180000000 1.0
C      1  0.5404520000000  0.4276790000000  0.5698400000000 1.0
C      1  0.5547200000000  0.3972470000000  0.4984560000000 1.0
C      1  0.5310420000000  0.5016830000000  0.4530800000000 1.0
C      1  0.5751610000000  0.4110850000000  0.4823790000000 1.0
C      1  0.4556060000000  0.4167430000000  0.5824700000000 1.0
C      1  0.5166920000000  0.4001320000000  0.5397230000000 1.0
C      1  0.5312150000000  0.4719900000000  0.6052300000000 1.0
C      1  0.5590540000000  0.4880310000000  0.4190780000000 1.0
C      1  0.5578280000000  0.4678110000000  0.5945590000000 1.0
C      1  0.6076400000000  0.4890380000000  0.4484220000000 1.0
C      1  0.4315230000000  0.4437530000000  0.5610080000000 1.0
C      1  0.4721120000000  0.5957180000000  0.5641440000000 1.0
C      1  0.5886260000000  0.5634560000000  0.4977480000000 1.0
C      1  0.6175030000000  0.5121160000000  0.4613290000000 1.0
C      1  0.4697800000000  0.4717990000000  0.5320230000000 1.0
C      1  0.4460990000000  0.4832810000000  0.5438390000000 1.0
C      1  0.5265230000000  0.4888520000000  0.4199120000000 1.0
C      1  0.4510040000000  0.4111370000000  0.4982000000000 1.0
C      1  0.5018220000000  0.5305460000000  0.4556550000000 1.0
C      1  0.4602130000000  0.5509600000000  0.5183610000000 1.0
C      1  0.5320110000000  0.5592080000000  0.4252200000000 1.0
C      1  0.4221610000000  0.5765260000000  0.4810530000000 1.0
C      1  0.4656350000000  0.4032530000000  0.4538760000000 1.0
C      1  0.5324950000000  0.4374570000000  0.4936940000000 1.0
C      1  0.5232760000000  0.4986040000000  0.4806010000000 1.0
C      1  0.5316040000000  0.5046960000000  0.5795390000000 1.0
C      1  0.4588050000000  0.5337250000000  0.4533790000000 1.0
C      1  0.6169620000000  0.5281720000000  0.4801460000000 1.0
C      1  0.4714180000000  0.5232230000000  0.3922140000000 1.0
C      1  0.5109770000000  0.4223250000000  0.5818810000000 1.0
C      1  0.4111420000000  0.4531640000000  0.4854800000000 1.0
C      1  0.4639980000000  0.5092660000000  0.4396150000000 1.0
C      1  0.4714740000000  0.4077180000000  0.5451350000000 1.0
C      1  0.4950700000000  0.5901830000000  0.4340890000000 1.0
C      1  0.4760040000000  0.4295510000000  0.4144020000000 1.0
C      1  0.4684320000000  0.5283620000000  0.5971470000000 1.0
C      1  0.4258050000000  0.5047220000000  0.5810000000000 1.0
C      1  0.4449440000000  0.4170020000000  0.5564790000000 1.0
C      1  0.4872180000000  0.5735300000000  0.4109940000000 1.0
C      1  0.4396030000000  0.4901690000000  0.4923790000000 1.0
C      1  0.4311900000000  0.5425520000000  0.4533540000000 1.0
C      1  0.5231410000000  0.5109650000000  0.5491400000000 1.0
C      1  0.5301250000000  0.4514890000000  0.5559310000000 1.0
C      1  0.4620410000000  0.6053580000000  0.5375140000000 1.0
C      1  0.4575210000000  0.5242710000000  0.5105350000000 1.0
C      1  0.4913260000000  0.4166890000000  0.4602340000000 1.0
C      1  0.4181070000000  0.4504980000000  0.5127330000000 1.0
C      1  0.4842750000000  0.4907850000000  0.4764530000000 1.0
C      1  0.3936710000000  0.5031520000000  0.4701450000000 1.0
C      1  0.5574440000000  0.5420630000000  0.4281760000000 1.0
C      1  0.5840210000000  0.4468020000000  0.4482670000000 1.0
C      1  0.5436470000000  0.4096470000000  0.5448000000000 1.0
C      1  0.4679560000000  0.4463710000000  0.5204760000000 1.0
C      1  0.4435850000000  0.4561540000000  0.5844690000000 1.0
C      1  0.4629660000000  0.5696600000000  0.5780160000000 1.0
C      1  0.5034350000000  0.4757660000000  0.6052530000000 1.0
C      1  0.4888210000000  0.4780210000000  0.5520250000000 1.0
C      1  0.5538820000000  0.5907160000000  0.5313730000000 1.0
C      1  0.4974470000000  0.6047870000000  0.5594420000000 1.0
C      1  0.3983420000000  0.5289620000000  0.4806160000000 1.0
C      1  0.5690500000000  0.4226170000000  0.4561880000000 1.0
C      1  0.4777770000000  0.4967410000000  0.5712550000000 1.0
C      1  0.4058680000000  0.5533160000000  0.4937980000000 1.0
C      1  0.5421570000000  0.4563280000000  0.4711050000000 1.0
C      1  0.4682420000000  0.4852680000000  0.4991080000000 1.0
C      1  0.5405260000000  0.5650890000000  0.4888210000000 1.0
C      1  0.5310970000000  0.5302100000000  0.4574050000000 1.0
C      1  0.4880740000000  0.5687840000000  0.4822950000000 1.0
C      1  0.4817470000000  0.5479360000000  0.4632850000000 1.0
C      1  0.5010100000000  0.5296620000000  0.3943610000000 1.0
C      1  0.4763170000000  0.5203130000000  0.5524430000000 1.0
C      1  0.5668160000000  0.5632770000000  0.5752040000000 1.0
C      1  0.5310030000000  0.4304350000000  0.4261160000000 1.0
C      1  0.4819340000000  0.5133110000000  0.4950080000000 1.0
C      1  0.4266200000000  0.4936150000000  0.4085820000000 1.0
C      1  0.5825920000000  0.4573800000000  0.4986610000000 1.0
C      1  0.5967390000000  0.4695700000000  0.5352610000000 1.0
C      1  0.4155740000000  0.4934640000000  0.4498610000000 1.0
C      1  0.5763980000000  0.4556530000000  0.5504370000000 1.0
C      1  0.5578700000000  0.5446200000000  0.4565660000000 1.0
C      1  0.5730510000000  0.5771040000000  0.5158140000000 1.0
C      1  0.3973950000000  0.4789820000000  0.4891730000000 1.0
C      1  0.5077280000000  0.5453870000000  0.5205180000000 1.0
C      1  0.4037370000000  0.5197560000000  0.5218630000000 1.0
C      1  0.4828730000000  0.5520730000000  0.5915720000000 1.0
C      1  0.5059880000000  0.4657070000000  0.4080200000000 1.0
C      1  0.4843660000000  0.6191780000000  0.5229870000000 1.0
C      1  0.6089730000000  0.4665040000000  0.4907870000000 1.0
C      1  0.4973790000000  0.4076950000000  0.5611690000000 1.0
C      1  0.4492190000000  0.5820200000000  0.4358970000000 1.0
C      1  0.5346420000000  0.5507110000000  0.5118730000000 1.0
C      1  0.4143670000000  0.4951730000000  0.5062180000000 1.0
C      1  0.5023340000000  0.5340360000000  0.5483470000000 1.0
C      1  0.5750050000000  0.5191360000000  0.5066790000000 1.0
C      1  0.4656120000000  0.4027830000000  0.4240380000000 1.0
C      1  0.4418580000000  0.5546590000000  0.5665310000000 1.0
C      1  0.4901550000000  0.6130010000000  0.4951920000000 1.0
C      1  0.6098310000000  0.5411430000000  0.5029300000000 1.0
C      1  0.5108290000000  0.5471850000000  0.5784860000000 1.0
C      1  0.5142140000000  0.5094100000000  0.4068280000000 1.0
C      1  0.4112480000000  0.5478920000000  0.5217490000000 1.0
C      1  0.5144680000000  0.4575500000000  0.5051520000000 1.0
C      1  0.5112260000000  0.5128510000000  0.5039560000000 1.0
C      1  0.4655670000000  0.4400170000000  0.5949940000000 1.0
C      1  0.4428060000000  0.5303720000000  0.5829520000000 1.0
C      1  0.5143380000000  0.5219630000000  0.5950380000000 1.0
C      1  0.5255420000000  0.4075110000000  0.4924290000000 1.0
C      1  0.5803440000000  0.4287550000000  0.5055370000000 1.0
C      1  0.5105220000000  0.6169440000000  0.5377240000000 1.0
C      1  0.5028400000000  0.3994300000000  0.5143670000000 1.0
C      1  0.4879670000000  0.4458480000000  0.5007310000000 1.0
C      1  0.5418710000000  0.4121810000000  0.4464650000000 1.0
C      1  0.5840380000000  0.5441450000000  0.5632350000000 1.0
C      1  0.5800200000000  0.4978790000000  0.4537470000000 1.0
C      1  0.4156340000000  0.5229430000000  0.4381540000000 1.0
C      1  0.5713350000000  0.5051900000000  0.5591310000000 1.0
C      1  0.5649010000000  0.4464290000000  0.5761150000000 1.0
C      1  0.4522140000000  0.4910460000000  0.4205690000000 1.0
C      1  0.5501120000000  0.5194110000000  0.5454770000000 1.0
C      1  0.4899400000000  0.5034800000000  0.4512500000000 1.0
C      1  0.4097500000000  0.4912600000000  0.5604750000000 1.0
C      1  0.4502440000000  0.5394300000000  0.4031760000000 1.0
C      1  0.5190160000000  0.5800390000000  0.4744550000000 1.0
C      1  0.4150150000000  0.4740240000000  0.4270590000000 1.0
C      1  0.5499520000000  0.4628690000000  0.5399840000000 1.0
C      1  0.5589730000000  0.4960330000000  0.5848270000000 1.0
C      1  0.4818970000000  0.4431140000000  0.4720160000000 1.0
C      1  0.4418900000000  0.5913730000000  0.4952010000000 1.0
C      1  0.5441290000000  0.4821420000000  0.5205230000000 1.0
C      1  0.4405010000000  0.4791490000000  0.4664070000000 1.0
C      1  0.5673220000000  0.4613540000000  0.4281660000000 1.0
C      1  0.5198290000000  0.4729320000000  0.4810970000000 1.0
C      1  0.5947730000000  0.5218240000000  0.5513480000000 1.0
C      1  0.5421810000000  0.4532450000000  0.4403520000000 1.0
C      1  0.5679610000000  0.5125360000000  0.4309710000000 1.0
C      1  0.4210020000000  0.4653300000000  0.5430470000000 1.0
C      1  0.5311370000000  0.6056940000000  0.5191620000000 1.0
C      1  0.4705780000000  0.5958940000000  0.4493320000000 1.0
C      1  0.4590830000000  0.5657130000000  0.4130410000000 1.0
C      1  0.4415530000000  0.5900200000000  0.5238900000000 1.0
C      1  0.4536690000000  0.5133340000000  0.5368460000000 1.0
C      1  0.5182180000000  0.4058220000000  0.4627390000000 1.0
C      1  0.6096140000000  0.4845940000000  0.5153620000000 1.0
C      1  0.4586610000000  0.4523160000000  0.4159400000000 1.0
C      1  0.4608410000000  0.4601000000000  0.4618940000000 1.0
C      1  0.4745450000000  0.4023250000000  0.5161010000000 1.0
C      1  0.4782760000000  0.4690580000000  0.4003730000000 1.0
C      1  0.4357300000000  0.5616540000000  0.5355680000000 1.0
C      1  0.5609480000000  0.4943260000000  0.4995150000000 1.0
END
