TITL C-883741-3679-281 47.858429528899 125000 -24168.4649129531 0 0 165 (C1) n - 1
REM
REM in /home/nfs/bkarasulu/CARBON/AIRSS/Generating-Clusters/ReaxFF-fromJPCA2015/Units_Real/with-SteepDescent/Only-C1/SD-CG/Try1-3A/FIRE-CG
REM
REM
REM
REM
REM
REM ./C.cell (11c1c37f851c82e70ff6c80c92926a4b)
REM
REM compiler GCC version 9.2.1 20190827 (Red Hat 9.2.1-1)
REM options -cpp -mtune=generic -march=x86-64 -g -O0 -fpre-include=/usr/include/finclude/math-vector-fortran.h
REM seed 1057530275 -1397696329 -907402660 1043362452 47457519 2042028227 -1504336851 -1388228510 -1201007787 -1406158250 -546402731 -1048588655 1861008879 992474996 1509408626 -1422123844 -1692939806 -1102214282 665159666 2059964353 -1578630078 -1006378710 -93656893 1081687198 -1842735239 1903151244 1376309198 -812571645 1786154981 -818035671 409640114 2043494370 -2118339160
REM
CELL 1.54180   50.00000   50.00000   50.00000   90.00000   90.00000   90.00000
LATT -1
SFAC C  
C      1  0.5507810000000  0.4507790000000  0.4838060000000 1.0
C      1  0.5722930000000  0.4854890000000  0.5819760000000 1.0
C      1  0.4755380000000  0.4896880000000  0.4700410000000 1.0
C      1  0.4706580000000  0.5435040000000  0.5298570000000 1.0
C      1  0.4570210000000  0.5086410000000  0.4838160000000 1.0
C      1  0.5932360000000  0.5201910000000  0.5215680000000 1.0
C      1  0.5642320000000  0.5556330000000  0.4913930000000 1.0
C      1  0.4535920000000  0.4395760000000  0.5686680000000 1.0
C      1  0.5681140000000  0.5034060000000  0.4791730000000 1.0
C      1  0.5144410000000  0.5027020000000  0.5550480000000 1.0
C      1  0.5907700000000  0.4350280000000  0.5019950000000 1.0
C      1  0.5010070000000  0.4603060000000  0.5344940000000 1.0
C      1  0.4661920000000  0.5365940000000  0.4823810000000 1.0
C      1  0.4195420000000  0.4298800000000  0.5083670000000 1.0
C      1  0.5690570000000  0.4747700000000  0.5198430000000 1.0
C      1  0.4257340000000  0.4531870000000  0.4355040000000 1.0
C      1  0.4392170000000  0.4318500000000  0.5299230000000 1.0
C      1  0.4929860000000  0.5970570000000  0.4426460000000 1.0
C      1  0.5115350000000  0.5123370000000  0.6152720000000 1.0
C      1  0.5639860000000  0.4009410000000  0.4578430000000 1.0
C      1  0.4269370000000  0.5438820000000  0.4222410000000 1.0
C      1  0.5141640000000  0.4079140000000  0.4555800000000 1.0
C      1  0.5357650000000  0.4854680000000  0.5589480000000 1.0
C      1  0.5427190000000  0.5871860000000  0.5243390000000 1.0
C      1  0.5988210000000  0.5012540000000  0.5460290000000 1.0
C      1  0.4427830000000  0.4651680000000  0.5317600000000 1.0
C      1  0.4578240000000  0.4625260000000  0.5063210000000 1.0
C      1  0.5969540000000  0.5129580000000  0.4697880000000 1.0
C      1  0.4949650000000  0.5904990000000  0.5531780000000 1.0
C      1  0.5509610000000  0.4185660000000  0.5248550000000 1.0
C      1  0.5217740000000  0.5005640000000  0.4567840000000 1.0
C      1  0.4107010000000  0.4550300000000  0.4607940000000 1.0
C      1  0.5577160000000  0.5189050000000  0.4289410000000 1.0
C      1  0.5178800000000  0.4604940000000  0.4038390000000 1.0
C      1  0.4075680000000  0.4835250000000  0.4763310000000 1.0
C      1  0.5357540000000  0.4554180000000  0.4593510000000 1.0
C      1  0.5246490000000  0.4583440000000  0.5193090000000 1.0
C      1  0.4391360000000  0.4794920000000  0.4332030000000 1.0
C      1  0.4875000000000  0.5507900000000  0.4937240000000 1.0
C      1  0.4961110000000  0.4370110000000  0.4976340000000 1.0
C      1  0.3891370000000  0.5366700000000  0.4896910000000 1.0
C      1  0.5237440000000  0.4894640000000  0.6070600000000 1.0
C      1  0.5489730000000  0.5080200000000  0.4544290000000 1.0
C      1  0.4240270000000  0.5510210000000  0.5275900000000 1.0
C      1  0.4285460000000  0.5276980000000  0.5443260000000 1.0
C      1  0.4438490000000  0.5221520000000  0.4075510000000 1.0
C      1  0.4278550000000  0.4546440000000  0.5705190000000 1.0
C      1  0.4996360000000  0.4400250000000  0.5556260000000 1.0
C      1  0.3996320000000  0.4491640000000  0.5166400000000 1.0
C      1  0.5257300000000  0.5729170000000  0.5061850000000 1.0
C      1  0.4487360000000  0.5716420000000  0.4534220000000 1.0
C      1  0.4958900000000  0.5376860000000  0.5170060000000 1.0
C      1  0.4350640000000  0.5712880000000  0.5072630000000 1.0
C      1  0.4598470000000  0.5744410000000  0.5830490000000 1.0
C      1  0.5753450000000  0.5426390000000  0.4330300000000 1.0
C      1  0.5842550000000  0.4636410000000  0.5673380000000 1.0
C      1  0.4856090000000  0.4073670000000  0.5332750000000 1.0
C      1  0.4692610000000  0.5948240000000  0.4601170000000 1.0
C      1  0.4759300000000  0.5945210000000  0.4876490000000 1.0
C      1  0.6038850000000  0.4639180000000  0.4665140000000 1.0
C      1  0.4837880000000  0.4945920000000  0.4422310000000 1.0
C      1  0.4672950000000  0.4232070000000  0.4455810000000 1.0
C      1  0.4241260000000  0.5592030000000  0.4697110000000 1.0
C      1  0.4718220000000  0.3933960000000  0.4854290000000 1.0
C      1  0.4287360000000  0.5079180000000  0.4815040000000 1.0
C      1  0.4737990000000  0.4508730000000  0.4105580000000 1.0
C      1  0.4498060000000  0.4376030000000  0.4287440000000 1.0
C      1  0.5257810000000  0.5522350000000  0.5542070000000 1.0
C      1  0.3903860000000  0.5011720000000  0.5301920000000 1.0
C      1  0.4522650000000  0.4763610000000  0.4597410000000 1.0
C      1  0.5698520000000  0.5698840000000  0.4442850000000 1.0
C      1  0.4725410000000  0.4793560000000  0.3945660000000 1.0
C      1  0.4423670000000  0.5683870000000  0.4228740000000 1.0
C      1  0.5018530000000  0.4370880000000  0.4126440000000 1.0
C      1  0.5208980000000  0.5918050000000  0.5418370000000 1.0
C      1  0.5676510000000  0.5169450000000  0.5067730000000 1.0
C      1  0.5400310000000  0.5534690000000  0.6014400000000 1.0
C      1  0.5206900000000  0.5055420000000  0.3933420000000 1.0
C      1  0.5027870000000  0.5176330000000  0.4377600000000 1.0
C      1  0.5462300000000  0.5008900000000  0.4073870000000 1.0
C      1  0.5628640000000  0.4265880000000  0.5010640000000 1.0
C      1  0.4576930000000  0.5240160000000  0.5450180000000 1.0
C      1  0.4465240000000  0.5479390000000  0.5945790000000 1.0
C      1  0.4678880000000  0.5955280000000  0.5371720000000 1.0
C      1  0.4111130000000  0.5459320000000  0.4473110000000 1.0
C      1  0.5011470000000  0.4419780000000  0.5851760000000 1.0
C      1  0.4425540000000  0.4646480000000  0.4826430000000 1.0
C      1  0.5197500000000  0.5974720000000  0.4526510000000 1.0
C      1  0.4900240000000  0.5408940000000  0.4478830000000 1.0
C      1  0.5136570000000  0.4740180000000  0.4666190000000 1.0
C      1  0.5150420000000  0.5390220000000  0.6052830000000 1.0
C      1  0.5388430000000  0.4112480000000  0.5490590000000 1.0
C      1  0.5830760000000  0.5621370000000  0.4693910000000 1.0
C      1  0.4574620000000  0.5909070000000  0.5098990000000 1.0
C      1  0.5018600000000  0.4822980000000  0.3925040000000 1.0
C      1  0.5812240000000  0.4629910000000  0.4498700000000 1.0
C      1  0.5112010000000  0.4616960000000  0.4944190000000 1.0
C      1  0.4883750000000  0.5735280000000  0.5776620000000 1.0
C      1  0.5432250000000  0.4723170000000  0.4127150000000 1.0
C      1  0.5112550000000  0.5301260000000  0.5643810000000 1.0
C      1  0.4192770000000  0.5352040000000  0.4865480000000 1.0
C      1  0.6088430000000  0.4795530000000  0.4921440000000 1.0
C      1  0.5029880000000  0.5110970000000  0.5088440000000 1.0
C      1  0.4256010000000  0.4392030000000  0.4802810000000 1.0
C      1  0.4540240000000  0.5874460000000  0.5594510000000 1.0
C      1  0.5960670000000  0.4623890000000  0.5159790000000 1.0
C      1  0.5597870000000  0.4759410000000  0.4927810000000 1.0
C      1  0.4940620000000  0.5759380000000  0.4198780000000 1.0
C      1  0.5121410000000  0.5288790000000  0.4086300000000 1.0
C      1  0.4199560000000  0.4836190000000  0.5710360000000 1.0
C      1  0.4719180000000  0.4771010000000  0.5982810000000 1.0
C      1  0.5432210000000  0.5810830000000  0.4533040000000 1.0
C      1  0.4737050000000  0.4503610000000  0.5891070000000 1.0
C      1  0.4722280000000  0.5003730000000  0.5451960000000 1.0
C      1  0.4955960000000  0.4221810000000  0.4371690000000 1.0
C      1  0.6086400000000  0.5075960000000  0.4954270000000 1.0
C      1  0.4971350000000  0.5460200000000  0.5838260000000 1.0
C      1  0.5890630000000  0.4131180000000  0.4554590000000 1.0
C      1  0.4510230000000  0.4926790000000  0.4091570000000 1.0
C      1  0.3891680000000  0.5001840000000  0.4591850000000 1.0
C      1  0.5270460000000  0.5491000000000  0.5252010000000 1.0
C      1  0.4611780000000  0.4203160000000  0.5440040000000 1.0
C      1  0.5947720000000  0.5383680000000  0.4553450000000 1.0
C      1  0.6017270000000  0.4728380000000  0.5452100000000 1.0
C      1  0.5268680000000  0.5173750000000  0.4947170000000 1.0
C      1  0.5015720000000  0.5757690000000  0.4835380000000 1.0
C      1  0.4492850000000  0.4913490000000  0.5825660000000 1.0
C      1  0.5049400000000  0.5611030000000  0.4544240000000 1.0
C      1  0.5146180000000  0.5580240000000  0.4064560000000 1.0
C      1  0.3966570000000  0.4770520000000  0.5085870000000 1.0
C      1  0.4672110000000  0.5672530000000  0.4074310000000 1.0
C      1  0.5660340000000  0.5651530000000  0.5194050000000 1.0
C      1  0.4979170000000  0.4933830000000  0.5328030000000 1.0
C      1  0.5426090000000  0.5223320000000  0.5180500000000 1.0
C      1  0.5406720000000  0.5664320000000  0.5750970000000 1.0
C      1  0.3869930000000  0.5203840000000  0.5111630000000 1.0
C      1  0.3887350000000  0.5296650000000  0.4596240000000 1.0
C      1  0.5646380000000  0.4448090000000  0.5560590000000 1.0
C      1  0.5839440000000  0.5089210000000  0.5694370000000 1.0
C      1  0.5317940000000  0.4465350000000  0.5912980000000 1.0
C      1  0.5477520000000  0.4671780000000  0.5382040000000 1.0
C      1  0.4478310000000  0.5209200000000  0.5899650000000 1.0
C      1  0.5647550000000  0.5535120000000  0.5851070000000 1.0
C      1  0.5384270000000  0.3915060000000  0.4622800000000 1.0
C      1  0.5558810000000  0.4605500000000  0.4375650000000 1.0
C      1  0.4846340000000  0.4682440000000  0.4321920000000 1.0
C      1  0.5403010000000  0.5411440000000  0.4809060000000 1.0
C      1  0.4591450000000  0.4171140000000  0.4754390000000 1.0
C      1  0.4116240000000  0.5047770000000  0.5512510000000 1.0
C      1  0.4478290000000  0.5492400000000  0.5146380000000 1.0
C      1  0.4954150000000  0.4892530000000  0.6097250000000 1.0
C      1  0.4571020000000  0.4794410000000  0.5548390000000 1.0
C      1  0.5768070000000  0.5378650000000  0.5633940000000 1.0
C      1  0.5081110000000  0.4119340000000  0.5494620000000 1.0
C      1  0.5487390000000  0.4277950000000  0.5721230000000 1.0
C      1  0.6002540000000  0.4354630000000  0.4749370000000 1.0
C      1  0.4632820000000  0.5453610000000  0.4555330000000 1.0
C      1  0.5804590000000  0.5464930000000  0.5359550000000 1.0
C      1  0.4689510000000  0.4382460000000  0.4971380000000 1.0
C      1  0.5309960000000  0.5546750000000  0.4575290000000 1.0
C      1  0.5421710000000  0.4796530000000  0.5865390000000 1.0
C      1  0.5203330000000  0.4035260000000  0.4828710000000 1.0
C      1  0.4964460000000  0.4068100000000  0.5011740000000 1.0
C      1  0.4618140000000  0.5408400000000  0.3998050000000 1.0
C      1  0.4142420000000  0.4691960000000  0.5283800000000 1.0
END
