TITL C-883737-113-473 -17.1011405418325 125000 -10559.9255748034 0 0 71 (C1) n - 1
REM
REM in /home/nfs/bkarasulu/CARBON/AIRSS/Generating-Clusters/ReaxFF-fromJPCA2015/Units_Real/with-SteepDescent/Only-C1/SD-CG/Try1-3A/FIRE-CG
REM
REM
REM
REM
REM
REM ./C.cell (11c1c37f851c82e70ff6c80c92926a4b)
REM
REM compiler GCC version 9.2.1 20190827 (Red Hat 9.2.1-1)
REM options -cpp -mtune=generic -march=x86-64 -g -O0 -fpre-include=/usr/include/finclude/math-vector-fortran.h
REM seed -1016036094 -1757871370 663613932 -1897580299 -520006443 -202175602 180858177 -1725656204 978579493 391911239 -185987122 1702693709 -608809890 -814852223 1405291236 1124832260 183578096 182431608 -2048724174 -1376409838 1030265699 1134340838 -170346886 926964736 -1853617360 847989781 -727621958 1621468320 1837995521 584328175 1610856679 1589995799 -1847932512
REM
CELL 1.54180   50.00000   50.00000   50.00000   90.00000   90.00000   90.00000
LATT -1
SFAC C  
C      1  0.5122740000000  0.5748240000000  0.5078930000000 1.0
C      1  0.4785440000000  0.5158560000000  0.4119030000000 1.0
C      1  0.5300430000000  0.5385300000000  0.5371190000000 1.0
C      1  0.5297900000000  0.5279700000000  0.4721290000000 1.0
C      1  0.4514180000000  0.4652230000000  0.5433030000000 1.0
C      1  0.5151880000000  0.5026190000000  0.4167610000000 1.0
C      1  0.4852950000000  0.5683630000000  0.5124710000000 1.0
C      1  0.4314310000000  0.4771480000000  0.4557140000000 1.0
C      1  0.4841670000000  0.4956730000000  0.5206810000000 1.0
C      1  0.5007150000000  0.5212100000000  0.5795780000000 1.0
C      1  0.4805790000000  0.4838050000000  0.5797230000000 1.0
C      1  0.5266340000000  0.4790450000000  0.4264990000000 1.0
C      1  0.5354040000000  0.5598910000000  0.5171390000000 1.0
C      1  0.5702340000000  0.4945900000000  0.5498690000000 1.0
C      1  0.4696080000000  0.4251540000000  0.5318550000000 1.0
C      1  0.5545120000000  0.5430380000000  0.4729010000000 1.0
C      1  0.4913630000000  0.5592390000000  0.4609550000000 1.0
C      1  0.5597260000000  0.4899710000000  0.5775370000000 1.0
C      1  0.4917740000000  0.4173480000000  0.5165670000000 1.0
C      1  0.5314420000000  0.4664640000000  0.5470850000000 1.0
C      1  0.4938930000000  0.5734070000000  0.4859620000000 1.0
C      1  0.4870450000000  0.5080800000000  0.4638430000000 1.0
C      1  0.5722100000000  0.5044850000000  0.4388360000000 1.0
C      1  0.4843290000000  0.4778360000000  0.4583260000000 1.0
C      1  0.4578110000000  0.4911320000000  0.5311670000000 1.0
C      1  0.5563670000000  0.4800270000000  0.4344150000000 1.0
C      1  0.4502640000000  0.5365710000000  0.5355090000000 1.0
C      1  0.4488870000000  0.5259730000000  0.5638500000000 1.0
C      1  0.4234010000000  0.5207330000000  0.4752970000000 1.0
C      1  0.4461250000000  0.5354450000000  0.4815000000000 1.0
C      1  0.5285700000000  0.4398150000000  0.4887110000000 1.0
C      1  0.5320310000000  0.4782240000000  0.5745750000000 1.0
C      1  0.5288930000000  0.4471670000000  0.4600510000000 1.0
C      1  0.5175670000000  0.4270200000000  0.5132480000000 1.0
C      1  0.5082450000000  0.4919050000000  0.5850690000000 1.0
C      1  0.4756920000000  0.5438120000000  0.5233030000000 1.0
C      1  0.5148370000000  0.5328650000000  0.5583530000000 1.0
C      1  0.5434250000000  0.4840220000000  0.4925140000000 1.0
C      1  0.4496590000000  0.4450470000000  0.5223310000000 1.0
C      1  0.5850770000000  0.5197670000000  0.5390050000000 1.0
C      1  0.5042270000000  0.5310670000000  0.4543320000000 1.0
C      1  0.4236970000000  0.5130250000000  0.5572330000000 1.0
C      1  0.5583580000000  0.5512860000000  0.5013410000000 1.0
C      1  0.4636420000000  0.4989390000000  0.4225260000000 1.0
C      1  0.5694990000000  0.5279020000000  0.5157880000000 1.0
C      1  0.5421000000000  0.5132130000000  0.5205100000000 1.0
C      1  0.4720310000000  0.5207450000000  0.4846150000000 1.0
C      1  0.5029060000000  0.5263790000000  0.4217650000000 1.0
C      1  0.4245780000000  0.5024780000000  0.4965430000000 1.0
C      1  0.4845770000000  0.5213810000000  0.5094720000000 1.0
C      1  0.4293820000000  0.4757740000000  0.4855740000000 1.0
C      1  0.5105810000000  0.4650360000000  0.4468390000000 1.0
C      1  0.5147820000000  0.4437540000000  0.5390430000000 1.0
C      1  0.4273690000000  0.5038650000000  0.4552660000000 1.0
C      1  0.4721370000000  0.4603530000000  0.5635120000000 1.0
C      1  0.5745690000000  0.5267490000000  0.4584670000000 1.0
C      1  0.4407680000000  0.5514860000000  0.4564260000000 1.0
C      1  0.4952380000000  0.4730410000000  0.5050140000000 1.0
C      1  0.4563900000000  0.4792070000000  0.4398270000000 1.0
C      1  0.5230650000000  0.4662170000000  0.4989270000000 1.0
C      1  0.5826520000000  0.4995150000000  0.4654610000000 1.0
C      1  0.5491830000000  0.4846130000000  0.5319850000000 1.0
C      1  0.5317190000000  0.5092360000000  0.4936100000000 1.0
C      1  0.4662720000000  0.5650190000000  0.4469120000000 1.0
C      1  0.4362840000000  0.5115880000000  0.5258970000000 1.0
C      1  0.4722560000000  0.5120530000000  0.5776280000000 1.0
C      1  0.4766220000000  0.4638340000000  0.4848750000000 1.0
C      1  0.4883560000000  0.4391600000000  0.5514970000000 1.0
C      1  0.5661800000000  0.4770950000000  0.4754370000000 1.0
C      1  0.4503600000000  0.4570430000000  0.4954190000000 1.0
C      1  0.5557490000000  0.4596520000000  0.4547160000000 1.0
END
