TITL C-883741-3679-91 -2.76599747089704 125000 -15504.303838824 0 0 105 (C1) n - 1
REM
REM in /home/nfs/bkarasulu/CARBON/AIRSS/Generating-Clusters/ReaxFF-fromJPCA2015/Units_Real/with-SteepDescent/Only-C1/SD-CG/Try1-3A/FIRE-CG
REM
REM
REM
REM
REM
REM ./C.cell (11c1c37f851c82e70ff6c80c92926a4b)
REM
REM compiler GCC version 9.2.1 20190827 (Red Hat 9.2.1-1)
REM options -cpp -mtune=generic -march=x86-64 -g -O0 -fpre-include=/usr/include/finclude/math-vector-fortran.h
REM seed -578147422 1743635793 1994424780 -161577282 310482474 452387297 1030614308 1300302602 -2017410884 -416988538 796974039 202752347 -705922557 120486936 -737673400 -55520746 70147350 40670709 -1936003350 -152367919 1225820189 -510555429 29617503 -1989136930 -1356029618 -974286729 628219433 1270651914 791139955 505838447 -2140179817 -1197850758 -522194308
REM
CELL 1.54180   50.00000   50.00000   50.00000   90.00000   90.00000   90.00000
LATT -1
SFAC C  
C      1  0.5626980000000  0.4388100000000  0.5125950000000 1.0
C      1  0.5600240000000  0.4512500000000  0.4859160000000 1.0
C      1  0.5441720000000  0.5748670000000  0.5442970000000 1.0
C      1  0.4441050000000  0.4701850000000  0.4609570000000 1.0
C      1  0.4653990000000  0.5846980000000  0.5033010000000 1.0
C      1  0.4517920000000  0.4848260000000  0.5747330000000 1.0
C      1  0.4431490000000  0.5328390000000  0.5654420000000 1.0
C      1  0.4685950000000  0.5264260000000  0.5208850000000 1.0
C      1  0.4842640000000  0.5680560000000  0.4891370000000 1.0
C      1  0.5093660000000  0.4567110000000  0.4731630000000 1.0
C      1  0.5100030000000  0.5183490000000  0.4091790000000 1.0
C      1  0.5271060000000  0.4595950000000  0.5715050000000 1.0
C      1  0.4563740000000  0.5340350000000  0.4126150000000 1.0
C      1  0.5005330000000  0.4083420000000  0.4609970000000 1.0
C      1  0.4044100000000  0.4937210000000  0.5184700000000 1.0
C      1  0.4447850000000  0.5614870000000  0.4555360000000 1.0
C      1  0.4713350000000  0.4387520000000  0.5483050000000 1.0
C      1  0.5063510000000  0.5031370000000  0.5795110000000 1.0
C      1  0.5331740000000  0.5164130000000  0.5863080000000 1.0
C      1  0.4722410000000  0.5642220000000  0.4455770000000 1.0
C      1  0.5181690000000  0.5781410000000  0.4673850000000 1.0
C      1  0.4326700000000  0.4967960000000  0.4646030000000 1.0
C      1  0.4642840000000  0.4980700000000  0.5263360000000 1.0
C      1  0.5542320000000  0.4878100000000  0.4252570000000 1.0
C      1  0.5822910000000  0.5186430000000  0.5027430000000 1.0
C      1  0.4741350000000  0.5958490000000  0.5293410000000 1.0
C      1  0.4561200000000  0.4588030000000  0.4866290000000 1.0
C      1  0.4785270000000  0.4460620000000  0.3961500000000 1.0
C      1  0.5527430000000  0.5152940000000  0.4345480000000 1.0
C      1  0.5284800000000  0.5243340000000  0.4964010000000 1.0
C      1  0.5156520000000  0.5457910000000  0.5106160000000 1.0
C      1  0.5272450000000  0.5444250000000  0.5823450000000 1.0
C      1  0.5548890000000  0.4277300000000  0.4682910000000 1.0
C      1  0.4172200000000  0.5100550000000  0.5400990000000 1.0
C      1  0.4982130000000  0.5480280000000  0.5798290000000 1.0
C      1  0.5362120000000  0.4292980000000  0.4505190000000 1.0
C      1  0.5146210000000  0.4428470000000  0.5550670000000 1.0
C      1  0.5789500000000  0.4790710000000  0.4921040000000 1.0
C      1  0.5309200000000  0.5334650000000  0.4230060000000 1.0
C      1  0.4231860000000  0.5164930000000  0.4451080000000 1.0
C      1  0.4419560000000  0.5615110000000  0.5349460000000 1.0
C      1  0.5152990000000  0.5821080000000  0.5445620000000 1.0
C      1  0.5460770000000  0.5512090000000  0.5601280000000 1.0
C      1  0.4761300000000  0.4978520000000  0.4396620000000 1.0
C      1  0.4828940000000  0.4450740000000  0.4806870000000 1.0
C      1  0.4825610000000  0.5473200000000  0.4664740000000 1.0
C      1  0.5028460000000  0.5767740000000  0.4431420000000 1.0
C      1  0.4829590000000  0.4156460000000  0.4833050000000 1.0
C      1  0.4254730000000  0.5397130000000  0.5465060000000 1.0
C      1  0.5089400000000  0.5094220000000  0.4793860000000 1.0
C      1  0.4861250000000  0.4866480000000  0.5398260000000 1.0
C      1  0.5785010000000  0.5121460000000  0.4492020000000 1.0
C      1  0.4220600000000  0.4696650000000  0.5261220000000 1.0
C      1  0.4379600000000  0.5407470000000  0.4349270000000 1.0
C      1  0.5415050000000  0.5153000000000  0.5211230000000 1.0
C      1  0.4444580000000  0.4236080000000  0.5215210000000 1.0
C      1  0.5131870000000  0.5713840000000  0.4947070000000 1.0
C      1  0.4656880000000  0.5736240000000  0.5467030000000 1.0
C      1  0.4968930000000  0.4897360000000  0.4950800000000 1.0
C      1  0.5742150000000  0.4717720000000  0.5457220000000 1.0
C      1  0.4396710000000  0.5539770000000  0.4842950000000 1.0
C      1  0.5216130000000  0.4135810000000  0.5056350000000 1.0
C      1  0.4358730000000  0.4491340000000  0.5094050000000 1.0
C      1  0.5296850000000  0.4108710000000  0.4728010000000 1.0
C      1  0.4680030000000  0.5094300000000  0.4151570000000 1.0
C      1  0.5295270000000  0.4714720000000  0.4250620000000 1.0
C      1  0.5217010000000  0.4524440000000  0.4464070000000 1.0
C      1  0.4875100000000  0.4249510000000  0.4425630000000 1.0
C      1  0.5527480000000  0.5070950000000  0.5675410000000 1.0
C      1  0.5312010000000  0.4573620000000  0.4926770000000 1.0
C      1  0.5216720000000  0.5577920000000  0.4338190000000 1.0
C      1  0.4746520000000  0.4635870000000  0.5780720000000 1.0
C      1  0.4652660000000  0.4709740000000  0.4414290000000 1.0
C      1  0.5281410000000  0.4923070000000  0.5318610000000 1.0
C      1  0.5127810000000  0.4888790000000  0.4079520000000 1.0
C      1  0.5038820000000  0.4730190000000  0.5824570000000 1.0
C      1  0.5176090000000  0.4752850000000  0.5092420000000 1.0
C      1  0.4917250000000  0.5602600000000  0.5528340000000 1.0
C      1  0.4840800000000  0.5155400000000  0.4629120000000 1.0
C      1  0.4517540000000  0.5318180000000  0.4977580000000 1.0
C      1  0.5019010000000  0.6016750000000  0.5331660000000 1.0
C      1  0.5751510000000  0.5427010000000  0.5128790000000 1.0
C      1  0.4562870000000  0.5084750000000  0.4815420000000 1.0
C      1  0.5055720000000  0.5068440000000  0.5448760000000 1.0
C      1  0.5808700000000  0.4535950000000  0.5285760000000 1.0
C      1  0.5297390000000  0.4290360000000  0.5434580000000 1.0
C      1  0.4677370000000  0.4876630000000  0.4980350000000 1.0
C      1  0.5544580000000  0.5264420000000  0.5455400000000 1.0
C      1  0.4418220000000  0.5703080000000  0.5068130000000 1.0
C      1  0.4839470000000  0.5300380000000  0.4046000000000 1.0
C      1  0.5479760000000  0.4792980000000  0.5566610000000 1.0
C      1  0.4731970000000  0.4162190000000  0.5312490000000 1.0
C      1  0.5644520000000  0.5675160000000  0.5225900000000 1.0
C      1  0.4940970000000  0.4102690000000  0.5103380000000 1.0
C      1  0.5837920000000  0.4860580000000  0.4357980000000 1.0
C      1  0.5822380000000  0.5036900000000  0.4796030000000 1.0
C      1  0.4849050000000  0.5237780000000  0.5877200000000 1.0
C      1  0.4374800000000  0.4879370000000  0.5447040000000 1.0
C      1  0.4949650000000  0.5347970000000  0.5308330000000 1.0
C      1  0.4576070000000  0.5158660000000  0.5819220000000 1.0
C      1  0.5857840000000  0.4810170000000  0.5197940000000 1.0
C      1  0.4907820000000  0.4579360000000  0.5400710000000 1.0
C      1  0.5417960000000  0.4203170000000  0.5226920000000 1.0
C      1  0.4748220000000  0.4451340000000  0.4284920000000 1.0
C      1  0.4951690000000  0.4686280000000  0.3996340000000 1.0
END
