TITL C-883727-9645-250 28.0309460594845 125000 -15361.4862727294 0 0 105 (C1) n - 1
REM
REM in /home/nfs/bkarasulu/CARBON/AIRSS/Generating-Clusters/ReaxFF-fromJPCA2015/Units_Real/with-SteepDescent/Only-C1/SD-CG/Try1-3A/FIRE-CG
REM
REM
REM
REM
REM
REM ./C.cell (11c1c37f851c82e70ff6c80c92926a4b)
REM
REM compiler GCC version 9.2.1 20190827 (Red Hat 9.2.1-1)
REM options -cpp -mtune=generic -march=x86-64 -g -O0 -fpre-include=/usr/include/finclude/math-vector-fortran.h
REM seed -250806167 1947649368 1614820708 -731031520 -730333574 780609415 433243381 852627531 -1180433422 -2008273912 551138978 -1774150099 -922077960 155262962 -2133691101 -574652575 653820276 950125954 977005596 -1365202331 978814021 -1303534661 -1079004101 -977010671 -1007439941 2097186757 1130694343 179584894 -267052336 -1295574797 -375189057 1465000350 1898154258
REM
CELL 1.54180   50.00000   50.00000   50.00000   90.00000   90.00000   90.00000
LATT -1
SFAC C  
C      1  0.5566480000000  0.4739770000000  0.4997920000000 1.0
C      1  0.5243880000000  0.4376220000000  0.5379770000000 1.0
C      1  0.5452570000000  0.4546590000000  0.5494590000000 1.0
C      1  0.4557140000000  0.4769820000000  0.4384600000000 1.0
C      1  0.4815020000000  0.5406740000000  0.4813820000000 1.0
C      1  0.4868450000000  0.5169260000000  0.5798540000000 1.0
C      1  0.5462220000000  0.5505030000000  0.4290720000000 1.0
C      1  0.5796620000000  0.5459540000000  0.4969540000000 1.0
C      1  0.4725560000000  0.4876090000000  0.5334950000000 1.0
C      1  0.4774380000000  0.5898200000000  0.4865230000000 1.0
C      1  0.5264100000000  0.5063690000000  0.4421690000000 1.0
C      1  0.4285400000000  0.5456480000000  0.5482780000000 1.0
C      1  0.4832280000000  0.5792900000000  0.4606110000000 1.0
C      1  0.5351920000000  0.4770160000000  0.5657880000000 1.0
C      1  0.5498150000000  0.5594080000000  0.5479980000000 1.0
C      1  0.5165190000000  0.5584960000000  0.4927450000000 1.0
C      1  0.4763120000000  0.4579890000000  0.4814610000000 1.0
C      1  0.5689290000000  0.4886770000000  0.4560690000000 1.0
C      1  0.4161500000000  0.5197320000000  0.4774910000000 1.0
C      1  0.4565250000000  0.4332060000000  0.5667380000000 1.0
C      1  0.4985850000000  0.4647100000000  0.4986860000000 1.0
C      1  0.4209270000000  0.4553140000000  0.4961150000000 1.0
C      1  0.4867560000000  0.5408630000000  0.4303180000000 1.0
C      1  0.4588400000000  0.4432920000000  0.5207240000000 1.0
C      1  0.4704600000000  0.4297700000000  0.4770150000000 1.0
C      1  0.5657430000000  0.5433630000000  0.5280370000000 1.0
C      1  0.5007240000000  0.5513250000000  0.5155650000000 1.0
C      1  0.4151970000000  0.4966890000000  0.4610520000000 1.0
C      1  0.4745330000000  0.5120710000000  0.5249820000000 1.0
C      1  0.4795580000000  0.4247530000000  0.5259060000000 1.0
C      1  0.5299090000000  0.5851130000000  0.4864870000000 1.0
C      1  0.4536720000000  0.4943460000000  0.5121020000000 1.0
C      1  0.4124250000000  0.4704810000000  0.5514910000000 1.0
C      1  0.4976070000000  0.4933300000000  0.4084880000000 1.0
C      1  0.4572820000000  0.5474620000000  0.5526430000000 1.0
C      1  0.5049410000000  0.4634780000000  0.4128650000000 1.0
C      1  0.4572820000000  0.5021120000000  0.4828290000000 1.0
C      1  0.4602180000000  0.5344160000000  0.4403240000000 1.0
C      1  0.5237770000000  0.5695210000000  0.5542140000000 1.0
C      1  0.4387040000000  0.4764990000000  0.5552130000000 1.0
C      1  0.5063220000000  0.4178800000000  0.5060850000000 1.0
C      1  0.5298270000000  0.4535980000000  0.4116620000000 1.0
C      1  0.5117250000000  0.4366270000000  0.4565710000000 1.0
C      1  0.5323460000000  0.4176150000000  0.5185850000000 1.0
C      1  0.5047320000000  0.5975420000000  0.4893660000000 1.0
C      1  0.4499120000000  0.4339730000000  0.4567390000000 1.0
C      1  0.4994260000000  0.5702860000000  0.5380510000000 1.0
C      1  0.4397440000000  0.5202150000000  0.4235900000000 1.0
C      1  0.5047560000000  0.5162820000000  0.4238560000000 1.0
C      1  0.5559880000000  0.4411080000000  0.4126280000000 1.0
C      1  0.5607420000000  0.5490920000000  0.4751810000000 1.0
C      1  0.5915060000000  0.5053680000000  0.5200190000000 1.0
C      1  0.5407410000000  0.4439580000000  0.4591000000000 1.0
C      1  0.5629520000000  0.5290150000000  0.4198930000000 1.0
C      1  0.5453300000000  0.5727950000000  0.4643050000000 1.0
C      1  0.5923780000000  0.4976740000000  0.4731660000000 1.0
C      1  0.5259130000000  0.5109130000000  0.5241830000000 1.0
C      1  0.5291670000000  0.5685820000000  0.4403720000000 1.0
C      1  0.4995650000000  0.4504930000000  0.5293920000000 1.0
C      1  0.4393360000000  0.5602060000000  0.5021410000000 1.0
C      1  0.4980650000000  0.5653900000000  0.4406200000000 1.0
C      1  0.4195940000000  0.5215150000000  0.5620890000000 1.0
C      1  0.4602170000000  0.5752340000000  0.5099780000000 1.0
C      1  0.4644910000000  0.4490070000000  0.4362720000000 1.0
C      1  0.3984780000000  0.4893040000000  0.5441770000000 1.0
C      1  0.5467940000000  0.5249470000000  0.4840760000000 1.0
C      1  0.5078980000000  0.5367790000000  0.4757950000000 1.0
C      1  0.5064080000000  0.4838460000000  0.5656710000000 1.0
C      1  0.4989120000000  0.4209510000000  0.4781970000000 1.0
C      1  0.4105150000000  0.4691800000000  0.4730240000000 1.0
C      1  0.5325900000000  0.4838060000000  0.5146610000000 1.0
C      1  0.4649030000000  0.5221160000000  0.5661010000000 1.0
C      1  0.5002140000000  0.5227900000000  0.5222170000000 1.0
C      1  0.4422940000000  0.4534970000000  0.5686290000000 1.0
C      1  0.4318360000000  0.4939750000000  0.4354330000000 1.0
C      1  0.5689720000000  0.4503060000000  0.5320510000000 1.0
C      1  0.5617670000000  0.4269200000000  0.5163470000000 1.0
C      1  0.4113330000000  0.5387020000000  0.5249660000000 1.0
C      1  0.4941630000000  0.4464250000000  0.4349600000000 1.0
C      1  0.4732610000000  0.4134840000000  0.5568410000000 1.0
C      1  0.5541000000000  0.5033720000000  0.4359070000000 1.0
C      1  0.5270130000000  0.5230170000000  0.5764490000000 1.0
C      1  0.5468950000000  0.5013310000000  0.5754780000000 1.0
C      1  0.4578910000000  0.5292910000000  0.4709640000000 1.0
C      1  0.5462140000000  0.5269410000000  0.5118670000000 1.0
C      1  0.4406230000000  0.4631700000000  0.5178050000000 1.0
C      1  0.5230130000000  0.5105690000000  0.4720110000000 1.0
C      1  0.4247140000000  0.4437480000000  0.4693340000000 1.0
C      1  0.5598090000000  0.4302430000000  0.4414860000000 1.0
C      1  0.5541820000000  0.4682860000000  0.4710040000000 1.0
C      1  0.5034050000000  0.5131220000000  0.5636360000000 1.0
C      1  0.5856300000000  0.4865750000000  0.5791880000000 1.0
C      1  0.6018230000000  0.4744650000000  0.4880290000000 1.0
C      1  0.3978230000000  0.5174210000000  0.5416270000000 1.0
C      1  0.5922640000000  0.5197350000000  0.4947810000000 1.0
C      1  0.5762470000000  0.5090470000000  0.5683440000000 1.0
C      1  0.5142920000000  0.4858080000000  0.4922600000000 1.0
C      1  0.4173110000000  0.5426920000000  0.4960250000000 1.0
C      1  0.5826980000000  0.5217880000000  0.5407850000000 1.0
C      1  0.5835600000000  0.4746960000000  0.5137160000000 1.0
C      1  0.4703430000000  0.5684710000000  0.5377050000000 1.0
C      1  0.4901950000000  0.4707210000000  0.5463160000000 1.0
C      1  0.4424280000000  0.5042450000000  0.5655820000000 1.0
C      1  0.5358870000000  0.5494980000000  0.5695470000000 1.0
C      1  0.4655340000000  0.4808870000000  0.4657890000000 1.0
END
