TITL C-884142-5251-284 -1.5246440488462e-07 125000 -7948.76663100792 0 0 55 (C1) n - 1
REM
REM in /home/nfs/bkarasulu/CARBON/AIRSS/Generating-Clusters/ReaxFF-fromJPCA2015/Units_Real/with-SteepDescent/Only-C1/SD-CG/Try1-3A/FIRE-CG
REM
REM
REM
REM
REM
REM ./C.cell (11c1c37f851c82e70ff6c80c92926a4b)
REM
REM compiler GCC version 9.2.1 20190827 (Red Hat 9.2.1-1)
REM options -cpp -mtune=generic -march=x86-64 -g -O0 -fpre-include=/usr/include/finclude/math-vector-fortran.h
REM seed 249197252 -1933715802 2067062677 -332638381 1503678908 -128118723 -1870002639 1597407100 -1366379239 524048312 1493867351 -2015984613 -1020489431 1307731180 1870037465 -1163173546 -1753219606 233849852 82531326 1643809801 -728951309 1014348787 -857879598 1087321051 -1314921367 -1972494749 -381756119 -967960623 -1140483232 878248430 -479785041 1385984314 -1130883657
REM
CELL 1.54180   50.00000   50.00000   50.00000   90.00000   90.00000   90.00000
LATT -1
SFAC C  
C      1  0.4740280000000  0.5184350000000  0.4396700000000 1.0
C      1  0.4600970000000  0.5277790000000  0.5181050000000 1.0
C      1  0.5312360000000  0.4392640000000  0.4833960000000 1.0
C      1  0.5523400000000  0.4834670000000  0.4932360000000 1.0
C      1  0.4957980000000  0.5186300000000  0.4175890000000 1.0
C      1  0.5409650000000  0.5480520000000  0.4954250000000 1.0
C      1  0.4346640000000  0.4904400000000  0.4551850000000 1.0
C      1  0.5647690000000  0.5127640000000  0.5312910000000 1.0
C      1  0.4746120000000  0.5555430000000  0.5189380000000 1.0
C      1  0.4517890000000  0.5198270000000  0.5475560000000 1.0
C      1  0.5507970000000  0.5389560000000  0.4695570000000 1.0
C      1  0.5526190000000  0.5069020000000  0.5524430000000 1.0
C      1  0.4451230000000  0.5174840000000  0.4456850000000 1.0
C      1  0.5012380000000  0.5575070000000  0.5220870000000 1.0
C      1  0.5099450000000  0.5613150000000  0.5519200000000 1.0
C      1  0.4549100000000  0.4443310000000  0.5381010000000 1.0
C      1  0.4641840000000  0.4511080000000  0.5124760000000 1.0
C      1  0.5356570000000  0.4964100000000  0.5718040000000 1.0
C      1  0.5159900000000  0.5393540000000  0.5070440000000 1.0
C      1  0.4701080000000  0.4261310000000  0.4664200000000 1.0
C      1  0.4707710000000  0.4723900000000  0.5516280000000 1.0
C      1  0.4395870000000  0.5262130000000  0.4927160000000 1.0
C      1  0.5331700000000  0.4580290000000  0.5381880000000 1.0
C      1  0.4724360000000  0.5746340000000  0.4995640000000 1.0
C      1  0.4871070000000  0.5413470000000  0.4524880000000 1.0
C      1  0.5236240000000  0.4716530000000  0.4391510000000 1.0
C      1  0.5116950000000  0.5381870000000  0.5684000000000 1.0
C      1  0.4881970000000  0.4978780000000  0.5806300000000 1.0
C      1  0.4646950000000  0.5584050000000  0.4597120000000 1.0
C      1  0.5504870000000  0.4516340000000  0.5015730000000 1.0
C      1  0.4622200000000  0.5003660000000  0.5648490000000 1.0
C      1  0.5420560000000  0.4948670000000  0.4452020000000 1.0
C      1  0.4658930000000  0.5863460000000  0.4739510000000 1.0
C      1  0.5244460000000  0.4705770000000  0.5637110000000 1.0
C      1  0.4431130000000  0.5390640000000  0.4659000000000 1.0
C      1  0.5122460000000  0.5363080000000  0.4358650000000 1.0
C      1  0.5621490000000  0.4852730000000  0.4631840000000 1.0
C      1  0.5361220000000  0.5245880000000  0.4490490000000 1.0
C      1  0.5704040000000  0.5064970000000  0.5059330000000 1.0
C      1  0.5236080000000  0.4886310000000  0.5013660000000 1.0
C      1  0.4731710000000  0.4514980000000  0.4481500000000 1.0
C      1  0.4316240000000  0.5025380000000  0.4813710000000 1.0
C      1  0.5124000000000  0.4428570000000  0.5248380000000 1.0
C      1  0.4800570000000  0.5050750000000  0.5118870000000 1.0
C      1  0.5085640000000  0.4291120000000  0.4999740000000 1.0
C      1  0.4730760000000  0.4786720000000  0.5218900000000 1.0
C      1  0.5010340000000  0.4625420000000  0.4509020000000 1.0
C      1  0.5128940000000  0.5142290000000  0.5813020000000 1.0
C      1  0.4798790000000  0.4307740000000  0.4931090000000 1.0
C      1  0.4959940000000  0.4723620000000  0.5696830000000 1.0
C      1  0.5663970000000  0.5329920000000  0.4949380000000 1.0
C      1  0.5156190000000  0.4705590000000  0.5206580000000 1.0
C      1  0.5240020000000  0.4484110000000  0.4554400000000 1.0
C      1  0.5066930000000  0.5117530000000  0.5034710000000 1.0
C      1  0.4536950000000  0.4700430000000  0.4513940000000 1.0
END
