TITL C-884135-4325-131 5.87397502188444 125000 -12598.5022160943 0 0 84 (C1) n - 1
REM
REM in /home/nfs/bkarasulu/CARBON/AIRSS/Generating-Clusters/ReaxFF-fromJPCA2015/Units_Real/with-SteepDescent/Only-C1/SD-CG/Try1-3A/FIRE-CG
REM
REM
REM
REM
REM
REM ./C.cell (11c1c37f851c82e70ff6c80c92926a4b)
REM
REM compiler GCC version 9.2.1 20190827 (Red Hat 9.2.1-1)
REM options -cpp -mtune=generic -march=x86-64 -g -O0 -fpre-include=/usr/include/finclude/math-vector-fortran.h
REM seed -355359493 -672321588 -1179879702 -85816735 2093923884 1009153597 -447139511 1643523013 -395368731 -747662034 -1367505988 1197778418 -968531729 -1508829019 -356355675 1557584238 794965676 1297844245 -1336175173 -122320656 -1460955468 2004568091 -2031884612 988941127 2138664740 1716522279 1241734521 -351101485 -13079277 -536104655 1362593834 341687945 379693170
REM
CELL 1.54180   50.00000   50.00000   50.00000   90.00000   90.00000   90.00000
LATT -1
SFAC C  
C      1  0.4456720000000  0.5476570000000  0.5404540000000 1.0
C      1  0.4382790000000  0.5292390000000  0.4895970000000 1.0
C      1  0.5216870000000  0.4648770000000  0.5731450000000 1.0
C      1  0.5552510000000  0.5334600000000  0.4682900000000 1.0
C      1  0.4785210000000  0.5759850000000  0.4752430000000 1.0
C      1  0.4681910000000  0.5333930000000  0.4972810000000 1.0
C      1  0.5509350000000  0.4583480000000  0.4817340000000 1.0
C      1  0.5917300000000  0.5060310000000  0.4806840000000 1.0
C      1  0.5843710000000  0.5099870000000  0.5100940000000 1.0
C      1  0.4872140000000  0.5222820000000  0.4213930000000 1.0
C      1  0.5118400000000  0.4929030000000  0.5774280000000 1.0
C      1  0.4413880000000  0.4524380000000  0.5055610000000 1.0
C      1  0.5496470000000  0.4957300000000  0.5584430000000 1.0
C      1  0.5172520000000  0.4880680000000  0.4684390000000 1.0
C      1  0.5154320000000  0.4354320000000  0.5143690000000 1.0
C      1  0.5734910000000  0.4846650000000  0.5120440000000 1.0
C      1  0.5658940000000  0.5061730000000  0.4648720000000 1.0
C      1  0.4932490000000  0.5652740000000  0.5261490000000 1.0
C      1  0.5353440000000  0.5683810000000  0.4459910000000 1.0
C      1  0.4690020000000  0.5572260000000  0.4545030000000 1.0
C      1  0.4849060000000  0.4281880000000  0.5647740000000 1.0
C      1  0.4372340000000  0.4886870000000  0.4613370000000 1.0
C      1  0.5290970000000  0.4318190000000  0.5399490000000 1.0
C      1  0.5482070000000  0.4665560000000  0.5610110000000 1.0
C      1  0.4964220000000  0.4172640000000  0.4992800000000 1.0
C      1  0.5401380000000  0.5385590000000  0.5096030000000 1.0
C      1  0.4305000000000  0.4994160000000  0.4871370000000 1.0
C      1  0.4376090000000  0.4984750000000  0.5576060000000 1.0
C      1  0.5077850000000  0.4638410000000  0.5182690000000 1.0
C      1  0.4435600000000  0.5108980000000  0.4436950000000 1.0
C      1  0.4750910000000  0.5519340000000  0.5447380000000 1.0
C      1  0.4607680000000  0.4843730000000  0.5701180000000 1.0
C      1  0.4622560000000  0.5062800000000  0.4222620000000 1.0
C      1  0.4736930000000  0.4824330000000  0.4931070000000 1.0
C      1  0.4612580000000  0.4338400000000  0.5512750000000 1.0
C      1  0.5087220000000  0.5054510000000  0.4094150000000 1.0
C      1  0.4171430000000  0.5161430000000  0.5229940000000 1.0
C      1  0.5342920000000  0.5024410000000  0.5340110000000 1.0
C      1  0.4476460000000  0.4610420000000  0.4580270000000 1.0
C      1  0.4455590000000  0.5272880000000  0.5617130000000 1.0
C      1  0.5094110000000  0.4521240000000  0.4194640000000 1.0
C      1  0.4431670000000  0.5392030000000  0.4578910000000 1.0
C      1  0.5325210000000  0.4429310000000  0.4649060000000 1.0
C      1  0.5285640000000  0.5335590000000  0.4827730000000 1.0
C      1  0.5002870000000  0.5951800000000  0.4682850000000 1.0
C      1  0.5287260000000  0.5935790000000  0.4613710000000 1.0
C      1  0.4802710000000  0.4104510000000  0.5183960000000 1.0
C      1  0.5173780000000  0.5473220000000  0.4549980000000 1.0
C      1  0.4236540000000  0.4904970000000  0.5322310000000 1.0
C      1  0.4282060000000  0.5411520000000  0.5171830000000 1.0
C      1  0.5245780000000  0.5297070000000  0.5323690000000 1.0
C      1  0.4587550000000  0.4513560000000  0.5291630000000 1.0
C      1  0.5134020000000  0.5066830000000  0.4920630000000 1.0
C      1  0.5326620000000  0.5132980000000  0.5744960000000 1.0
C      1  0.4979710000000  0.4772460000000  0.4077420000000 1.0
C      1  0.5114130000000  0.4397350000000  0.5627510000000 1.0
C      1  0.5518580000000  0.4496390000000  0.5371670000000 1.0
C      1  0.5680310000000  0.5361440000000  0.5172290000000 1.0
C      1  0.5411450000000  0.5626500000000  0.5510690000000 1.0
C      1  0.4915150000000  0.5437470000000  0.4422010000000 1.0
C      1  0.4792000000000  0.4689210000000  0.5191850000000 1.0
C      1  0.4629680000000  0.4567910000000  0.4335450000000 1.0
C      1  0.4782400000000  0.4279390000000  0.4811120000000 1.0
C      1  0.4881910000000  0.4426870000000  0.4361470000000 1.0
C      1  0.5614110000000  0.4602010000000  0.5105530000000 1.0
C      1  0.5220490000000  0.5745880000000  0.5295340000000 1.0
C      1  0.4358350000000  0.4804920000000  0.5073110000000 1.0
C      1  0.5682670000000  0.5539280000000  0.5409070000000 1.0
C      1  0.5345080000000  0.4470870000000  0.4360540000000 1.0
C      1  0.4697450000000  0.4788900000000  0.4153070000000 1.0
C      1  0.5463140000000  0.4827060000000  0.4662000000000 1.0
C      1  0.5581590000000  0.5624760000000  0.4634970000000 1.0
C      1  0.4844350000000  0.5029070000000  0.5718530000000 1.0
C      1  0.4730420000000  0.4094520000000  0.5452430000000 1.0
C      1  0.5488090000000  0.5847570000000  0.4825850000000 1.0
C      1  0.5274250000000  0.5384750000000  0.5602020000000 1.0
C      1  0.4982230000000  0.4433970000000  0.4651620000000 1.0
C      1  0.5227360000000  0.4882630000000  0.5131030000000 1.0
C      1  0.5356590000000  0.5802890000000  0.5065800000000 1.0
C      1  0.4944340000000  0.4725220000000  0.4736130000000 1.0
C      1  0.4743220000000  0.5305400000000  0.5659800000000 1.0
C      1  0.4532710000000  0.4435360000000  0.4807040000000 1.0
C      1  0.4825250000000  0.5102830000000  0.4953750000000 1.0
C      1  0.4804410000000  0.5601920000000  0.5004630000000 1.0
END
