TITL C-883730-8503-349 79.2566713322353 125000 -18570.0798561025 0 0 126 (C1) n - 1
REM
REM in /home/nfs/bkarasulu/CARBON/AIRSS/Generating-Clusters/ReaxFF-fromJPCA2015/Units_Real/with-SteepDescent/Only-C1/SD-CG/Try1-3A/FIRE-CG
REM
REM
REM
REM
REM
REM ./C.cell (11c1c37f851c82e70ff6c80c92926a4b)
REM
REM compiler GCC version 9.2.1 20190827 (Red Hat 9.2.1-1)
REM options -cpp -mtune=generic -march=x86-64 -g -O0 -fpre-include=/usr/include/finclude/math-vector-fortran.h
REM seed -48059222 324135312 797733952 -832728571 -1109900959 112744709 -1079557033 788872275 -788592579 882873114 -1051572182 760526128 -305444432 360665779 846682155 2078188143 -21528301 -1801937949 -1377812223 1337117476 -766812885 1807718270 1962719529 -265717073 1462469491 -377681695 1269011859 -1812481085 299367415 -1169351987 -1972728192 -1093993046 1192269568
REM
CELL 1.54180   50.00000   50.00000   50.00000   90.00000   90.00000   90.00000
LATT -1
SFAC C  
C      1  0.6006760000000  0.5160950000000  0.5079880000000 1.0
C      1  0.5084170000000  0.4286790000000  0.5683740000000 1.0
C      1  0.4687470000000  0.5024750000000  0.4682440000000 1.0
C      1  0.4594800000000  0.5239360000000  0.4838920000000 1.0
C      1  0.4646690000000  0.5304610000000  0.5324030000000 1.0
C      1  0.4735180000000  0.5952900000000  0.4944380000000 1.0
C      1  0.4631410000000  0.5564980000000  0.5471480000000 1.0
C      1  0.4220970000000  0.5101150000000  0.5157780000000 1.0
C      1  0.5503430000000  0.5220610000000  0.4949480000000 1.0
C      1  0.5164650000000  0.5346290000000  0.5442190000000 1.0
C      1  0.4952020000000  0.4071710000000  0.4966370000000 1.0
C      1  0.5298770000000  0.5069630000000  0.4217400000000 1.0
C      1  0.5643540000000  0.4840220000000  0.5478260000000 1.0
C      1  0.4464690000000  0.5123500000000  0.4087410000000 1.0
C      1  0.5140880000000  0.4833950000000  0.4104870000000 1.0
C      1  0.5948070000000  0.5129930000000  0.4674750000000 1.0
C      1  0.4836530000000  0.4552350000000  0.5017590000000 1.0
C      1  0.4495600000000  0.5195090000000  0.5096100000000 1.0
C      1  0.4804030000000  0.5417790000000  0.5860200000000 1.0
C      1  0.5718280000000  0.5370790000000  0.4808010000000 1.0
C      1  0.4603930000000  0.4195420000000  0.5321130000000 1.0
C      1  0.4130870000000  0.4802430000000  0.5132770000000 1.0
C      1  0.5008180000000  0.4238770000000  0.4546870000000 1.0
C      1  0.5787120000000  0.5101510000000  0.5509630000000 1.0
C      1  0.5594850000000  0.5042240000000  0.4535650000000 1.0
C      1  0.4983200000000  0.5647220000000  0.5802610000000 1.0
C      1  0.5080510000000  0.4748540000000  0.5405920000000 1.0
C      1  0.5152900000000  0.5846770000000  0.4619070000000 1.0
C      1  0.4801470000000  0.4376670000000  0.4214900000000 1.0
C      1  0.5805530000000  0.5572340000000  0.5313760000000 1.0
C      1  0.5257070000000  0.5369140000000  0.4237770000000 1.0
C      1  0.4733250000000  0.5162940000000  0.4026870000000 1.0
C      1  0.4301700000000  0.5448580000000  0.4597290000000 1.0
C      1  0.4874350000000  0.4093650000000  0.5249490000000 1.0
C      1  0.4520950000000  0.5525110000000  0.4384590000000 1.0
C      1  0.5654140000000  0.5730250000000  0.5124930000000 1.0
C      1  0.5013240000000  0.5938480000000  0.4862530000000 1.0
C      1  0.4851670000000  0.4893620000000  0.4081370000000 1.0
C      1  0.5341000000000  0.4812270000000  0.4869300000000 1.0
C      1  0.5019870000000  0.5368830000000  0.4737460000000 1.0
C      1  0.4400380000000  0.5787870000000  0.5208390000000 1.0
C      1  0.4951480000000  0.5131430000000  0.4590490000000 1.0
C      1  0.5175570000000  0.5006070000000  0.4473010000000 1.0
C      1  0.6032570000000  0.4964430000000  0.4894050000000 1.0
C      1  0.5243100000000  0.5355900000000  0.4943940000000 1.0
C      1  0.5379950000000  0.4902340000000  0.5366180000000 1.0
C      1  0.5304720000000  0.4475350000000  0.5711780000000 1.0
C      1  0.4749490000000  0.5085960000000  0.5467640000000 1.0
C      1  0.5615090000000  0.5660630000000  0.4847590000000 1.0
C      1  0.5643780000000  0.4874380000000  0.4305640000000 1.0
C      1  0.4410810000000  0.5019350000000  0.5722620000000 1.0
C      1  0.4213130000000  0.4655260000000  0.4626520000000 1.0
C      1  0.5175950000000  0.5556900000000  0.5622320000000 1.0
C      1  0.4575230000000  0.4353760000000  0.5794440000000 1.0
C      1  0.4329830000000  0.5272090000000  0.5615320000000 1.0
C      1  0.5613360000000  0.5568960000000  0.5522610000000 1.0
C      1  0.5435340000000  0.5507170000000  0.4425870000000 1.0
C      1  0.5601170000000  0.5291610000000  0.5612460000000 1.0
C      1  0.4469780000000  0.4223590000000  0.5580850000000 1.0
C      1  0.5579670000000  0.4410850000000  0.4680700000000 1.0
C      1  0.5381550000000  0.4855220000000  0.4592470000000 1.0
C      1  0.5485980000000  0.4390540000000  0.5498090000000 1.0
C      1  0.5048150000000  0.5703960000000  0.5036870000000 1.0
C      1  0.5928630000000  0.5281220000000  0.5312630000000 1.0
C      1  0.4731880000000  0.5410040000000  0.4207210000000 1.0
C      1  0.4676390000000  0.5738500000000  0.4480520000000 1.0
C      1  0.4859120000000  0.4902850000000  0.5296530000000 1.0
C      1  0.4620280000000  0.4759440000000  0.4209270000000 1.0
C      1  0.5328850000000  0.5139410000000  0.5571860000000 1.0
C      1  0.4242500000000  0.5564650000000  0.5137940000000 1.0
C      1  0.5832650000000  0.4526080000000  0.5143370000000 1.0
C      1  0.5416480000000  0.5718170000000  0.4635640000000 1.0
C      1  0.4654580000000  0.5924410000000  0.5229330000000 1.0
C      1  0.5097770000000  0.4130870000000  0.5432720000000 1.0
C      1  0.5078800000000  0.4893240000000  0.4891880000000 1.0
C      1  0.4326390000000  0.4358940000000  0.4940220000000 1.0
C      1  0.5885760000000  0.4976970000000  0.4439820000000 1.0
C      1  0.5467060000000  0.4131950000000  0.4763510000000 1.0
C      1  0.4923260000000  0.5154060000000  0.5885810000000 1.0
C      1  0.4811300000000  0.5802380000000  0.5452850000000 1.0
C      1  0.4192110000000  0.5322900000000  0.5340380000000 1.0
C      1  0.4315430000000  0.5597320000000  0.4849450000000 1.0
C      1  0.5075470000000  0.4346240000000  0.4262610000000 1.0
C      1  0.4167490000000  0.4606830000000  0.4902390000000 1.0
C      1  0.4187510000000  0.4913380000000  0.4481460000000 1.0
C      1  0.4515210000000  0.4266670000000  0.4721830000000 1.0
C      1  0.4962770000000  0.5748470000000  0.4417230000000 1.0
C      1  0.5587070000000  0.5319710000000  0.4572310000000 1.0
C      1  0.4602030000000  0.4700790000000  0.5131340000000 1.0
C      1  0.4761480000000  0.5456560000000  0.4822540000000 1.0
C      1  0.4358430000000  0.4912260000000  0.4233810000000 1.0
C      1  0.5190460000000  0.4736820000000  0.5822370000000 1.0
C      1  0.5252070000000  0.4592050000000  0.4225110000000 1.0
C      1  0.5226570000000  0.5734050000000  0.5187300000000 1.0
C      1  0.4476890000000  0.4413310000000  0.5179730000000 1.0
C      1  0.4791390000000  0.4158310000000  0.4730980000000 1.0
C      1  0.4942280000000  0.4675850000000  0.4772690000000 1.0
C      1  0.5243030000000  0.4063050000000  0.4923470000000 1.0
C      1  0.5083630000000  0.5805730000000  0.5569590000000 1.0
C      1  0.4545720000000  0.4475400000000  0.4266300000000 1.0
C      1  0.5287570000000  0.4413260000000  0.5121390000000 1.0
C      1  0.4583050000000  0.4841140000000  0.4872020000000 1.0
C      1  0.5704930000000  0.4561760000000  0.5404250000000 1.0
C      1  0.4539480000000  0.5451810000000  0.5727990000000 1.0
C      1  0.5517630000000  0.4950930000000  0.5065830000000 1.0
C      1  0.5007490000000  0.5516530000000  0.4243740000000 1.0
C      1  0.5795640000000  0.4765840000000  0.4982030000000 1.0
C      1  0.5783210000000  0.4506970000000  0.4862780000000 1.0
C      1  0.4608610000000  0.5713480000000  0.4789240000000 1.0
C      1  0.4163850000000  0.5188280000000  0.4584870000000 1.0
C      1  0.4285400000000  0.4758350000000  0.5634570000000 1.0
C      1  0.4714390000000  0.4981260000000  0.5743170000000 1.0
C      1  0.4199170000000  0.4726440000000  0.5382300000000 1.0
C      1  0.5085990000000  0.5330440000000  0.5173190000000 1.0
C      1  0.5044790000000  0.4534320000000  0.5215730000000 1.0
C      1  0.4846220000000  0.4428180000000  0.5774640000000 1.0
C      1  0.5428440000000  0.5768090000000  0.5357490000000 1.0
C      1  0.4985530000000  0.5071830000000  0.5089850000000 1.0
C      1  0.5179860000000  0.5026650000000  0.5828160000000 1.0
C      1  0.5349750000000  0.4504260000000  0.4837610000000 1.0
C      1  0.4397050000000  0.4440330000000  0.4527210000000 1.0
C      1  0.5119790000000  0.4484640000000  0.4651390000000 1.0
C      1  0.5355850000000  0.4198370000000  0.5306210000000 1.0
C      1  0.4338280000000  0.4466260000000  0.5678030000000 1.0
C      1  0.5491270000000  0.4630620000000  0.4397780000000 1.0
C      1  0.4918230000000  0.4705310000000  0.5705490000000 1.0
END
