TITL C-883738-3659-215 15.278519893475 125000 -17667.6069218119 0 0 120 (C1) n - 1
REM
REM in /home/nfs/bkarasulu/CARBON/AIRSS/Generating-Clusters/ReaxFF-fromJPCA2015/Units_Real/with-SteepDescent/Only-C1/SD-CG/Try1-3A/FIRE-CG
REM
REM
REM
REM
REM
REM ./C.cell (11c1c37f851c82e70ff6c80c92926a4b)
REM
REM compiler GCC version 9.2.1 20190827 (Red Hat 9.2.1-1)
REM options -cpp -mtune=generic -march=x86-64 -g -O0 -fpre-include=/usr/include/finclude/math-vector-fortran.h
REM seed -2019515275 -136824150 1285574298 -1901701991 -570927199 268623963 -2047547021 2141628993 -815337035 1626907771 310716348 1313309836 1560865286 -2055661849 1237398342 -1680711989 -261953114 -1409074454 -1823647423 277712393 1809821037 1210018261 1629792138 476680854 149299875 1118248336 -1862480181 -1640888567 1405289216 -2139400602 1776708348 1509030821 1957275371
REM
CELL 1.54180   50.00000   50.00000   50.00000   90.00000   90.00000   90.00000
LATT -1
SFAC C  
C      1  0.5853630000000  0.5193340000000  0.4818060000000 1.0
C      1  0.4595390000000  0.4659160000000  0.5814850000000 1.0
C      1  0.5061520000000  0.4968920000000  0.5220170000000 1.0
C      1  0.4174100000000  0.5272240000000  0.5144490000000 1.0
C      1  0.4165660000000  0.4806880000000  0.5369550000000 1.0
C      1  0.4778680000000  0.5613140000000  0.5221260000000 1.0
C      1  0.4444150000000  0.4817470000000  0.4030680000000 1.0
C      1  0.5303370000000  0.4895530000000  0.5892030000000 1.0
C      1  0.4262120000000  0.4898830000000  0.4806520000000 1.0
C      1  0.4312610000000  0.5510520000000  0.5010480000000 1.0
C      1  0.5621260000000  0.4389710000000  0.4521690000000 1.0
C      1  0.5507490000000  0.5552300000000  0.4873500000000 1.0
C      1  0.4042210000000  0.5216250000000  0.4656660000000 1.0
C      1  0.4910440000000  0.4413630000000  0.4316020000000 1.0
C      1  0.4585660000000  0.4230010000000  0.4956900000000 1.0
C      1  0.5122620000000  0.4661740000000  0.5785510000000 1.0
C      1  0.5109410000000  0.4212180000000  0.4392130000000 1.0
C      1  0.5376090000000  0.5811530000000  0.5550120000000 1.0
C      1  0.5586110000000  0.4837010000000  0.5793980000000 1.0
C      1  0.4664010000000  0.4194090000000  0.4681110000000 1.0
C      1  0.5476410000000  0.4997500000000  0.4391950000000 1.0
C      1  0.4603180000000  0.5802210000000  0.5364590000000 1.0
C      1  0.4372400000000  0.4431860000000  0.5020830000000 1.0
C      1  0.4637730000000  0.4364650000000  0.4423490000000 1.0
C      1  0.3989100000000  0.4601000000000  0.4933620000000 1.0
C      1  0.4621000000000  0.5691490000000  0.5647910000000 1.0
C      1  0.5292680000000  0.4477920000000  0.4852220000000 1.0
C      1  0.5184110000000  0.5157590000000  0.5871970000000 1.0
C      1  0.4950880000000  0.5210970000000  0.4086690000000 1.0
C      1  0.5142570000000  0.4704530000000  0.5187870000000 1.0
C      1  0.5343500000000  0.4539050000000  0.5603550000000 1.0
C      1  0.5375690000000  0.4294680000000  0.4440720000000 1.0
C      1  0.5725080000000  0.4442870000000  0.5371310000000 1.0
C      1  0.4057050000000  0.4735080000000  0.5652520000000 1.0
C      1  0.4406840000000  0.5804830000000  0.5134150000000 1.0
C      1  0.5490980000000  0.4799800000000  0.4155760000000 1.0
C      1  0.5328730000000  0.5979930000000  0.5035600000000 1.0
C      1  0.5806230000000  0.4487630000000  0.5062640000000 1.0
C      1  0.3929850000000  0.4692610000000  0.4661880000000 1.0
C      1  0.5915350000000  0.4742080000000  0.4983980000000 1.0
C      1  0.5033140000000  0.4409310000000  0.5936030000000 1.0
C      1  0.5071970000000  0.5611510000000  0.5264750000000 1.0
C      1  0.4965320000000  0.5610420000000  0.4814310000000 1.0
C      1  0.4327560000000  0.4693220000000  0.5754180000000 1.0
C      1  0.4623600000000  0.4421340000000  0.5641420000000 1.0
C      1  0.5890590000000  0.5188920000000  0.5113820000000 1.0
C      1  0.4089650000000  0.5104610000000  0.4923770000000 1.0
C      1  0.5459000000000  0.4228680000000  0.4887450000000 1.0
C      1  0.5452860000000  0.5066190000000  0.5478120000000 1.0
C      1  0.4820760000000  0.4254800000000  0.5803670000000 1.0
C      1  0.4603260000000  0.5436010000000  0.5057620000000 1.0
C      1  0.5239120000000  0.4796740000000  0.4005370000000 1.0
C      1  0.4835500000000  0.5555320000000  0.4372250000000 1.0
C      1  0.5370380000000  0.4749300000000  0.4947600000000 1.0
C      1  0.4390000000000  0.5361000000000  0.4495910000000 1.0
C      1  0.4232280000000  0.5097220000000  0.5363970000000 1.0
C      1  0.4863140000000  0.4220520000000  0.5086140000000 1.0
C      1  0.5217910000000  0.5489080000000  0.4850980000000 1.0
C      1  0.4950750000000  0.4155470000000  0.4644800000000 1.0
C      1  0.4686720000000  0.5169130000000  0.4987130000000 1.0
C      1  0.5675420000000  0.5377850000000  0.4672850000000 1.0
C      1  0.5559720000000  0.4239770000000  0.5299960000000 1.0
C      1  0.5184420000000  0.5324820000000  0.4180670000000 1.0
C      1  0.4713010000000  0.5334380000000  0.4228500000000 1.0
C      1  0.4873840000000  0.4617200000000  0.5182120000000 1.0
C      1  0.4979940000000  0.4934830000000  0.3968340000000 1.0
C      1  0.4382250000000  0.4852680000000  0.4336070000000 1.0
C      1  0.5377290000000  0.4642180000000  0.5332760000000 1.0
C      1  0.5575340000000  0.4859640000000  0.5322210000000 1.0
C      1  0.5234910000000  0.5371820000000  0.5268980000000 1.0
C      1  0.5094690000000  0.4091790000000  0.5166560000000 1.0
C      1  0.5149830000000  0.5890630000000  0.4555360000000 1.0
C      1  0.4765900000000  0.5162190000000  0.4688440000000 1.0
C      1  0.4393030000000  0.5535770000000  0.5601250000000 1.0
C      1  0.4154690000000  0.4570660000000  0.5178490000000 1.0
C      1  0.5173620000000  0.5137590000000  0.5424640000000 1.0
C      1  0.5076750000000  0.5423150000000  0.5819660000000 1.0
C      1  0.5570980000000  0.5857230000000  0.4948400000000 1.0
C      1  0.5883480000000  0.4914130000000  0.4739740000000 1.0
C      1  0.4713340000000  0.4813070000000  0.3913520000000 1.0
C      1  0.5714390000000  0.4343530000000  0.4825370000000 1.0
C      1  0.5285920000000  0.5634720000000  0.5769720000000 1.0
C      1  0.5741450000000  0.4854340000000  0.4495060000000 1.0
C      1  0.4443050000000  0.4682300000000  0.4893860000000 1.0
C      1  0.4781800000000  0.5030370000000  0.5220220000000 1.0
C      1  0.4788000000000  0.5463910000000  0.5746180000000 1.0
C      1  0.4744040000000  0.4713350000000  0.4930670000000 1.0
C      1  0.5727280000000  0.5355350000000  0.5283980000000 1.0
C      1  0.5616980000000  0.5121250000000  0.5721680000000 1.0
C      1  0.5668660000000  0.4626100000000  0.4339040000000 1.0
C      1  0.5186060000000  0.4895990000000  0.4486270000000 1.0
C      1  0.5837840000000  0.4914250000000  0.5205560000000 1.0
C      1  0.4358460000000  0.5256520000000  0.5588290000000 1.0
C      1  0.5417090000000  0.5031700000000  0.4938260000000 1.0
C      1  0.4221690000000  0.5443200000000  0.4700910000000 1.0
C      1  0.5229490000000  0.5203800000000  0.4816540000000 1.0
C      1  0.4790790000000  0.5033560000000  0.5512920000000 1.0
C      1  0.4641730000000  0.5216810000000  0.5686020000000 1.0
C      1  0.5706490000000  0.5367830000000  0.5579360000000 1.0
C      1  0.4750760000000  0.4592070000000  0.5437190000000 1.0
C      1  0.5105960000000  0.5699150000000  0.4355780000000 1.0
C      1  0.5627420000000  0.4582590000000  0.5639000000000 1.0
C      1  0.5556570000000  0.5606860000000  0.5672560000000 1.0
C      1  0.5129320000000  0.6024980000000  0.4798660000000 1.0
C      1  0.4559840000000  0.5148920000000  0.4407540000000 1.0
C      1  0.5237530000000  0.5852340000000  0.5297920000000 1.0
C      1  0.5347230000000  0.5500920000000  0.4298630000000 1.0
C      1  0.4863530000000  0.4703670000000  0.4680210000000 1.0
C      1  0.4803990000000  0.5454230000000  0.4635360000000 1.0
C      1  0.5028250000000  0.4344720000000  0.4858290000000 1.0
C      1  0.5042470000000  0.5076070000000  0.4644780000000 1.0
C      1  0.5480320000000  0.5319990000000  0.5119550000000 1.0
C      1  0.4111900000000  0.4918210000000  0.4550240000000 1.0
C      1  0.4497770000000  0.4603130000000  0.4385840000000 1.0
C      1  0.4871840000000  0.5892740000000  0.4860040000000 1.0
C      1  0.5529550000000  0.5312400000000  0.4435480000000 1.0
C      1  0.4827920000000  0.4773880000000  0.5647100000000 1.0
C      1  0.5377730000000  0.4080330000000  0.5150260000000 1.0
C      1  0.4980270000000  0.4691280000000  0.4431640000000 1.0
C      1  0.4586750000000  0.5949730000000  0.4957280000000 1.0
END
