TITL C-883738-3659-142 16.7957781356038 125000 -17627.6263790816 0 0 120 (C1) n - 1
REM
REM in /home/nfs/bkarasulu/CARBON/AIRSS/Generating-Clusters/ReaxFF-fromJPCA2015/Units_Real/with-SteepDescent/Only-C1/SD-CG/Try1-3A/FIRE-CG
REM
REM
REM
REM
REM
REM ./C.cell (11c1c37f851c82e70ff6c80c92926a4b)
REM
REM compiler GCC version 9.2.1 20190827 (Red Hat 9.2.1-1)
REM options -cpp -mtune=generic -march=x86-64 -g -O0 -fpre-include=/usr/include/finclude/math-vector-fortran.h
REM seed 355690960 -1721243310 -1471854183 863102342 181689156 610518076 -1009616923 -412900376 -2052422204 -1606148881 -1105333146 957687914 1206395533 -85229482 1042818079 1937706822 1296676086 -372331223 1089794832 -1780229343 -1509159119 1378776542 -334458113 1812264695 1868262281 1993308176 -1752824431 1110656119 1745850418 1717933543 -137331828 -1104470147 -1300783151
REM
CELL 1.54180   50.00000   50.00000   50.00000   90.00000   90.00000   90.00000
LATT -1
SFAC C  
C      1  0.4822260000000  0.4666730000000  0.4331110000000 1.0
C      1  0.5518700000000  0.5254650000000  0.5684810000000 1.0
C      1  0.4345640000000  0.5149980000000  0.4983490000000 1.0
C      1  0.5271320000000  0.4723870000000  0.4343640000000 1.0
C      1  0.4974110000000  0.6033690000000  0.4850890000000 1.0
C      1  0.5250400000000  0.4733380000000  0.5684210000000 1.0
C      1  0.5117180000000  0.5523380000000  0.5071190000000 1.0
C      1  0.4704420000000  0.5016400000000  0.4073020000000 1.0
C      1  0.5431520000000  0.5501000000000  0.5538340000000 1.0
C      1  0.5099840000000  0.4950120000000  0.5796650000000 1.0
C      1  0.5667630000000  0.5491340000000  0.5375340000000 1.0
C      1  0.4876240000000  0.4346770000000  0.4651920000000 1.0
C      1  0.5588510000000  0.4356350000000  0.4519860000000 1.0
C      1  0.4876630000000  0.4893880000000  0.5202640000000 1.0
C      1  0.5221650000000  0.5270560000000  0.4678260000000 1.0
C      1  0.4287240000000  0.4671350000000  0.5482380000000 1.0
C      1  0.5742560000000  0.4991770000000  0.4085330000000 1.0
C      1  0.5305320000000  0.5332420000000  0.5273120000000 1.0
C      1  0.4620540000000  0.4587880000000  0.4960060000000 1.0
C      1  0.5021530000000  0.5276230000000  0.4222420000000 1.0
C      1  0.5472150000000  0.4318510000000  0.5295160000000 1.0
C      1  0.5601540000000  0.4559400000000  0.5345330000000 1.0
C      1  0.4329680000000  0.5668880000000  0.5371680000000 1.0
C      1  0.4315590000000  0.4460590000000  0.5292510000000 1.0
C      1  0.4583190000000  0.5228990000000  0.5447610000000 1.0
C      1  0.5838560000000  0.5061520000000  0.5374190000000 1.0
C      1  0.5137660000000  0.5882270000000  0.4630250000000 1.0
C      1  0.4774810000000  0.5670380000000  0.5589760000000 1.0
C      1  0.4850380000000  0.5463430000000  0.5154750000000 1.0
C      1  0.4598050000000  0.3996490000000  0.4917740000000 1.0
C      1  0.5559000000000  0.5019750000000  0.4896120000000 1.0
C      1  0.4341170000000  0.4568410000000  0.5004720000000 1.0
C      1  0.5641900000000  0.4744460000000  0.4170690000000 1.0
C      1  0.4497020000000  0.4237360000000  0.5373620000000 1.0
C      1  0.4584750000000  0.5784220000000  0.5385060000000 1.0
C      1  0.4482540000000  0.5641230000000  0.4878440000000 1.0
C      1  0.4790020000000  0.5424590000000  0.5434700000000 1.0
C      1  0.4603450000000  0.5074220000000  0.4827520000000 1.0
C      1  0.5077770000000  0.5432680000000  0.5868380000000 1.0
C      1  0.4370360000000  0.5189980000000  0.5649280000000 1.0
C      1  0.5846670000000  0.5174900000000  0.4564230000000 1.0
C      1  0.5829620000000  0.4584320000000  0.4896550000000 1.0
C      1  0.5755900000000  0.5423270000000  0.4704200000000 1.0
C      1  0.4615760000000  0.5008550000000  0.5259660000000 1.0
C      1  0.5119400000000  0.5008350000000  0.5089240000000 1.0
C      1  0.6015570000000  0.4987670000000  0.5006760000000 1.0
C      1  0.4708470000000  0.4808940000000  0.4806760000000 1.0
C      1  0.4553640000000  0.4535380000000  0.5741280000000 1.0
C      1  0.5048050000000  0.4215680000000  0.5512670000000 1.0
C      1  0.5481840000000  0.5497650000000  0.4601400000000 1.0
C      1  0.4609130000000  0.5549020000000  0.4256520000000 1.0
C      1  0.4114340000000  0.4977120000000  0.5048190000000 1.0
C      1  0.5467480000000  0.4825990000000  0.5492700000000 1.0
C      1  0.5941140000000  0.4828870000000  0.4768750000000 1.0
C      1  0.5026940000000  0.4113070000000  0.4558640000000 1.0
C      1  0.5991050000000  0.4844510000000  0.5255770000000 1.0
C      1  0.4857950000000  0.4069700000000  0.5036560000000 1.0
C      1  0.4996390000000  0.5182000000000  0.4496510000000 1.0
C      1  0.4488130000000  0.5274370000000  0.4382980000000 1.0
C      1  0.5455960000000  0.5858410000000  0.5065360000000 1.0
C      1  0.4650080000000  0.5663950000000  0.5122560000000 1.0
C      1  0.4501730000000  0.4346750000000  0.4480590000000 1.0
C      1  0.4269110000000  0.5483860000000  0.4760560000000 1.0
C      1  0.5555830000000  0.5455280000000  0.4300190000000 1.0
C      1  0.5144770000000  0.4490210000000  0.5036440000000 1.0
C      1  0.5288130000000  0.5913090000000  0.5310670000000 1.0
C      1  0.4857840000000  0.5267150000000  0.5909400000000 1.0
C      1  0.5682310000000  0.5655460000000  0.5149020000000 1.0
C      1  0.5597690000000  0.4472920000000  0.4784470000000 1.0
C      1  0.4780800000000  0.5015270000000  0.5866400000000 1.0
C      1  0.5802700000000  0.5449140000000  0.4987850000000 1.0
C      1  0.5765470000000  0.5144370000000  0.5082460000000 1.0
C      1  0.5746040000000  0.5236030000000  0.4290820000000 1.0
C      1  0.5204950000000  0.4744100000000  0.4638940000000 1.0
C      1  0.4914970000000  0.4665100000000  0.4599730000000 1.0
C      1  0.5266230000000  0.5771450000000  0.5555830000000 1.0
C      1  0.5333800000000  0.4562040000000  0.4833130000000 1.0
C      1  0.5040200000000  0.5691050000000  0.5708610000000 1.0
C      1  0.4870240000000  0.4377150000000  0.4963100000000 1.0
C      1  0.4991290000000  0.5638400000000  0.4578790000000 1.0
C      1  0.4188000000000  0.4772830000000  0.4854900000000 1.0
C      1  0.3994740000000  0.5023570000000  0.5326390000000 1.0
C      1  0.5215310000000  0.4447310000000  0.5587390000000 1.0
C      1  0.5034430000000  0.4774240000000  0.4170290000000 1.0
C      1  0.5163650000000  0.4580390000000  0.5313270000000 1.0
C      1  0.5441290000000  0.4136770000000  0.4614220000000 1.0
C      1  0.5308780000000  0.5060820000000  0.5299230000000 1.0
C      1  0.5713730000000  0.4960050000000  0.4676520000000 1.0
C      1  0.5840470000000  0.4602910000000  0.5184680000000 1.0
C      1  0.5256930000000  0.5199490000000  0.5814550000000 1.0
C      1  0.4890040000000  0.5541100000000  0.4298680000000 1.0
C      1  0.4194880000000  0.5386760000000  0.5020330000000 1.0
C      1  0.4460600000000  0.4102650000000  0.5136480000000 1.0
C      1  0.5162480000000  0.5826100000000  0.5082880000000 1.0
C      1  0.4506600000000  0.4119740000000  0.4644110000000 1.0
C      1  0.4351530000000  0.4820870000000  0.4362480000000 1.0
C      1  0.4538290000000  0.4589580000000  0.4335510000000 1.0
C      1  0.4976590000000  0.5043290000000  0.4041930000000 1.0
C      1  0.5240850000000  0.4001370000000  0.4760610000000 1.0
C      1  0.5419750000000  0.5796830000000  0.4725350000000 1.0
C      1  0.4487600000000  0.5826400000000  0.4723650000000 1.0
C      1  0.4721520000000  0.5180050000000  0.4587770000000 1.0
C      1  0.4672560000000  0.6030450000000  0.4751770000000 1.0
C      1  0.4494730000000  0.4973330000000  0.5797630000000 1.0
C      1  0.4758770000000  0.4251160000000  0.5545090000000 1.0
C      1  0.4450590000000  0.5027250000000  0.4181180000000 1.0
C      1  0.4787890000000  0.4537890000000  0.5606560000000 1.0
C      1  0.4926380000000  0.4706480000000  0.5397950000000 1.0
C      1  0.4379550000000  0.4716940000000  0.5739480000000 1.0
C      1  0.4273600000000  0.5237360000000  0.4584760000000 1.0
C      1  0.5241360000000  0.4140540000000  0.5295040000000 1.0
C      1  0.5275870000000  0.5024310000000  0.4841030000000 1.0
C      1  0.5139800000000  0.4007940000000  0.5043750000000 1.0
C      1  0.4141110000000  0.5477160000000  0.5301970000000 1.0
C      1  0.4243730000000  0.4942270000000  0.4606800000000 1.0
C      1  0.4414610000000  0.4858480000000  0.5368750000000 1.0
C      1  0.5498210000000  0.4543180000000  0.4296390000000 1.0
C      1  0.4121040000000  0.5231050000000  0.5490410000000 1.0
C      1  0.5048400000000  0.5460230000000  0.4801310000000 1.0
C      1  0.5643280000000  0.5031170000000  0.5568450000000 1.0
END
