TITL C-883734-4173-282 4.02947239440756 125000 -11770.1841813655 0 0 79 (C1) n - 1
REM
REM in /home/nfs/bkarasulu/CARBON/AIRSS/Generating-Clusters/ReaxFF-fromJPCA2015/Units_Real/with-SteepDescent/Only-C1/SD-CG/Try1-3A/FIRE-CG
REM
REM
REM
REM
REM
REM ./C.cell (11c1c37f851c82e70ff6c80c92926a4b)
REM
REM compiler GCC version 9.2.1 20190827 (Red Hat 9.2.1-1)
REM options -cpp -mtune=generic -march=x86-64 -g -O0 -fpre-include=/usr/include/finclude/math-vector-fortran.h
REM seed -1300087628 -303813540 -680793764 -656177034 1838723367 -1284545431 924364809 -2129122381 -1173169891 1263708722 26345944 -1284848675 -47353520 -1283149552 1588597081 -1377503246 952499556 -77805834 -17385648 504731244 -150314884 965195562 -2007672051 -808406173 -649575762 696781375 -1992447683 -1795491223 1225552907 -1551756149 -977268915 2054897332 1499711471
REM
CELL 1.54180   50.00000   50.00000   50.00000   90.00000   90.00000   90.00000
LATT -1
SFAC C  
C      1  0.4805110000000  0.4440550000000  0.4709920000000 1.0
C      1  0.5350810000000  0.4403760000000  0.4500840000000 1.0
C      1  0.5029560000000  0.4866230000000  0.5672000000000 1.0
C      1  0.4741130000000  0.4459950000000  0.5497890000000 1.0
C      1  0.4792110000000  0.4485820000000  0.5005340000000 1.0
C      1  0.4888760000000  0.5933680000000  0.4751300000000 1.0
C      1  0.5207690000000  0.5749900000000  0.5013010000000 1.0
C      1  0.4426640000000  0.4251050000000  0.4982830000000 1.0
C      1  0.6048570000000  0.4412510000000  0.4820930000000 1.0
C      1  0.4808160000000  0.5698410000000  0.5433070000000 1.0
C      1  0.5029310000000  0.5319840000000  0.4369060000000 1.0
C      1  0.4471740000000  0.5334190000000  0.4726050000000 1.0
C      1  0.5902140000000  0.4555790000000  0.4985610000000 1.0
C      1  0.5525080000000  0.5331180000000  0.4539620000000 1.0
C      1  0.4641220000000  0.5776990000000  0.4772490000000 1.0
C      1  0.4402380000000  0.4788100000000  0.5251970000000 1.0
C      1  0.5416640000000  0.5414010000000  0.5364480000000 1.0
C      1  0.5073370000000  0.4345530000000  0.4622190000000 1.0
C      1  0.4541270000000  0.4123890000000  0.5162120000000 1.0
C      1  0.5473840000000  0.4286640000000  0.4749640000000 1.0
C      1  0.4294910000000  0.5044940000000  0.5612860000000 1.0
C      1  0.4871560000000  0.5113170000000  0.4260980000000 1.0
C      1  0.5248280000000  0.5247040000000  0.4574540000000 1.0
C      1  0.5224250000000  0.5139340000000  0.4850280000000 1.0
C      1  0.5523630000000  0.4846110000000  0.5422220000000 1.0
C      1  0.4510260000000  0.4791290000000  0.4445470000000 1.0
C      1  0.5678490000000  0.4985500000000  0.5213820000000 1.0
C      1  0.4885690000000  0.4739530000000  0.5112200000000 1.0
C      1  0.4752600000000  0.4861730000000  0.4290670000000 1.0
C      1  0.4236570000000  0.4951550000000  0.4866670000000 1.0
C      1  0.5039130000000  0.5259570000000  0.5069780000000 1.0
C      1  0.4463470000000  0.5028410000000  0.4660660000000 1.0
C      1  0.5670060000000  0.4345090000000  0.4969730000000 1.0
C      1  0.5314290000000  0.5730760000000  0.4723390000000 1.0
C      1  0.5631330000000  0.5514690000000  0.5019600000000 1.0
C      1  0.4991400000000  0.5965430000000  0.5023550000000 1.0
C      1  0.5720120000000  0.5111110000000  0.4508640000000 1.0
C      1  0.4992070000000  0.4575060000000  0.5642530000000 1.0
C      1  0.5267060000000  0.4537270000000  0.5579560000000 1.0
C      1  0.4620930000000  0.5544100000000  0.4594140000000 1.0
C      1  0.4550890000000  0.5045740000000  0.5763260000000 1.0
C      1  0.5202770000000  0.4821480000000  0.4571890000000 1.0
C      1  0.5673400000000  0.4825850000000  0.4470100000000 1.0
C      1  0.5496760000000  0.4443650000000  0.5176680000000 1.0
C      1  0.5121820000000  0.4738990000000  0.5247030000000 1.0
C      1  0.5540860000000  0.5554840000000  0.4733210000000 1.0
C      1  0.5292060000000  0.4863910000000  0.4842270000000 1.0
C      1  0.4909000000000  0.4832860000000  0.4552610000000 1.0
C      1  0.5229880000000  0.4937750000000  0.5441520000000 1.0
C      1  0.5065990000000  0.5771380000000  0.4575870000000 1.0
C      1  0.4686450000000  0.5452030000000  0.5467460000000 1.0
C      1  0.4806360000000  0.5002120000000  0.5018420000000 1.0
C      1  0.4598980000000  0.5016540000000  0.5211260000000 1.0
C      1  0.5820610000000  0.4859710000000  0.4991810000000 1.0
C      1  0.4737400000000  0.4959980000000  0.4744830000000 1.0
C      1  0.4551840000000  0.4540190000000  0.4588240000000 1.0
C      1  0.5419700000000  0.4680740000000  0.4431470000000 1.0
C      1  0.4539960000000  0.5298090000000  0.5244590000000 1.0
C      1  0.4380990000000  0.5372330000000  0.5003750000000 1.0
C      1  0.4185550000000  0.5150010000000  0.5075260000000 1.0
C      1  0.4959980000000  0.5536520000000  0.5022830000000 1.0
C      1  0.5629030000000  0.5279520000000  0.5208240000000 1.0
C      1  0.5212750000000  0.4321530000000  0.4876800000000 1.0
C      1  0.4750250000000  0.4301030000000  0.5241140000000 1.0
C      1  0.4207490000000  0.5006740000000  0.5338000000000 1.0
C      1  0.5156400000000  0.5257710000000  0.5378930000000 1.0
C      1  0.4357930000000  0.4471050000000  0.4808000000000 1.0
C      1  0.5524020000000  0.4554630000000  0.5454790000000 1.0
C      1  0.4502480000000  0.4610900000000  0.5504120000000 1.0
C      1  0.4272890000000  0.4693200000000  0.4974500000000 1.0
C      1  0.4839940000000  0.5082830000000  0.5702020000000 1.0
C      1  0.5274470000000  0.4603590000000  0.5039110000000 1.0
C      1  0.5444360000000  0.5651780000000  0.5195960000000 1.0
C      1  0.5825960000000  0.4924980000000  0.4710770000000 1.0
C      1  0.4933260000000  0.5330490000000  0.5573040000000 1.0
C      1  0.4687460000000  0.5655330000000  0.5040500000000 1.0
C      1  0.4892130000000  0.5561090000000  0.4468400000000 1.0
C      1  0.4417950000000  0.4791840000000  0.5714880000000 1.0
C      1  0.4788360000000  0.5887310000000  0.5224780000000 1.0
END
