TITL C-883739-1268-318 44.866761963714 125000 -12895.0410719285 0 0 88 (C1) n - 1
REM
REM in /home/nfs/bkarasulu/CARBON/AIRSS/Generating-Clusters/ReaxFF-fromJPCA2015/Units_Real/with-SteepDescent/Only-C1/SD-CG/Try1-3A/FIRE-CG
REM
REM
REM
REM
REM
REM ./C.cell (11c1c37f851c82e70ff6c80c92926a4b)
REM
REM compiler GCC version 9.2.1 20190827 (Red Hat 9.2.1-1)
REM options -cpp -mtune=generic -march=x86-64 -g -O0 -fpre-include=/usr/include/finclude/math-vector-fortran.h
REM seed 1396325883 771574114 943078283 -422703762 -883751855 304954086 1329862976 -1735407567 -1145672966 427980092 -1927942784 -1445801443 -1715668291 -2062219288 1238391066 -951460935 -1855835471 -1635955544 -489043079 -1592040763 -1553056409 -1012295781 233540453 281205652 -1142233457 -1856126175 990374856 -1511298762 311567050 -1954541343 -731952668 -1461409924 2033569510
REM
CELL 1.54180   50.00000   50.00000   50.00000   90.00000   90.00000   90.00000
LATT -1
SFAC C  
C      1  0.5036890000000  0.5242120000000  0.5698840000000 1.0
C      1  0.4867310000000  0.4610450000000  0.5064200000000 1.0
C      1  0.4708950000000  0.4784360000000  0.4872990000000 1.0
C      1  0.5272100000000  0.5750930000000  0.4889140000000 1.0
C      1  0.4543140000000  0.5625720000000  0.4959220000000 1.0
C      1  0.5215800000000  0.5442380000000  0.5228240000000 1.0
C      1  0.5970210000000  0.4783460000000  0.4998750000000 1.0
C      1  0.5428240000000  0.4576680000000  0.4846850000000 1.0
C      1  0.5256900000000  0.4733300000000  0.4209110000000 1.0
C      1  0.4698410000000  0.5716840000000  0.4351360000000 1.0
C      1  0.4783320000000  0.5372000000000  0.5613280000000 1.0
C      1  0.4936860000000  0.5589220000000  0.4290400000000 1.0
C      1  0.5544640000000  0.4312200000000  0.5456770000000 1.0
C      1  0.4102840000000  0.4829830000000  0.5198190000000 1.0
C      1  0.5993680000000  0.5071070000000  0.4975050000000 1.0
C      1  0.4426020000000  0.4642630000000  0.4721360000000 1.0
C      1  0.5364890000000  0.4554630000000  0.4399850000000 1.0
C      1  0.5540640000000  0.5328130000000  0.5622250000000 1.0
C      1  0.4292100000000  0.4817410000000  0.5332970000000 1.0
C      1  0.5226710000000  0.4911210000000  0.5194810000000 1.0
C      1  0.4497960000000  0.4570150000000  0.4435870000000 1.0
C      1  0.4416620000000  0.4360600000000  0.5165480000000 1.0
C      1  0.4763910000000  0.5570900000000  0.5398230000000 1.0
C      1  0.4687710000000  0.4270570000000  0.5236310000000 1.0
C      1  0.5421110000000  0.5605270000000  0.5095000000000 1.0
C      1  0.5011480000000  0.5757860000000  0.4996590000000 1.0
C      1  0.5262660000000  0.5168760000000  0.5883890000000 1.0
C      1  0.5408800000000  0.5423170000000  0.4303340000000 1.0
C      1  0.4622990000000  0.5057660000000  0.5011590000000 1.0
C      1  0.5513380000000  0.5155600000000  0.5782460000000 1.0
C      1  0.5210970000000  0.5637350000000  0.4358010000000 1.0
C      1  0.4131520000000  0.5088320000000  0.4745910000000 1.0
C      1  0.5222150000000  0.4859180000000  0.5952240000000 1.0
C      1  0.4250460000000  0.4864490000000  0.4600820000000 1.0
C      1  0.5028120000000  0.5172300000000  0.4838080000000 1.0
C      1  0.5621770000000  0.5240300000000  0.4684510000000 1.0
C      1  0.5716640000000  0.4897710000000  0.5417770000000 1.0
C      1  0.4544800000000  0.5021900000000  0.5282320000000 1.0
C      1  0.5345810000000  0.5697800000000  0.4612540000000 1.0
C      1  0.4948890000000  0.4573590000000  0.5517770000000 1.0
C      1  0.4811360000000  0.5637090000000  0.4847380000000 1.0
C      1  0.4941590000000  0.4982450000000  0.5645680000000 1.0
C      1  0.4765280000000  0.4400650000000  0.4177880000000 1.0
C      1  0.4800550000000  0.4531760000000  0.4415450000000 1.0
C      1  0.4868200000000  0.5073960000000  0.4271320000000 1.0
C      1  0.4243220000000  0.5338940000000  0.4727860000000 1.0
C      1  0.5528080000000  0.4915360000000  0.5636740000000 1.0
C      1  0.4561910000000  0.5181930000000  0.5559010000000 1.0
C      1  0.4968210000000  0.4310810000000  0.4714880000000 1.0
C      1  0.4867490000000  0.5353980000000  0.4420660000000 1.0
C      1  0.5523710000000  0.4712680000000  0.4586410000000 1.0
C      1  0.5710730000000  0.5405690000000  0.5408440000000 1.0
C      1  0.4565370000000  0.4634940000000  0.5592400000000 1.0
C      1  0.5390440000000  0.5126010000000  0.4304150000000 1.0
C      1  0.4349110000000  0.4572150000000  0.5402910000000 1.0
C      1  0.4356970000000  0.5580360000000  0.4734490000000 1.0
C      1  0.5692330000000  0.5502700000000  0.5116370000000 1.0
C      1  0.5145800000000  0.5183830000000  0.5102660000000 1.0
C      1  0.4665620000000  0.4908790000000  0.5671500000000 1.0
C      1  0.5776530000000  0.5150080000000  0.5316670000000 1.0
C      1  0.5174570000000  0.4994660000000  0.4151020000000 1.0
C      1  0.4718560000000  0.4411700000000  0.5496060000000 1.0
C      1  0.5164290000000  0.4535660000000  0.5696050000000 1.0
C      1  0.5779890000000  0.5296640000000  0.4924200000000 1.0
C      1  0.5211660000000  0.4280890000000  0.5213070000000 1.0
C      1  0.4578260000000  0.5003410000000  0.4191750000000 1.0
C      1  0.4515770000000  0.5562110000000  0.5244500000000 1.0
C      1  0.5678780000000  0.4390720000000  0.5225140000000 1.0
C      1  0.4142020000000  0.5233460000000  0.5220140000000 1.0
C      1  0.5006940000000  0.5644170000000  0.5257160000000 1.0
C      1  0.4939460000000  0.4914020000000  0.4720070000000 1.0
C      1  0.4453760000000  0.5742590000000  0.4469240000000 1.0
C      1  0.4391690000000  0.4836130000000  0.4333880000000 1.0
C      1  0.4025050000000  0.5049790000000  0.5041670000000 1.0
C      1  0.5552670000000  0.5492040000000  0.4547790000000 1.0
C      1  0.5270440000000  0.4318150000000  0.5503860000000 1.0
C      1  0.4319420000000  0.4408140000000  0.4902970000000 1.0
C      1  0.4930140000000  0.4315590000000  0.5057390000000 1.0
C      1  0.5241390000000  0.4806090000000  0.5655030000000 1.0
C      1  0.4898980000000  0.5393360000000  0.4701660000000 1.0
C      1  0.5451150000000  0.4322120000000  0.5059750000000 1.0
C      1  0.5445190000000  0.4791340000000  0.5047830000000 1.0
C      1  0.5006870000000  0.4730390000000  0.5284810000000 1.0
C      1  0.5716870000000  0.4702870000000  0.5170600000000 1.0
C      1  0.4941770000000  0.4831470000000  0.4448650000000 1.0
C      1  0.5530940000000  0.5002550000000  0.4534800000000 1.0
C      1  0.5210740000000  0.4428940000000  0.4635540000000 1.0
C      1  0.4332890000000  0.5368790000000  0.5370160000000 1.0
END
