TITL C-883741-3679-7 -270539.371182653 125000 -4590.83739983518 0 0 32 (C1) n - 1
REM
REM in /home/nfs/bkarasulu/CARBON/AIRSS/Generating-Clusters/ReaxFF-fromJPCA2015/Units_Real/with-SteepDescent/Only-C1/SD-CG/Try1-3A/FIRE-CG
REM
REM
REM
REM
REM
REM ./C.cell (11c1c37f851c82e70ff6c80c92926a4b)
REM
REM compiler GCC version 9.2.1 20190827 (Red Hat 9.2.1-1)
REM options -cpp -mtune=generic -march=x86-64 -g -O0 -fpre-include=/usr/include/finclude/math-vector-fortran.h
REM seed -1231782235 313287386 447298874 -2087555080 -1270814117 1634938879 2107569391 682482623 -1480319803 -1240679500 2108647275 669262884 311044509 1190619547 -266797692 -692959393 -1807741950 747431144 -13120627 -480197671 -101310867 341427821 -41485048 403769548 103496994 -58360349 -1220025151 1014729828 -1170887744 -2113014989 -1758684141 138992403 -345045297
REM
CELL 1.54180   50.00000   50.00000   50.00000   90.00000   90.00000   90.00000
LATT -1
SFAC C  
C      1  0.4786180000000  0.5267570000000  0.4606690000000 1.0
C      1  0.4783640000000  0.5265670000000  0.5545690000000 1.0
C      1  0.5145580000000  0.5536830000000  0.4856230000000 1.0
C      1  0.5310230000000  0.5168250000000  0.4406800000000 1.0
C      1  0.5467390000000  0.4775420000000  0.4998920000000 1.0
C      1  0.5033310000000  0.4588050000000  0.4795160000000 1.0
C      1  0.5378090000000  0.4805050000000  0.5275390000000 1.0
C      1  0.5353210000000  0.4568010000000  0.4792120000000 1.0
C      1  0.4493770000000  0.5072220000000  0.4838720000000 1.0
C      1  0.4511100000000  0.5463320000000  0.5291640000000 1.0
C      1  0.4716170000000  0.4989510000000  0.4662020000000 1.0
C      1  0.4918300000000  0.5074090000000  0.5388350000000 1.0
C      1  0.5393520000000  0.4912930000000  0.4421480000000 1.0
C      1  0.4905100000000  0.4602320000000  0.5259400000000 1.0
C      1  0.5236340000000  0.4362510000000  0.5226790000000 1.0
C      1  0.4610760000000  0.5483110000000  0.5601150000000 1.0
C      1  0.4516850000000  0.4955520000000  0.5111980000000 1.0
C      1  0.4441000000000  0.5198870000000  0.5230000000000 1.0
C      1  0.5116700000000  0.5263050000000  0.5292180000000 1.0
C      1  0.5411350000000  0.5057080000000  0.4942080000000 1.0
C      1  0.4889090000000  0.4423110000000  0.5001730000000 1.0
C      1  0.5161450000000  0.5071800000000  0.4786330000000 1.0
C      1  0.4695310000000  0.5490630000000  0.5062380000000 1.0
C      1  0.5352950000000  0.5101450000000  0.5233470000000 1.0
C      1  0.4805980000000  0.4875020000000  0.5178840000000 1.0
C      1  0.5307250000000  0.4339210000000  0.4963540000000 1.0
C      1  0.5089940000000  0.5317840000000  0.4630410000000 1.0
C      1  0.4600290000000  0.5357700000000  0.4815580000000 1.0
C      1  0.5000260000000  0.5475450000000  0.5094790000000 1.0
C      1  0.4936090000000  0.4878900000000  0.4843810000000 1.0
C      1  0.5455400000000  0.4659440000000  0.4476820000000 1.0
C      1  0.5177440000000  0.4600070000000  0.5369540000000 1.0
END
