TITL C-883726-8501-235 37.3777419274793 125000 -20847.3570950955 0 0 140 (C1) n - 1
REM
REM in /home/nfs/bkarasulu/CARBON/AIRSS/Generating-Clusters/ReaxFF-fromJPCA2015/Units_Real/with-SteepDescent/Only-C1/SD-CG/Try1-3A/FIRE-CG
REM
REM
REM
REM
REM
REM ./C.cell (11c1c37f851c82e70ff6c80c92926a4b)
REM
REM compiler GCC version 9.2.1 20190827 (Red Hat 9.2.1-1)
REM options -cpp -mtune=generic -march=x86-64 -g -O0 -fpre-include=/usr/include/finclude/math-vector-fortran.h
REM seed -864633754 -1280402015 216151202 -408927316 -1036770754 -1092658678 227212510 -569568803 2015473002 1357466067 1549961783 470850851 -648091534 -1900442612 -813416474 -541104076 1383493457 201493851 1352855315 -1061412310 617230622 -1339984098 -2031929825 566820750 -37697985 -731738014 -1470011440 -1403138920 -783711805 1873515400 1619379012 -1919453257 -2047637644
REM
CELL 1.54180   50.00000   50.00000   50.00000   90.00000   90.00000   90.00000
LATT -1
SFAC C  
C      1  0.5486560000000  0.4600380000000  0.4233520000000 1.0
C      1  0.5977770000000  0.4988440000000  0.5508270000000 1.0
C      1  0.4908340000000  0.4806140000000  0.4852440000000 1.0
C      1  0.3989030000000  0.4619330000000  0.4772570000000 1.0
C      1  0.4677520000000  0.4656700000000  0.4746320000000 1.0
C      1  0.4081810000000  0.4916220000000  0.5343640000000 1.0
C      1  0.5183700000000  0.5640110000000  0.4264710000000 1.0
C      1  0.4134010000000  0.5441460000000  0.5235360000000 1.0
C      1  0.5548350000000  0.4979120000000  0.4920830000000 1.0
C      1  0.5375470000000  0.5397250000000  0.4254770000000 1.0
C      1  0.4108930000000  0.5225240000000  0.4541650000000 1.0
C      1  0.4854260000000  0.4800420000000  0.5119600000000 1.0
C      1  0.4610390000000  0.4817990000000  0.5221960000000 1.0
C      1  0.5609530000000  0.5523630000000  0.4994820000000 1.0
C      1  0.4795900000000  0.5292880000000  0.5331600000000 1.0
C      1  0.4445750000000  0.4719890000000  0.4231380000000 1.0
C      1  0.4924850000000  0.4603640000000  0.5922380000000 1.0
C      1  0.4464190000000  0.5042610000000  0.5118240000000 1.0
C      1  0.5339190000000  0.5735890000000  0.5643310000000 1.0
C      1  0.5046630000000  0.5044920000000  0.4752000000000 1.0
C      1  0.4355760000000  0.5544620000000  0.5671890000000 1.0
C      1  0.5253380000000  0.4160480000000  0.5423190000000 1.0
C      1  0.4830990000000  0.5846480000000  0.5547080000000 1.0
C      1  0.5481670000000  0.5287190000000  0.5475310000000 1.0
C      1  0.4715720000000  0.4249950000000  0.5596140000000 1.0
C      1  0.5382060000000  0.4538660000000  0.5788730000000 1.0
C      1  0.5365670000000  0.4800070000000  0.5432830000000 1.0
C      1  0.5006290000000  0.5461700000000  0.5752000000000 1.0
C      1  0.4653670000000  0.5231490000000  0.4198510000000 1.0
C      1  0.4276890000000  0.4454520000000  0.5153170000000 1.0
C      1  0.5114250000000  0.5501080000000  0.5172450000000 1.0
C      1  0.5428060000000  0.4884220000000  0.4128980000000 1.0
C      1  0.5794770000000  0.4311870000000  0.4855250000000 1.0
C      1  0.5117870000000  0.4102200000000  0.4755250000000 1.0
C      1  0.5418480000000  0.5826940000000  0.5377290000000 1.0
C      1  0.5897930000000  0.4684910000000  0.4539370000000 1.0
C      1  0.5667470000000  0.5704900000000  0.5385250000000 1.0
C      1  0.5162870000000  0.5804450000000  0.4834300000000 1.0
C      1  0.5531770000000  0.4560580000000  0.5390450000000 1.0
C      1  0.4704810000000  0.5299770000000  0.4740270000000 1.0
C      1  0.4157610000000  0.4798390000000  0.4628900000000 1.0
C      1  0.5804450000000  0.5478650000000  0.4499200000000 1.0
C      1  0.5706870000000  0.4510300000000  0.4416260000000 1.0
C      1  0.4164600000000  0.5018510000000  0.4373770000000 1.0
C      1  0.5242470000000  0.5289190000000  0.5862280000000 1.0
C      1  0.3949790000000  0.4874790000000  0.4841170000000 1.0
C      1  0.5644720000000  0.4551950000000  0.5144400000000 1.0
C      1  0.5102250000000  0.4633550000000  0.4406810000000 1.0
C      1  0.4311660000000  0.5597760000000  0.4676960000000 1.0
C      1  0.4120200000000  0.5405610000000  0.5525280000000 1.0
C      1  0.4955090000000  0.4805770000000  0.4274850000000 1.0
C      1  0.5279270000000  0.4434070000000  0.4357120000000 1.0
C      1  0.5659720000000  0.4279940000000  0.5120490000000 1.0
C      1  0.3986010000000  0.5028600000000  0.5082160000000 1.0
C      1  0.4926240000000  0.4982440000000  0.4489290000000 1.0
C      1  0.5981790000000  0.5213510000000  0.4506460000000 1.0
C      1  0.4200380000000  0.4649810000000  0.5371480000000 1.0
C      1  0.5354330000000  0.5051480000000  0.4677090000000 1.0
C      1  0.4692460000000  0.4774110000000  0.5973060000000 1.0
C      1  0.4995870000000  0.5594060000000  0.4702510000000 1.0
C      1  0.5754630000000  0.4868700000000  0.5665210000000 1.0
C      1  0.4667140000000  0.4622090000000  0.4061940000000 1.0
C      1  0.5428970000000  0.5449300000000  0.5702060000000 1.0
C      1  0.4414400000000  0.5843160000000  0.4626010000000 1.0
C      1  0.5183130000000  0.5067550000000  0.4071140000000 1.0
C      1  0.5221930000000  0.4322950000000  0.5668940000000 1.0
C      1  0.4423700000000  0.4799270000000  0.5851350000000 1.0
C      1  0.4312370000000  0.5068580000000  0.5787740000000 1.0
C      1  0.5390460000000  0.5362750000000  0.5182890000000 1.0
C      1  0.5408640000000  0.5808580000000  0.4363310000000 1.0
C      1  0.6010660000000  0.4931540000000  0.5205250000000 1.0
C      1  0.5901700000000  0.5524670000000  0.5362570000000 1.0
C      1  0.4703220000000  0.4197280000000  0.5309690000000 1.0
C      1  0.4414100000000  0.5006350000000  0.4232600000000 1.0
C      1  0.4074830000000  0.5416790000000  0.4732800000000 1.0
C      1  0.4944110000000  0.4359010000000  0.5761760000000 1.0
C      1  0.5647040000000  0.4298880000000  0.4611600000000 1.0
C      1  0.5337690000000  0.4297960000000  0.4639620000000 1.0
C      1  0.4166880000000  0.4440660000000  0.4883870000000 1.0
C      1  0.4128970000000  0.5111960000000  0.5562780000000 1.0
C      1  0.4953640000000  0.5059540000000  0.5392990000000 1.0
C      1  0.4361480000000  0.4379770000000  0.4671030000000 1.0
C      1  0.4438050000000  0.5651760000000  0.4414250000000 1.0
C      1  0.5862730000000  0.5114060000000  0.5007560000000 1.0
C      1  0.5310830000000  0.5856190000000  0.4624800000000 1.0
C      1  0.4924940000000  0.5616720000000  0.4399250000000 1.0
C      1  0.4900190000000  0.5109570000000  0.4018610000000 1.0
C      1  0.4743980000000  0.5179590000000  0.4475850000000 1.0
C      1  0.4792370000000  0.4174860000000  0.4376610000000 1.0
C      1  0.4852290000000  0.4172960000000  0.4659030000000 1.0
C      1  0.5016060000000  0.4163450000000  0.5229060000000 1.0
C      1  0.5513640000000  0.4688530000000  0.4936460000000 1.0
C      1  0.5427280000000  0.4108930000000  0.5194450000000 1.0
C      1  0.5698750000000  0.4979390000000  0.4180780000000 1.0
C      1  0.4564450000000  0.5731650000000  0.5597230000000 1.0
C      1  0.5294570000000  0.4516600000000  0.4855740000000 1.0
C      1  0.5365480000000  0.5218650000000  0.4473020000000 1.0
C      1  0.5057120000000  0.5755480000000  0.5722820000000 1.0
C      1  0.6059450000000  0.4690260000000  0.5049840000000 1.0
C      1  0.4749430000000  0.5330510000000  0.5920510000000 1.0
C      1  0.5194640000000  0.4729470000000  0.5913890000000 1.0
C      1  0.4619860000000  0.4769410000000  0.5496540000000 1.0
C      1  0.4520470000000  0.4247780000000  0.4277600000000 1.0
C      1  0.5672310000000  0.5530900000000  0.4727510000000 1.0
C      1  0.5355140000000  0.5103490000000  0.5079750000000 1.0
C      1  0.4963330000000  0.5357150000000  0.4872080000000 1.0
C      1  0.5958410000000  0.5264830000000  0.5468370000000 1.0
C      1  0.4449120000000  0.5321520000000  0.5832410000000 1.0
C      1  0.5644800000000  0.4597310000000  0.5666470000000 1.0
C      1  0.4627010000000  0.4345970000000  0.4813760000000 1.0
C      1  0.4858640000000  0.5017270000000  0.5897940000000 1.0
C      1  0.4905480000000  0.4554040000000  0.5168130000000 1.0
C      1  0.5185060000000  0.4946520000000  0.5255710000000 1.0
C      1  0.4916060000000  0.5927420000000  0.5272890000000 1.0
C      1  0.4668240000000  0.5534500000000  0.4286500000000 1.0
C      1  0.5168420000000  0.5020440000000  0.5932850000000 1.0
C      1  0.6064950000000  0.5126340000000  0.4766380000000 1.0
C      1  0.4603870000000  0.5850300000000  0.4830000000000 1.0
C      1  0.4687170000000  0.5956610000000  0.5098420000000 1.0
C      1  0.5863950000000  0.5415070000000  0.5085460000000 1.0
C      1  0.4827450000000  0.4920610000000  0.5607570000000 1.0
C      1  0.4552240000000  0.5701430000000  0.5078620000000 1.0
C      1  0.4364570000000  0.4467020000000  0.4390930000000 1.0
C      1  0.5901950000000  0.4947110000000  0.4403600000000 1.0
C      1  0.5195910000000  0.4023910000000  0.5025650000000 1.0
C      1  0.4862990000000  0.4823970000000  0.3978620000000 1.0
C      1  0.4007080000000  0.5310600000000  0.5011320000000 1.0
C      1  0.5168440000000  0.5807060000000  0.5163250000000 1.0
C      1  0.4512330000000  0.5095950000000  0.4836280000000 1.0
C      1  0.4618510000000  0.5420710000000  0.5139000000000 1.0
C      1  0.5606160000000  0.5585050000000  0.4311860000000 1.0
C      1  0.5960510000000  0.4552880000000  0.4802570000000 1.0
C      1  0.5100320000000  0.4443020000000  0.5057280000000 1.0
C      1  0.4988280000000  0.5469380000000  0.5433340000000 1.0
C      1  0.4380400000000  0.4646960000000  0.5604580000000 1.0
C      1  0.5520830000000  0.5009830000000  0.5560540000000 1.0
C      1  0.4460560000000  0.4831780000000  0.4720820000000 1.0
C      1  0.4392960000000  0.5290490000000  0.5245820000000 1.0
C      1  0.4524500000000  0.4307660000000  0.5113140000000 1.0
C      1  0.4747420000000  0.4350940000000  0.4132940000000 1.0
END
