TITL C-883739-1268-345 8.71079656034041 125000 -22632.8536848836 0 0 150 (C1) n - 1
REM
REM in /home/nfs/bkarasulu/CARBON/AIRSS/Generating-Clusters/ReaxFF-fromJPCA2015/Units_Real/with-SteepDescent/Only-C1/SD-CG/Try1-3A/FIRE-CG
REM
REM
REM
REM
REM
REM ./C.cell (11c1c37f851c82e70ff6c80c92926a4b)
REM
REM compiler GCC version 9.2.1 20190827 (Red Hat 9.2.1-1)
REM options -cpp -mtune=generic -march=x86-64 -g -O0 -fpre-include=/usr/include/finclude/math-vector-fortran.h
REM seed -1267538786 1769657333 1083481171 -590432272 -414998988 453591110 1360491566 -627183073 -1978741686 -363789581 1916431019 1929000032 -1760103967 1015793349 -1290395330 147563179 -1395429298 573028728 121935234 -761783714 1821241998 -293989146 -320578197 663224491 801139606 -871741426 -2063787629 2017064469 97981262 -200811705 1625197461 342607432 1019858016
REM
CELL 1.54180   50.00000   50.00000   50.00000   90.00000   90.00000   90.00000
LATT -1
SFAC C  
C      1  0.4676810000000  0.4395080000000  0.5838040000000 1.0
C      1  0.4231800000000  0.5181440000000  0.4992230000000 1.0
C      1  0.4810840000000  0.4905530000000  0.4320190000000 1.0
C      1  0.5393520000000  0.5046550000000  0.5396880000000 1.0
C      1  0.4538080000000  0.5673640000000  0.4215640000000 1.0
C      1  0.4828620000000  0.4482890000000  0.5161310000000 1.0
C      1  0.4144510000000  0.4606960000000  0.5211200000000 1.0
C      1  0.5597470000000  0.5537300000000  0.5189240000000 1.0
C      1  0.5253090000000  0.5178620000000  0.5925490000000 1.0
C      1  0.4015600000000  0.4891290000000  0.4807370000000 1.0
C      1  0.5963750000000  0.5276970000000  0.4926710000000 1.0
C      1  0.4108620000000  0.5094810000000  0.4576790000000 1.0
C      1  0.4897440000000  0.5792080000000  0.5606950000000 1.0
C      1  0.3996110000000  0.5029820000000  0.5062100000000 1.0
C      1  0.4573740000000  0.4874280000000  0.3988280000000 1.0
C      1  0.5145590000000  0.5033020000000  0.3910440000000 1.0
C      1  0.5143660000000  0.4877040000000  0.5951640000000 1.0
C      1  0.4739550000000  0.5410740000000  0.4464550000000 1.0
C      1  0.4619750000000  0.4512210000000  0.4953040000000 1.0
C      1  0.5377540000000  0.4904300000000  0.3993660000000 1.0
C      1  0.5665110000000  0.4440580000000  0.4457170000000 1.0
C      1  0.5565670000000  0.5480700000000  0.5677000000000 1.0
C      1  0.5410040000000  0.5040510000000  0.4628980000000 1.0
C      1  0.5041300000000  0.5984010000000  0.4680090000000 1.0
C      1  0.4322740000000  0.4493130000000  0.5407400000000 1.0
C      1  0.5094840000000  0.4037320000000  0.5425120000000 1.0
C      1  0.4297510000000  0.5488500000000  0.5369750000000 1.0
C      1  0.5316730000000  0.4601870000000  0.5875160000000 1.0
C      1  0.5783650000000  0.5297560000000  0.4544790000000 1.0
C      1  0.4691200000000  0.5962020000000  0.4993100000000 1.0
C      1  0.4635330000000  0.4093230000000  0.5179890000000 1.0
C      1  0.4115430000000  0.5364910000000  0.4643600000000 1.0
C      1  0.4324360000000  0.4739490000000  0.5626700000000 1.0
C      1  0.5549150000000  0.5123030000000  0.4869320000000 1.0
C      1  0.5653750000000  0.5017450000000  0.5545720000000 1.0
C      1  0.5361930000000  0.5701220000000  0.5687900000000 1.0
C      1  0.5959800000000  0.4818110000000  0.4767590000000 1.0
C      1  0.4593740000000  0.5710350000000  0.5630360000000 1.0
C      1  0.5985410000000  0.5086320000000  0.5158540000000 1.0
C      1  0.4581530000000  0.4828700000000  0.5318620000000 1.0
C      1  0.4132890000000  0.5637060000000  0.4748630000000 1.0
C      1  0.5051790000000  0.5966540000000  0.5405040000000 1.0
C      1  0.5953000000000  0.4810320000000  0.5067970000000 1.0
C      1  0.4788580000000  0.4641710000000  0.5382930000000 1.0
C      1  0.4231500000000  0.5701630000000  0.5026780000000 1.0
C      1  0.5868310000000  0.5190280000000  0.5404040000000 1.0
C      1  0.5131110000000  0.5714190000000  0.4268910000000 1.0
C      1  0.4214440000000  0.4985060000000  0.5533420000000 1.0
C      1  0.5465960000000  0.5354140000000  0.4164030000000 1.0
C      1  0.4655340000000  0.4610130000000  0.6014400000000 1.0
C      1  0.5228530000000  0.5900070000000  0.4467460000000 1.0
C      1  0.5449540000000  0.5966500000000  0.4984330000000 1.0
C      1  0.5615290000000  0.4379590000000  0.4866880000000 1.0
C      1  0.5299130000000  0.5482330000000  0.5194060000000 1.0
C      1  0.5334560000000  0.4879930000000  0.5172240000000 1.0
C      1  0.4441870000000  0.5001570000000  0.4921400000000 1.0
C      1  0.5106950000000  0.5645440000000  0.5799590000000 1.0
C      1  0.5157380000000  0.6040650000000  0.4936210000000 1.0
C      1  0.5094270000000  0.5481630000000  0.4999320000000 1.0
C      1  0.5533410000000  0.4229240000000  0.4615770000000 1.0
C      1  0.5490370000000  0.5215030000000  0.5765890000000 1.0
C      1  0.5037090000000  0.4928070000000  0.5681280000000 1.0
C      1  0.4515090000000  0.4771950000000  0.5057270000000 1.0
C      1  0.4760170000000  0.4042240000000  0.4666390000000 1.0
C      1  0.4420910000000  0.5745850000000  0.5395090000000 1.0
C      1  0.4992600000000  0.5210400000000  0.5037890000000 1.0
C      1  0.5274300000000  0.4110270000000  0.4536940000000 1.0
C      1  0.4677950000000  0.4216890000000  0.5638880000000 1.0
C      1  0.4640910000000  0.5317940000000  0.4719080000000 1.0
C      1  0.4551940000000  0.5443850000000  0.5736860000000 1.0
C      1  0.4574060000000  0.5381790000000  0.4216460000000 1.0
C      1  0.5461500000000  0.4619350000000  0.4289100000000 1.0
C      1  0.4332240000000  0.5434520000000  0.5094640000000 1.0
C      1  0.5025130000000  0.4692760000000  0.5524630000000 1.0
C      1  0.4881350000000  0.5155250000000  0.5305650000000 1.0
C      1  0.4857740000000  0.4836120000000  0.6050790000000 1.0
C      1  0.5741470000000  0.5442160000000  0.5445580000000 1.0
C      1  0.5009970000000  0.5015990000000  0.4465000000000 1.0
C      1  0.4896490000000  0.5571210000000  0.5389590000000 1.0
C      1  0.4614250000000  0.5108120000000  0.5398670000000 1.0
C      1  0.4297410000000  0.5010620000000  0.4355260000000 1.0
C      1  0.5104860000000  0.5254630000000  0.4345680000000 1.0
C      1  0.5140990000000  0.5142180000000  0.5505240000000 1.0
C      1  0.4939640000000  0.4605390000000  0.4058640000000 1.0
C      1  0.4640210000000  0.5025490000000  0.4715960000000 1.0
C      1  0.4842920000000  0.5588040000000  0.5100250000000 1.0
C      1  0.4749780000000  0.5936690000000  0.4709420000000 1.0
C      1  0.5449540000000  0.4438940000000  0.5532490000000 1.0
C      1  0.4987150000000  0.4178420000000  0.5659420000000 1.0
C      1  0.5204660000000  0.5276340000000  0.4060730000000 1.0
C      1  0.5203180000000  0.4314730000000  0.4918090000000 1.0
C      1  0.4480200000000  0.4805930000000  0.5867840000000 1.0
C      1  0.5010410000000  0.5503910000000  0.4431750000000 1.0
C      1  0.5687840000000  0.5375200000000  0.4941150000000 1.0
C      1  0.5824210000000  0.4616500000000  0.5255580000000 1.0
C      1  0.5252010000000  0.4593600000000  0.5356750000000 1.0
C      1  0.4749470000000  0.5307670000000  0.5893210000000 1.0
C      1  0.5047860000000  0.3979960000000  0.4684110000000 1.0
C      1  0.5184950000000  0.4484920000000  0.4676720000000 1.0
C      1  0.5563750000000  0.4879250000000  0.4192520000000 1.0
C      1  0.5960970000000  0.5118770000000  0.4681450000000 1.0
C      1  0.5536960000000  0.4176770000000  0.5521530000000 1.0
C      1  0.5584550000000  0.4598780000000  0.5730190000000 1.0
C      1  0.4062250000000  0.4871980000000  0.5311800000000 1.0
C      1  0.4642730000000  0.4584960000000  0.4071510000000 1.0
C      1  0.4324690000000  0.5717510000000  0.4564100000000 1.0
C      1  0.5147460000000  0.5438390000000  0.5429730000000 1.0
C      1  0.5382380000000  0.3999070000000  0.5381600000000 1.0
C      1  0.4114530000000  0.4631400000000  0.4903130000000 1.0
C      1  0.5414840000000  0.5635270000000  0.4196210000000 1.0
C      1  0.5597020000000  0.5772990000000  0.4833810000000 1.0
C      1  0.4952350000000  0.6025800000000  0.5139500000000 1.0
C      1  0.5726450000000  0.4359090000000  0.5136300000000 1.0
C      1  0.4247020000000  0.4458280000000  0.4705480000000 1.0
C      1  0.5547000000000  0.4659680000000  0.4835840000000 1.0
C      1  0.5392330000000  0.4745890000000  0.4598300000000 1.0
C      1  0.5168310000000  0.4503050000000  0.4195000000000 1.0
C      1  0.5578900000000  0.5155030000000  0.4371930000000 1.0
C      1  0.4628870000000  0.5457400000000  0.4966670000000 1.0
C      1  0.4760650000000  0.4280480000000  0.4485840000000 1.0
C      1  0.4445000000000  0.5871340000000  0.5126900000000 1.0
C      1  0.4960990000000  0.4922190000000  0.4741620000000 1.0
C      1  0.5146390000000  0.4384730000000  0.5799700000000 1.0
C      1  0.4876300000000  0.4919630000000  0.4026580000000 1.0
C      1  0.4669370000000  0.5030230000000  0.5959130000000 1.0
C      1  0.5738820000000  0.4723700000000  0.5517370000000 1.0
C      1  0.4535700000000  0.4853640000000  0.4454370000000 1.0
C      1  0.4443540000000  0.5102280000000  0.4124470000000 1.0
C      1  0.5671640000000  0.5615490000000  0.4617430000000 1.0
C      1  0.4384760000000  0.4295190000000  0.4902020000000 1.0
C      1  0.4548380000000  0.4418110000000  0.4290260000000 1.0
C      1  0.4395640000000  0.4569470000000  0.4473470000000 1.0
C      1  0.5630390000000  0.4119000000000  0.5270980000000 1.0
C      1  0.5555540000000  0.4873490000000  0.5012100000000 1.0
C      1  0.5096720000000  0.4304940000000  0.4399300000000 1.0
C      1  0.5098510000000  0.4045950000000  0.4962280000000 1.0
C      1  0.4382520000000  0.5270380000000  0.5541620000000 1.0
C      1  0.5329080000000  0.5889530000000  0.5455370000000 1.0
C      1  0.4504490000000  0.4262900000000  0.5394020000000 1.0
C      1  0.5100140000000  0.4436300000000  0.5153860000000 1.0
C      1  0.4959830000000  0.4644840000000  0.4709100000000 1.0
C      1  0.5873110000000  0.4608460000000  0.4585200000000 1.0
C      1  0.5040630000000  0.5388200000000  0.5909340000000 1.0
C      1  0.4566650000000  0.4070890000000  0.4889120000000 1.0
C      1  0.4918160000000  0.4009140000000  0.5197790000000 1.0
C      1  0.5511420000000  0.5789390000000  0.4428320000000 1.0
C      1  0.4738740000000  0.4493880000000  0.4692250000000 1.0
C      1  0.5514700000000  0.5847700000000  0.5235840000000 1.0
C      1  0.5158320000000  0.5000460000000  0.4948330000000 1.0
C      1  0.4558550000000  0.5838180000000  0.4493480000000 1.0
END
