TITL C-884141-4321-420 -2.76113268247528 125000 -10771.7467224513 0 0 73 (C1) n - 1
REM
REM in /home/nfs/bkarasulu/CARBON/AIRSS/Generating-Clusters/ReaxFF-fromJPCA2015/Units_Real/with-SteepDescent/Only-C1/SD-CG/Try1-3A/FIRE-CG
REM
REM
REM
REM
REM
REM ./C.cell (11c1c37f851c82e70ff6c80c92926a4b)
REM
REM compiler GCC version 9.2.1 20190827 (Red Hat 9.2.1-1)
REM options -cpp -mtune=generic -march=x86-64 -g -O0 -fpre-include=/usr/include/finclude/math-vector-fortran.h
REM seed -459238853 385106552 602796074 2104029964 -1222084125 -1514279886 431268601 710075673 -334260832 771577070 852773031 -1688432997 1446247661 975257075 1433669308 1222359968 -374272118 -751855854 813059619 -1697169178 606171435 -216520684 1889066752 -2116303738 530472811 -1681794946 375383629 -1584223485 -809164 115917506 -562664694 -1613176844 715116830
REM
CELL 1.54180   50.00000   50.00000   50.00000   90.00000   90.00000   90.00000
LATT -1
SFAC C  
C      1  0.5071530000000  0.5005960000000  0.4200210000000 1.0
C      1  0.4263980000000  0.5407320000000  0.5077020000000 1.0
C      1  0.4218620000000  0.4766280000000  0.5119030000000 1.0
C      1  0.5013230000000  0.4488350000000  0.4428800000000 1.0
C      1  0.4104820000000  0.5232410000000  0.4886610000000 1.0
C      1  0.4294440000000  0.4769490000000  0.5403590000000 1.0
C      1  0.4587180000000  0.5476750000000  0.5389510000000 1.0
C      1  0.4492780000000  0.4655020000000  0.4603590000000 1.0
C      1  0.4525270000000  0.4810990000000  0.5052120000000 1.0
C      1  0.5300180000000  0.5578440000000  0.4643070000000 1.0
C      1  0.5268420000000  0.5586340000000  0.5552640000000 1.0
C      1  0.5459310000000  0.4885350000000  0.4274250000000 1.0
C      1  0.5300820000000  0.4976120000000  0.4756100000000 1.0
C      1  0.5176090000000  0.5748960000000  0.5278990000000 1.0
C      1  0.4513870000000  0.4546390000000  0.5381010000000 1.0
C      1  0.4906390000000  0.5100720000000  0.5070710000000 1.0
C      1  0.5446380000000  0.4305200000000  0.4606430000000 1.0
C      1  0.5376640000000  0.4429690000000  0.5035830000000 1.0
C      1  0.5398520000000  0.5382940000000  0.4450330000000 1.0
C      1  0.4966760000000  0.5676830000000  0.5065030000000 1.0
C      1  0.5188340000000  0.4306580000000  0.5517280000000 1.0
C      1  0.5255180000000  0.4758670000000  0.5666710000000 1.0
C      1  0.5118880000000  0.5430590000000  0.5638590000000 1.0
C      1  0.5043990000000  0.5642230000000  0.4785610000000 1.0
C      1  0.4476740000000  0.5563060000000  0.4951530000000 1.0
C      1  0.5659040000000  0.4485270000000  0.4611730000000 1.0
C      1  0.4675540000000  0.4575190000000  0.5128400000000 1.0
C      1  0.5330380000000  0.5135030000000  0.4280910000000 1.0
C      1  0.4722250000000  0.5322150000000  0.5602260000000 1.0
C      1  0.5039820000000  0.4874900000000  0.4712160000000 1.0
C      1  0.5554170000000  0.5432690000000  0.4695530000000 1.0
C      1  0.4836670000000  0.5064960000000  0.4771540000000 1.0
C      1  0.4823930000000  0.5548710000000  0.4616620000000 1.0
C      1  0.4691900000000  0.5604160000000  0.5147720000000 1.0
C      1  0.4927350000000  0.4612570000000  0.4679670000000 1.0
C      1  0.5063740000000  0.4959650000000  0.5276540000000 1.0
C      1  0.4097890000000  0.4974080000000  0.4984870000000 1.0
C      1  0.4564370000000  0.5120290000000  0.4366150000000 1.0
C      1  0.4260120000000  0.5143860000000  0.4649450000000 1.0
C      1  0.4535460000000  0.5542930000000  0.4666030000000 1.0
C      1  0.5076340000000  0.4706480000000  0.4245620000000 1.0
C      1  0.5518480000000  0.5463760000000  0.5541740000000 1.0
C      1  0.5735340000000  0.4820410000000  0.4906420000000 1.0
C      1  0.5359420000000  0.4452060000000  0.5330920000000 1.0
C      1  0.5523190000000  0.4936200000000  0.5421550000000 1.0
C      1  0.4929190000000  0.4318540000000  0.5675340000000 1.0
C      1  0.4659390000000  0.4411940000000  0.5597560000000 1.0
C      1  0.4577300000000  0.4399600000000  0.4698890000000 1.0
C      1  0.5774990000000  0.5061650000000  0.5341800000000 1.0
C      1  0.5639420000000  0.4741220000000  0.4436980000000 1.0
C      1  0.4662580000000  0.5030330000000  0.5200610000000 1.0
C      1  0.4403150000000  0.5341700000000  0.4491520000000 1.0
C      1  0.5145670000000  0.4326320000000  0.4891520000000 1.0
C      1  0.4341670000000  0.5049250000000  0.5476350000000 1.0
C      1  0.4631960000000  0.5064500000000  0.5496880000000 1.0
C      1  0.5323450000000  0.5019360000000  0.5236050000000 1.0
C      1  0.5306350000000  0.5914000000000  0.5143080000000 1.0
C      1  0.5053700000000  0.4944730000000  0.5565450000000 1.0
C      1  0.4529060000000  0.4956670000000  0.4619530000000 1.0
C      1  0.4342650000000  0.5323680000000  0.5341730000000 1.0
C      1  0.5768400000000  0.5072590000000  0.5048870000000 1.0
C      1  0.4844680000000  0.5172000000000  0.4306320000000 1.0
C      1  0.5168430000000  0.4279080000000  0.4606030000000 1.0
C      1  0.5311830000000  0.5166430000000  0.4983260000000 1.0
C      1  0.5579440000000  0.4907800000000  0.4670970000000 1.0
C      1  0.4832270000000  0.4435710000000  0.4911870000000 1.0
C      1  0.5624250000000  0.4544280000000  0.4899950000000 1.0
C      1  0.5466750000000  0.4670780000000  0.5489400000000 1.0
C      1  0.5693780000000  0.5297490000000  0.5473230000000 1.0
C      1  0.5582390000000  0.5278350000000  0.4942300000000 1.0
C      1  0.4910430000000  0.5274440000000  0.4569730000000 1.0
C      1  0.4971030000000  0.5205780000000  0.5672880000000 1.0
C      1  0.5162030000000  0.4485750000000  0.5741450000000 1.0
END
