TITL C-883736-9678-33 -5655.65293069021 125000 -5711.23381094647 0 0 40 (C1) n - 1
REM
REM in /home/nfs/bkarasulu/CARBON/AIRSS/Generating-Clusters/ReaxFF-fromJPCA2015/Units_Real/with-SteepDescent/Only-C1/SD-CG/Try1-3A/FIRE-CG
REM
REM
REM
REM
REM
REM ./C.cell (11c1c37f851c82e70ff6c80c92926a4b)
REM
REM compiler GCC version 9.2.1 20190827 (Red Hat 9.2.1-1)
REM options -cpp -mtune=generic -march=x86-64 -g -O0 -fpre-include=/usr/include/finclude/math-vector-fortran.h
REM seed -653746834 578573778 -580305926 -912461374 -269893917 -819495220 156826332 966603261 380712215 1220087542 -1899481233 -1846416314 171652206 -343741020 -71836303 -427632785 374658633 -2141125394 -782996259 934104154 1019880815 -281693325 586638730 -1436838596 1664515088 -1716765965 1156246098 3022931 1906475371 800021811 1492325245 -78629044 -1259877078
REM
CELL 1.54180   50.00000   50.00000   50.00000   90.00000   90.00000   90.00000
LATT -1
SFAC C  
C      1  0.5513330000000  0.5452570000000  0.4787110000000 1.0
C      1  0.5285920000000  0.4661820000000  0.4224360000000 1.0
C      1  0.4756630000000  0.5367900000000  0.4612650000000 1.0
C      1  0.5246260000000  0.5116900000000  0.5349310000000 1.0
C      1  0.4378130000000  0.4919840000000  0.4973860000000 1.0
C      1  0.4707040000000  0.5489410000000  0.5322040000000 1.0
C      1  0.5106800000000  0.5056710000000  0.4613610000000 1.0
C      1  0.4814280000000  0.4777870000000  0.4895810000000 1.0
C      1  0.4757210000000  0.5636700000000  0.5067240000000 1.0
C      1  0.4532590000000  0.5252060000000  0.5353290000000 1.0
C      1  0.5241590000000  0.4587020000000  0.4476140000000 1.0
C      1  0.4698490000000  0.4597170000000  0.5113640000000 1.0
C      1  0.4347670000000  0.5183640000000  0.5130840000000 1.0
C      1  0.5463740000000  0.5309650000000  0.5044570000000 1.0
C      1  0.5213650000000  0.5336280000000  0.5202980000000 1.0
C      1  0.5536410000000  0.4688090000000  0.5258370000000 1.0
C      1  0.5669850000000  0.5207640000000  0.4684920000000 1.0
C      1  0.5164570000000  0.4955520000000  0.5530410000000 1.0
C      1  0.5595410000000  0.5057790000000  0.4939370000000 1.0
C      1  0.4976450000000  0.5535180000000  0.5227370000000 1.0
C      1  0.4595350000000  0.4917960000000  0.4771330000000 1.0
C      1  0.5081070000000  0.4852560000000  0.4824560000000 1.0
C      1  0.5521090000000  0.4776870000000  0.4984190000000 1.0
C      1  0.4848970000000  0.4410230000000  0.5273220000000 1.0
C      1  0.5220190000000  0.4368720000000  0.4946470000000 1.0
C      1  0.4615030000000  0.5026390000000  0.5528560000000 1.0
C      1  0.5048580000000  0.5354430000000  0.4625390000000 1.0
C      1  0.5299590000000  0.4637560000000  0.4810900000000 1.0
C      1  0.4682140000000  0.5090440000000  0.4545220000000 1.0
C      1  0.5020570000000  0.4707740000000  0.4321550000000 1.0
C      1  0.4879050000000  0.5018520000000  0.5671320000000 1.0
C      1  0.5264380000000  0.5558040000000  0.4653510000000 1.0
C      1  0.4434120000000  0.5385090000000  0.4962410000000 1.0
C      1  0.5148840000000  0.4352710000000  0.5224260000000 1.0
C      1  0.4618180000000  0.5535910000000  0.4815630000000 1.0
C      1  0.4655350000000  0.4933410000000  0.5794710000000 1.0
C      1  0.4916950000000  0.4971940000000  0.4408930000000 1.0
C      1  0.4400470000000  0.4673230000000  0.5133100000000 1.0
C      1  0.5366670000000  0.4488100000000  0.5386830000000 1.0
C      1  0.5377400000000  0.4750390000000  0.5510020000000 1.0
END
