TITL C-884136-4169-273 4.72525126543214 125000 -22157.8597364379 0 0 148 (C1) n - 1
REM
REM in /home/nfs/bkarasulu/CARBON/AIRSS/Generating-Clusters/ReaxFF-fromJPCA2015/Units_Real/with-SteepDescent/Only-C1/SD-CG/Try1-3A/FIRE-CG
REM
REM
REM
REM
REM
REM ./C.cell (11c1c37f851c82e70ff6c80c92926a4b)
REM
REM compiler GCC version 9.2.1 20190827 (Red Hat 9.2.1-1)
REM options -cpp -mtune=generic -march=x86-64 -g -O0 -fpre-include=/usr/include/finclude/math-vector-fortran.h
REM seed -1619288286 918935081 -225187024 -1495476802 1302207451 -108222469 360038625 -846078579 -1937817580 1438279467 1235165290 754738164 -1945740283 447468500 -1754750733 -542709955 -1459846884 -1174637751 1075988217 -540128506 -387522303 -938211630 -35327823 -1015602232 334922334 -1149337626 -1695753494 592327183 1208044565 198867377 -1531361345 578748133 -622466324
REM
CELL 1.54180   50.00000   50.00000   50.00000   90.00000   90.00000   90.00000
LATT -1
SFAC C  
C      1  0.5211270000000  0.4418770000000  0.4720100000000 1.0
C      1  0.5288600000000  0.5415950000000  0.5239230000000 1.0
C      1  0.5423090000000  0.5068890000000  0.4662230000000 1.0
C      1  0.5414140000000  0.5230080000000  0.5061180000000 1.0
C      1  0.4116820000000  0.4788940000000  0.5418810000000 1.0
C      1  0.4336220000000  0.4275660000000  0.4835220000000 1.0
C      1  0.4358800000000  0.4619520000000  0.5459830000000 1.0
C      1  0.5831400000000  0.4480630000000  0.5299420000000 1.0
C      1  0.5083140000000  0.3928810000000  0.4789320000000 1.0
C      1  0.4826580000000  0.5430630000000  0.5008340000000 1.0
C      1  0.5478200000000  0.5756950000000  0.4680570000000 1.0
C      1  0.4392400000000  0.5888250000000  0.5276260000000 1.0
C      1  0.5820240000000  0.4816800000000  0.4596680000000 1.0
C      1  0.5994890000000  0.5018270000000  0.5402780000000 1.0
C      1  0.5581410000000  0.4053480000000  0.4794840000000 1.0
C      1  0.5850060000000  0.5204200000000  0.4469500000000 1.0
C      1  0.4288040000000  0.5514770000000  0.5431730000000 1.0
C      1  0.4642630000000  0.4937690000000  0.3891010000000 1.0
C      1  0.5537720000000  0.4802400000000  0.5597920000000 1.0
C      1  0.5121020000000  0.5570410000000  0.5923450000000 1.0
C      1  0.4604150000000  0.5207740000000  0.4038610000000 1.0
C      1  0.4129130000000  0.5059890000000  0.5364360000000 1.0
C      1  0.4438760000000  0.4109410000000  0.4633710000000 1.0
C      1  0.5918320000000  0.5214620000000  0.5192620000000 1.0
C      1  0.5761750000000  0.4958010000000  0.4353420000000 1.0
C      1  0.5356030000000  0.6074510000000  0.5103940000000 1.0
C      1  0.4872880000000  0.4235940000000  0.5738360000000 1.0
C      1  0.5368650000000  0.5103890000000  0.5857130000000 1.0
C      1  0.4229310000000  0.5607420000000  0.4605920000000 1.0
C      1  0.4672190000000  0.4268700000000  0.5943310000000 1.0
C      1  0.4469430000000  0.5185050000000  0.5762530000000 1.0
C      1  0.5470610000000  0.4150810000000  0.5054760000000 1.0
C      1  0.4906650000000  0.4707620000000  0.6039700000000 1.0
C      1  0.4752950000000  0.5807310000000  0.5589970000000 1.0
C      1  0.4578690000000  0.5277250000000  0.4971420000000 1.0
C      1  0.4546920000000  0.4921950000000  0.5750780000000 1.0
C      1  0.4452590000000  0.4434470000000  0.5270110000000 1.0
C      1  0.4360510000000  0.5800320000000  0.4775120000000 1.0
C      1  0.4991760000000  0.5298880000000  0.4745940000000 1.0
C      1  0.4054500000000  0.4699900000000  0.5192710000000 1.0
C      1  0.5273990000000  0.5676970000000  0.5135150000000 1.0
C      1  0.5450650000000  0.5519290000000  0.5505020000000 1.0
C      1  0.5721640000000  0.5427840000000  0.5560590000000 1.0
C      1  0.4432610000000  0.4870590000000  0.4931700000000 1.0
C      1  0.4791320000000  0.5716050000000  0.5002040000000 1.0
C      1  0.5151650000000  0.5287470000000  0.5990740000000 1.0
C      1  0.5198760000000  0.5138700000000  0.5600340000000 1.0
C      1  0.5668500000000  0.4989400000000  0.4779520000000 1.0
C      1  0.4228930000000  0.4670450000000  0.5000120000000 1.0
C      1  0.4882180000000  0.5003810000000  0.4701310000000 1.0
C      1  0.5499540000000  0.5841200000000  0.5231630000000 1.0
C      1  0.4541730000000  0.4267780000000  0.5089630000000 1.0
C      1  0.4016770000000  0.5150130000000  0.4592550000000 1.0
C      1  0.5025370000000  0.4038210000000  0.5066010000000 1.0
C      1  0.4840250000000  0.4263980000000  0.5039680000000 1.0
C      1  0.5266310000000  0.4043500000000  0.5238430000000 1.0
C      1  0.5363280000000  0.3858660000000  0.4721950000000 1.0
C      1  0.4849490000000  0.4801820000000  0.5378640000000 1.0
C      1  0.5097110000000  0.5138440000000  0.4122820000000 1.0
C      1  0.4922920000000  0.5994100000000  0.5451260000000 1.0
C      1  0.5039100000000  0.5824140000000  0.5089070000000 1.0
C      1  0.4564500000000  0.5036160000000  0.5129180000000 1.0
C      1  0.4522510000000  0.5257220000000  0.4692740000000 1.0
C      1  0.4028340000000  0.5090880000000  0.5070620000000 1.0
C      1  0.4578400000000  0.4828220000000  0.5488610000000 1.0
C      1  0.5110330000000  0.5953680000000  0.4691730000000 1.0
C      1  0.5058070000000  0.4949080000000  0.4332810000000 1.0
C      1  0.5311360000000  0.4644040000000  0.4130640000000 1.0
C      1  0.5270410000000  0.5237200000000  0.4813710000000 1.0
C      1  0.5428160000000  0.4402390000000  0.4252720000000 1.0
C      1  0.4865490000000  0.5545750000000  0.5735710000000 1.0
C      1  0.6061490000000  0.4541610000000  0.5222150000000 1.0
C      1  0.5748430000000  0.5565220000000  0.4287350000000 1.0
C      1  0.4990800000000  0.5328600000000  0.5548340000000 1.0
C      1  0.5352790000000  0.6004460000000  0.4809150000000 1.0
C      1  0.5344720000000  0.4962560000000  0.5432120000000 1.0
C      1  0.4956130000000  0.4498580000000  0.5626210000000 1.0
C      1  0.5713090000000  0.4246630000000  0.4624010000000 1.0
C      1  0.4803780000000  0.4912720000000  0.4445590000000 1.0
C      1  0.5569540000000  0.4519850000000  0.5421390000000 1.0
C      1  0.4158400000000  0.4510240000000  0.4786050000000 1.0
C      1  0.4283110000000  0.5251290000000  0.5531860000000 1.0
C      1  0.5081790000000  0.6087850000000  0.5216630000000 1.0
C      1  0.5034660000000  0.4593350000000  0.4073970000000 1.0
C      1  0.4453590000000  0.4655520000000  0.4214430000000 1.0
C      1  0.5259130000000  0.4254110000000  0.4438220000000 1.0
C      1  0.5310440000000  0.4099360000000  0.5529220000000 1.0
C      1  0.5323200000000  0.4383120000000  0.5842950000000 1.0
C      1  0.4902130000000  0.4350340000000  0.4165570000000 1.0
C      1  0.4907400000000  0.4451650000000  0.4819240000000 1.0
C      1  0.5710490000000  0.5633110000000  0.4804390000000 1.0
C      1  0.5844180000000  0.5478500000000  0.5282870000000 1.0
C      1  0.5383400000000  0.4797600000000  0.5847030000000 1.0
C      1  0.5356770000000  0.4403760000000  0.4976420000000 1.0
C      1  0.4209710000000  0.4766720000000  0.4337510000000 1.0
C      1  0.4441220000000  0.5465940000000  0.4440210000000 1.0
C      1  0.4026760000000  0.5368640000000  0.5004930000000 1.0
C      1  0.3991520000000  0.4957560000000  0.4796320000000 1.0
C      1  0.4248270000000  0.5055930000000  0.4393380000000 1.0
C      1  0.5307340000000  0.4574360000000  0.5211890000000 1.0
C      1  0.4650930000000  0.5837870000000  0.4782050000000 1.0
C      1  0.4036980000000  0.5416750000000  0.4711240000000 1.0
C      1  0.4879260000000  0.5555530000000  0.4251610000000 1.0
C      1  0.4671650000000  0.5364050000000  0.5883990000000 1.0
C      1  0.4882970000000  0.5832390000000  0.4588850000000 1.0
C      1  0.4240530000000  0.5822040000000  0.5051160000000 1.0
C      1  0.4473450000000  0.5761740000000  0.5500530000000 1.0
C      1  0.5302610000000  0.4857130000000  0.5168180000000 1.0
C      1  0.5291820000000  0.5751060000000  0.5787200000000 1.0
C      1  0.4713390000000  0.4702580000000  0.4042310000000 1.0
C      1  0.4909920000000  0.4760690000000  0.4851490000000 1.0
C      1  0.5324560000000  0.5596830000000  0.4476820000000 1.0
C      1  0.5034520000000  0.5544600000000  0.4523110000000 1.0
C      1  0.5157340000000  0.4145500000000  0.5776350000000 1.0
C      1  0.5046590000000  0.4124990000000  0.4304590000000 1.0
C      1  0.4083250000000  0.4730090000000  0.4608050000000 1.0
C      1  0.5303960000000  0.4877010000000  0.4483250000000 1.0
C      1  0.6096010000000  0.4780890000000  0.5285790000000 1.0
C      1  0.4728050000000  0.4411180000000  0.4392770000000 1.0
C      1  0.4869990000000  0.5204750000000  0.6010280000000 1.0
C      1  0.5794270000000  0.4983650000000  0.5619080000000 1.0
C      1  0.5660430000000  0.5199670000000  0.5729020000000 1.0
C      1  0.4623590000000  0.4678760000000  0.4452490000000 1.0
C      1  0.5463200000000  0.5450170000000  0.4264470000000 1.0
C      1  0.4930170000000  0.4024470000000  0.4552020000000 1.0
C      1  0.4628440000000  0.5696720000000  0.4294630000000 1.0
C      1  0.4980250000000  0.5332590000000  0.5261140000000 1.0
C      1  0.5691140000000  0.5139580000000  0.5023920000000 1.0
C      1  0.5501680000000  0.4303660000000  0.5622100000000 1.0
C      1  0.5842930000000  0.5475760000000  0.4561860000000 1.0
C      1  0.5384340000000  0.5188300000000  0.4138570000000 1.0
C      1  0.4865090000000  0.5025200000000  0.5203920000000 1.0
C      1  0.5447760000000  0.5801530000000  0.5568060000000 1.0
C      1  0.4727210000000  0.4927860000000  0.5969670000000 1.0
C      1  0.4869770000000  0.5321550000000  0.4072520000000 1.0
C      1  0.5666700000000  0.4384070000000  0.4399680000000 1.0
C      1  0.4716790000000  0.4514100000000  0.6018250000000 1.0
C      1  0.5155710000000  0.4633370000000  0.5865630000000 1.0
C      1  0.4395750000000  0.5260450000000  0.4229010000000 1.0
C      1  0.5653640000000  0.4548420000000  0.4632760000000 1.0
C      1  0.4137910000000  0.5574800000000  0.5185740000000 1.0
C      1  0.5485240000000  0.4918710000000  0.4204790000000 1.0
C      1  0.4457330000000  0.4987980000000  0.4665440000000 1.0
C      1  0.5365670000000  0.4638840000000  0.4642380000000 1.0
C      1  0.5021050000000  0.4572060000000  0.5362340000000 1.0
C      1  0.5058330000000  0.4909220000000  0.5046030000000 1.0
C      1  0.4742430000000  0.4236750000000  0.4604960000000 1.0
C      1  0.5728990000000  0.5662930000000  0.5091010000000 1.0
END
