TITL C-883738-3659-249 -3.3583919603681 125000 -5427.12386136097 0 0 38 (C1) n - 1
REM
REM in /home/nfs/bkarasulu/CARBON/AIRSS/Generating-Clusters/ReaxFF-fromJPCA2015/Units_Real/with-SteepDescent/Only-C1/SD-CG/Try1-3A/FIRE-CG
REM
REM
REM
REM
REM
REM ./C.cell (11c1c37f851c82e70ff6c80c92926a4b)
REM
REM compiler GCC version 9.2.1 20190827 (Red Hat 9.2.1-1)
REM options -cpp -mtune=generic -march=x86-64 -g -O0 -fpre-include=/usr/include/finclude/math-vector-fortran.h
REM seed -1346579565 1271002453 -2048869857 -1133204219 1733270789 1485599282 -1266963525 1373303438 -1181782092 -1189628147 2033649480 -314012437 -1575941919 -1420182241 1761227244 887213388 1054419638 997560524 -1587776440 570833281 883935462 692599785 -854316582 -53693268 1596475559 -916669088 -421110596 -1161406383 -1311846512 -1612129848 -1109291801 474686385 1767608857
REM
CELL 1.54180   50.00000   50.00000   50.00000   90.00000   90.00000   90.00000
LATT -1
SFAC C  
C      1  0.5097400000000  0.4956220000000  0.4901170000000 1.0
C      1  0.5532870000000  0.4668460000000  0.5089310000000 1.0
C      1  0.5011880000000  0.5114230000000  0.5670830000000 1.0
C      1  0.5485900000000  0.4412460000000  0.4489280000000 1.0
C      1  0.5136900000000  0.4727060000000  0.5074860000000 1.0
C      1  0.4940540000000  0.5540940000000  0.4913130000000 1.0
C      1  0.4913010000000  0.4852440000000  0.5722450000000 1.0
C      1  0.4793430000000  0.4663780000000  0.4581080000000 1.0
C      1  0.4546320000000  0.4766640000000  0.5010120000000 1.0
C      1  0.5122160000000  0.4755240000000  0.5381240000000 1.0
C      1  0.5256350000000  0.5461460000000  0.4946270000000 1.0
C      1  0.4898560000000  0.5623770000000  0.4607340000000 1.0
C      1  0.5372480000000  0.5319340000000  0.4709290000000 1.0
C      1  0.5092050000000  0.4272900000000  0.5063720000000 1.0
C      1  0.4820560000000  0.5038040000000  0.4826550000000 1.0
C      1  0.4805740000000  0.5662610000000  0.5160460000000 1.0
C      1  0.4739440000000  0.5303550000000  0.4905440000000 1.0
C      1  0.5229880000000  0.5008250000000  0.5504980000000 1.0
C      1  0.4763600000000  0.5543220000000  0.5420570000000 1.0
C      1  0.4547660000000  0.5545140000000  0.5219850000000 1.0
C      1  0.4937910000000  0.4650430000000  0.5571980000000 1.0
C      1  0.5549240000000  0.4884800000000  0.5216890000000 1.0
C      1  0.5140930000000  0.4941350000000  0.4425050000000 1.0
C      1  0.4904890000000  0.5107000000000  0.4370940000000 1.0
C      1  0.4493170000000  0.5305840000000  0.5052990000000 1.0
C      1  0.4677270000000  0.4563850000000  0.4846230000000 1.0
C      1  0.5455600000000  0.5118810000000  0.5350370000000 1.0
C      1  0.4867140000000  0.4384700000000  0.4969310000000 1.0
C      1  0.4784600000000  0.5265370000000  0.5536750000000 1.0
C      1  0.5321090000000  0.4513940000000  0.4962390000000 1.0
C      1  0.4478070000000  0.5008700000000  0.5163740000000 1.0
C      1  0.4733920000000  0.4947270000000  0.4547870000000 1.0
C      1  0.5068430000000  0.4664830000000  0.4494780000000 1.0
C      1  0.4634150000000  0.5099100000000  0.5377180000000 1.0
C      1  0.4901490000000  0.5402950000000  0.4425560000000 1.0
C      1  0.5375550000000  0.5358020000000  0.5186170000000 1.0
C      1  0.5297090000000  0.4508090000000  0.4628400000000 1.0
C      1  0.5272700000000  0.5039210000000  0.4675430000000 1.0
END
