TITL C-883730-8503-277 25.7819858912705 125000 -17438.4465778406 0 0 118 (C1) n - 1
REM
REM in /home/nfs/bkarasulu/CARBON/AIRSS/Generating-Clusters/ReaxFF-fromJPCA2015/Units_Real/with-SteepDescent/Only-C1/SD-CG/Try1-3A/FIRE-CG
REM
REM
REM
REM
REM
REM ./C.cell (11c1c37f851c82e70ff6c80c92926a4b)
REM
REM compiler GCC version 9.2.1 20190827 (Red Hat 9.2.1-1)
REM options -cpp -mtune=generic -march=x86-64 -g -O0 -fpre-include=/usr/include/finclude/math-vector-fortran.h
REM seed -751230133 2016049966 -964990616 -2102247662 -1129128913 -1078867116 1354225790 1361728757 -1241870643 67758021 -85258131 853608158 -837710545 -906786128 -106505946 1549766337 -560085069 177364785 497522363 -1724109748 -1569197732 -1546009655 2061174537 -1663373522 -567899121 754909029 -1526891882 -363449559 1174050247 -272904450 106100859 -19681625 1687648626
REM
CELL 1.54180   50.00000   50.00000   50.00000   90.00000   90.00000   90.00000
LATT -1
SFAC C  
C      1  0.4509030000000  0.4597470000000  0.5687420000000 1.0
C      1  0.4159530000000  0.4954820000000  0.5273390000000 1.0
C      1  0.5869010000000  0.4494940000000  0.4878030000000 1.0
C      1  0.5205290000000  0.4733010000000  0.5100190000000 1.0
C      1  0.4905090000000  0.5631820000000  0.4560400000000 1.0
C      1  0.5475620000000  0.4367000000000  0.5647780000000 1.0
C      1  0.5303080000000  0.4644100000000  0.5694710000000 1.0
C      1  0.4527480000000  0.4451800000000  0.5433200000000 1.0
C      1  0.4921260000000  0.4820930000000  0.5425500000000 1.0
C      1  0.5830060000000  0.5133500000000  0.5051990000000 1.0
C      1  0.5079360000000  0.5028350000000  0.6038110000000 1.0
C      1  0.5046130000000  0.4593300000000  0.5855910000000 1.0
C      1  0.4079600000000  0.4882830000000  0.4835160000000 1.0
C      1  0.4551870000000  0.5067890000000  0.5507970000000 1.0
C      1  0.5685940000000  0.5444440000000  0.4451180000000 1.0
C      1  0.5772020000000  0.4853140000000  0.5355010000000 1.0
C      1  0.4753560000000  0.5087170000000  0.4212500000000 1.0
C      1  0.4571450000000  0.4809830000000  0.5110720000000 1.0
C      1  0.5493080000000  0.5265060000000  0.5580830000000 1.0
C      1  0.4934950000000  0.5791520000000  0.5520990000000 1.0
C      1  0.4970610000000  0.5230600000000  0.5862060000000 1.0
C      1  0.4238620000000  0.4315630000000  0.4781700000000 1.0
C      1  0.5320170000000  0.5951810000000  0.5009080000000 1.0
C      1  0.4365600000000  0.4959290000000  0.4890190000000 1.0
C      1  0.4918710000000  0.5966620000000  0.5016450000000 1.0
C      1  0.4347340000000  0.4809830000000  0.4423050000000 1.0
C      1  0.4630450000000  0.5347050000000  0.4810740000000 1.0
C      1  0.5144840000000  0.5443780000000  0.5828050000000 1.0
C      1  0.5873480000000  0.4572010000000  0.4587550000000 1.0
C      1  0.5181390000000  0.4509370000000  0.4293810000000 1.0
C      1  0.4548290000000  0.5443670000000  0.4315470000000 1.0
C      1  0.4238950000000  0.5187590000000  0.5120150000000 1.0
C      1  0.4755830000000  0.4573620000000  0.4300030000000 1.0
C      1  0.4831820000000  0.4962220000000  0.5186960000000 1.0
C      1  0.4346850000000  0.5104350000000  0.5714700000000 1.0
C      1  0.4437110000000  0.4840360000000  0.5839340000000 1.0
C      1  0.5622470000000  0.4595460000000  0.4440260000000 1.0
C      1  0.4816270000000  0.4908110000000  0.4656580000000 1.0
C      1  0.4807560000000  0.5035760000000  0.5657260000000 1.0
C      1  0.4416910000000  0.4848050000000  0.5370770000000 1.0
C      1  0.4653440000000  0.5916390000000  0.5157860000000 1.0
C      1  0.5442210000000  0.5407880000000  0.4626950000000 1.0
C      1  0.4703660000000  0.4918250000000  0.5925960000000 1.0
C      1  0.4403400000000  0.4350190000000  0.5195130000000 1.0
C      1  0.5460330000000  0.4951690000000  0.4745940000000 1.0
C      1  0.4826340000000  0.4484590000000  0.5435180000000 1.0
C      1  0.5086530000000  0.5469130000000  0.4212260000000 1.0
C      1  0.5143190000000  0.5683640000000  0.4403640000000 1.0
C      1  0.4556140000000  0.5800490000000  0.4912280000000 1.0
C      1  0.4078610000000  0.4886740000000  0.4417020000000 1.0
C      1  0.5298830000000  0.5265060000000  0.4179080000000 1.0
C      1  0.5639910000000  0.5603350000000  0.4993600000000 1.0
C      1  0.4939910000000  0.4787300000000  0.6042470000000 1.0
C      1  0.5371330000000  0.4184780000000  0.4624250000000 1.0
C      1  0.5280850000000  0.5253860000000  0.5124440000000 1.0
C      1  0.5378920000000  0.5298420000000  0.5867020000000 1.0
C      1  0.4666950000000  0.5753510000000  0.5400300000000 1.0
C      1  0.5014650000000  0.4703670000000  0.4733090000000 1.0
C      1  0.6011550000000  0.4924510000000  0.5167500000000 1.0
C      1  0.5376640000000  0.5691370000000  0.4591160000000 1.0
C      1  0.5413230000000  0.5539540000000  0.5469830000000 1.0
C      1  0.4841520000000  0.5726190000000  0.4852260000000 1.0
C      1  0.4143490000000  0.5268440000000  0.4549860000000 1.0
C      1  0.5497140000000  0.5813910000000  0.4836240000000 1.0
C      1  0.4838650000000  0.5358890000000  0.4601070000000 1.0
C      1  0.5493860000000  0.4850710000000  0.5797860000000 1.0
C      1  0.5226390000000  0.4821970000000  0.5391450000000 1.0
C      1  0.5599490000000  0.4455320000000  0.4970510000000 1.0
C      1  0.4956520000000  0.5218380000000  0.5126350000000 1.0
C      1  0.4930010000000  0.4124590000000  0.4887370000000 1.0
C      1  0.5729220000000  0.5044060000000  0.4318500000000 1.0
C      1  0.5505280000000  0.4881170000000  0.4455320000000 1.0
C      1  0.5413690000000  0.4242660000000  0.4918860000000 1.0
C      1  0.5433870000000  0.5518450000000  0.5186590000000 1.0
C      1  0.5944050000000  0.5069120000000  0.4515170000000 1.0
C      1  0.5230490000000  0.5003130000000  0.4298480000000 1.0
C      1  0.5326760000000  0.5103970000000  0.5379620000000 1.0
C      1  0.5663080000000  0.4977120000000  0.5596190000000 1.0
C      1  0.5465130000000  0.4757260000000  0.4972510000000 1.0
C      1  0.4805110000000  0.4392410000000  0.4922300000000 1.0
C      1  0.4344400000000  0.5458450000000  0.4530580000000 1.0
C      1  0.4830880000000  0.4816030000000  0.4132830000000 1.0
C      1  0.5115390000000  0.5950370000000  0.5366920000000 1.0
C      1  0.4806550000000  0.4499820000000  0.5729150000000 1.0
C      1  0.5425420000000  0.4393360000000  0.4407130000000 1.0
C      1  0.5056450000000  0.4279590000000  0.5332120000000 1.0
C      1  0.3961280000000  0.5056700000000  0.4613040000000 1.0
C      1  0.5117280000000  0.4769520000000  0.4153650000000 1.0
C      1  0.4578130000000  0.4507810000000  0.5026800000000 1.0
C      1  0.6024430000000  0.4818310000000  0.4653390000000 1.0
C      1  0.5610720000000  0.4952240000000  0.5127520000000 1.0
C      1  0.5592230000000  0.5281410000000  0.4222510000000 1.0
C      1  0.3993310000000  0.4779450000000  0.5095900000000 1.0
C      1  0.4371350000000  0.5401700000000  0.5669770000000 1.0
C      1  0.4972310000000  0.4525140000000  0.4498140000000 1.0
C      1  0.4037100000000  0.4499710000000  0.5087260000000 1.0
C      1  0.4517740000000  0.4400430000000  0.4316860000000 1.0
C      1  0.4267590000000  0.4526750000000  0.4361030000000 1.0
C      1  0.4792790000000  0.5373670000000  0.4170470000000 1.0
C      1  0.6038210000000  0.4741860000000  0.4939930000000 1.0
C      1  0.4929830000000  0.5108700000000  0.4466340000000 1.0
C      1  0.4168040000000  0.4311410000000  0.5035030000000 1.0
C      1  0.5134540000000  0.5877830000000  0.5139100000000 1.0
C      1  0.4404490000000  0.5553860000000  0.4866800000000 1.0
C      1  0.5388000000000  0.5199450000000  0.4820780000000 1.0
C      1  0.5359060000000  0.5034500000000  0.5982140000000 1.0
C      1  0.5291040000000  0.4283450000000  0.5456460000000 1.0
C      1  0.4451980000000  0.5544430000000  0.5416670000000 1.0
C      1  0.4339460000000  0.4287010000000  0.4537830000000 1.0
C      1  0.5898800000000  0.5336790000000  0.4627000000000 1.0
C      1  0.5116740000000  0.4085250000000  0.4678030000000 1.0
C      1  0.5153010000000  0.4170620000000  0.5080820000000 1.0
C      1  0.5829070000000  0.5393090000000  0.4905140000000 1.0
C      1  0.4524270000000  0.4908640000000  0.4648500000000 1.0
C      1  0.4819080000000  0.5431100000000  0.5011160000000 1.0
C      1  0.4967510000000  0.4619360000000  0.5005490000000 1.0
C      1  0.4333430000000  0.5446360000000  0.5155480000000 1.0
C      1  0.5161050000000  0.5615680000000  0.5605580000000 1.0
END
