TITL C-884133-6611-296 -5.49034478001005 125000 -11803.0936483221 0 0 81 (C1) n - 1
REM
REM in /home/nfs/bkarasulu/CARBON/AIRSS/Generating-Clusters/ReaxFF-fromJPCA2015/Units_Real/with-SteepDescent/Only-C1/SD-CG/Try1-3A/FIRE-CG
REM
REM
REM
REM
REM
REM ./C.cell (11c1c37f851c82e70ff6c80c92926a4b)
REM
REM compiler GCC version 9.2.1 20190827 (Red Hat 9.2.1-1)
REM options -cpp -mtune=generic -march=x86-64 -g -O0 -fpre-include=/usr/include/finclude/math-vector-fortran.h
REM seed -1233786019 1565745660 1581667337 1899130058 -1638891820 -725926468 -2081470482 -2067359204 1088951419 681740477 411086648 814683813 -799261449 71959811 1138752011 1177816580 1329478734 810327714 -1380051224 909045685 896028909 923654420 2138840689 228506652 -1769956546 -2108567768 -930935428 -1093913664 333936275 -1036838862 1459409447 2115041569 1135475830
REM
CELL 1.54180   50.00000   50.00000   50.00000   90.00000   90.00000   90.00000
LATT -1
SFAC C  
C      1  0.4864720000000  0.4294710000000  0.4682320000000 1.0
C      1  0.4924110000000  0.4384800000000  0.4980030000000 1.0
C      1  0.4249400000000  0.4783670000000  0.4571950000000 1.0
C      1  0.5388300000000  0.5175950000000  0.4275630000000 1.0
C      1  0.4191580000000  0.5039960000000  0.4683210000000 1.0
C      1  0.5438590000000  0.5257390000000  0.4737710000000 1.0
C      1  0.4512690000000  0.4937080000000  0.5620440000000 1.0
C      1  0.4824390000000  0.5620960000000  0.5085120000000 1.0
C      1  0.5659240000000  0.4784130000000  0.4804340000000 1.0
C      1  0.5317190000000  0.5461580000000  0.5485200000000 1.0
C      1  0.5247420000000  0.4946380000000  0.4164220000000 1.0
C      1  0.4313890000000  0.5282600000000  0.5331350000000 1.0
C      1  0.4247080000000  0.5187600000000  0.4936430000000 1.0
C      1  0.4723240000000  0.5297750000000  0.5653580000000 1.0
C      1  0.5350200000000  0.5186110000000  0.5425180000000 1.0
C      1  0.5088040000000  0.5648370000000  0.5468690000000 1.0
C      1  0.4822490000000  0.5148320000000  0.4257150000000 1.0
C      1  0.5664980000000  0.4903160000000  0.5292740000000 1.0
C      1  0.4965080000000  0.5408040000000  0.4253250000000 1.0
C      1  0.4828380000000  0.5741730000000  0.4619710000000 1.0
C      1  0.5499410000000  0.4854210000000  0.5044410000000 1.0
C      1  0.5496280000000  0.4393640000000  0.4872710000000 1.0
C      1  0.4433950000000  0.4337680000000  0.4873870000000 1.0
C      1  0.4429730000000  0.5324950000000  0.5104950000000 1.0
C      1  0.4631470000000  0.4284630000000  0.5078440000000 1.0
C      1  0.5540890000000  0.4696620000000  0.5465090000000 1.0
C      1  0.4540510000000  0.5624910000000  0.5027740000000 1.0
C      1  0.4436970000000  0.5214280000000  0.5578140000000 1.0
C      1  0.5711430000000  0.4507790000000  0.5006490000000 1.0
C      1  0.5031560000000  0.5420140000000  0.5033830000000 1.0
C      1  0.4843840000000  0.5563600000000  0.5618840000000 1.0
C      1  0.4736550000000  0.4871750000000  0.5792900000000 1.0
C      1  0.4620480000000  0.4883630000000  0.5324210000000 1.0
C      1  0.4508680000000  0.4810110000000  0.4885860000000 1.0
C      1  0.4875350000000  0.4718230000000  0.4398820000000 1.0
C      1  0.5755240000000  0.5389800000000  0.5224700000000 1.0
C      1  0.4930840000000  0.5059600000000  0.5663890000000 1.0
C      1  0.4934650000000  0.5102280000000  0.4685340000000 1.0
C      1  0.4766550000000  0.4386300000000  0.5676590000000 1.0
C      1  0.5025530000000  0.5790670000000  0.5210500000000 1.0
C      1  0.5452670000000  0.5679130000000  0.5020730000000 1.0
C      1  0.4998100000000  0.4332740000000  0.5279320000000 1.0
C      1  0.4327150000000  0.4603280000000  0.4926460000000 1.0
C      1  0.5220130000000  0.4818740000000  0.5052800000000 1.0
C      1  0.5111600000000  0.5778220000000  0.4701260000000 1.0
C      1  0.4657930000000  0.5144550000000  0.5176400000000 1.0
C      1  0.4931210000000  0.4815270000000  0.4680790000000 1.0
C      1  0.5519430000000  0.5558800000000  0.5280690000000 1.0
C      1  0.5027400000000  0.4662990000000  0.4900890000000 1.0
C      1  0.5147700000000  0.5253740000000  0.4815690000000 1.0
C      1  0.4771030000000  0.5514980000000  0.4448160000000 1.0
C      1  0.5236590000000  0.5084430000000  0.5659370000000 1.0
C      1  0.5490610000000  0.4692640000000  0.4571200000000 1.0
C      1  0.4578370000000  0.4341720000000  0.4624690000000 1.0
C      1  0.5100540000000  0.5008830000000  0.5228910000000 1.0
C      1  0.5372610000000  0.4426160000000  0.4624910000000 1.0
C      1  0.4412420000000  0.4562090000000  0.4493210000000 1.0
C      1  0.5312700000000  0.5626310000000  0.4554660000000 1.0
C      1  0.5331610000000  0.4802750000000  0.5663150000000 1.0
C      1  0.4858650000000  0.4601260000000  0.5823460000000 1.0
C      1  0.4950950000000  0.4891840000000  0.4196930000000 1.0
C      1  0.5508670000000  0.5544450000000  0.4758530000000 1.0
C      1  0.5651170000000  0.5173960000000  0.5393470000000 1.0
C      1  0.5070980000000  0.4581450000000  0.5417630000000 1.0
C      1  0.4601020000000  0.4247070000000  0.5345710000000 1.0
C      1  0.4920690000000  0.5193280000000  0.5135120000000 1.0
C      1  0.4435570000000  0.4730700000000  0.5153300000000 1.0
C      1  0.4978460000000  0.4512680000000  0.4354080000000 1.0
C      1  0.5135430000000  0.4590270000000  0.5707060000000 1.0
C      1  0.5456790000000  0.4882210000000  0.4349820000000 1.0
C      1  0.5246910000000  0.5421890000000  0.4347860000000 1.0
C      1  0.4452520000000  0.5071790000000  0.4765110000000 1.0
C      1  0.5689400000000  0.5102800000000  0.4775060000000 1.0
C      1  0.4705100000000  0.5222040000000  0.4527000000000 1.0
C      1  0.4926380000000  0.4842170000000  0.5386230000000 1.0
C      1  0.5571650000000  0.4504020000000  0.5253500000000 1.0
C      1  0.5099780000000  0.4324750000000  0.4516210000000 1.0
C      1  0.5782140000000  0.5292480000000  0.4955300000000 1.0
C      1  0.4571230000000  0.5780540000000  0.4785080000000 1.0
C      1  0.4809880000000  0.4232940000000  0.5476670000000 1.0
C      1  0.5205970000000  0.5822960000000  0.4978040000000 1.0
END
