TITL C-883727-9645-155 -6.70716814690869 125000 -8206.09003710643 0 0 56 (C1) n - 1
REM
REM in /home/nfs/bkarasulu/CARBON/AIRSS/Generating-Clusters/ReaxFF-fromJPCA2015/Units_Real/with-SteepDescent/Only-C1/SD-CG/Try1-3A/FIRE-CG
REM
REM
REM
REM
REM
REM ./C.cell (11c1c37f851c82e70ff6c80c92926a4b)
REM
REM compiler GCC version 9.2.1 20190827 (Red Hat 9.2.1-1)
REM options -cpp -mtune=generic -march=x86-64 -g -O0 -fpre-include=/usr/include/finclude/math-vector-fortran.h
REM seed 1081723276 -167272605 245496961 760966321 -1093754028 -518292997 -1157266858 -1153687760 -60736631 -707731689 852657807 1992929393 -1883465414 -122724632 2025680292 492298946 -699312563 -1826363011 -52514008 1308669295 -512688515 -1390425322 1506066442 1492162262 12409796 -1031070740 -1552513609 -586990596 -286686447 1824742406 -248394932 -94977559 1217636569
REM
CELL 1.54180   50.00000   50.00000   50.00000   90.00000   90.00000   90.00000
LATT -1
SFAC C  
C      1  0.4659630000000  0.5130140000000  0.4204220000000 1.0
C      1  0.4501620000000  0.4916250000000  0.4692810000000 1.0
C      1  0.4601640000000  0.5412120000000  0.4664710000000 1.0
C      1  0.5048910000000  0.5133270000000  0.5690390000000 1.0
C      1  0.5486820000000  0.4809080000000  0.5514140000000 1.0
C      1  0.4384080000000  0.5428670000000  0.5191900000000 1.0
C      1  0.4556120000000  0.5002510000000  0.5336040000000 1.0
C      1  0.4835550000000  0.4628860000000  0.4449810000000 1.0
C      1  0.4931710000000  0.4859920000000  0.5683670000000 1.0
C      1  0.5365180000000  0.4486150000000  0.5154890000000 1.0
C      1  0.4718800000000  0.5594800000000  0.4867450000000 1.0
C      1  0.4650290000000  0.4876100000000  0.5597040000000 1.0
C      1  0.4732310000000  0.4323400000000  0.5054200000000 1.0
C      1  0.4952210000000  0.5036590000000  0.4218000000000 1.0
C      1  0.4884030000000  0.4824450000000  0.5081600000000 1.0
C      1  0.4637100000000  0.5566850000000  0.5167090000000 1.0
C      1  0.4371540000000  0.4904860000000  0.5122920000000 1.0
C      1  0.5379320000000  0.5015050000000  0.5408190000000 1.0
C      1  0.5336640000000  0.5079350000000  0.5140590000000 1.0
C      1  0.5565230000000  0.4683730000000  0.5063450000000 1.0
C      1  0.4772940000000  0.4571980000000  0.5207490000000 1.0
C      1  0.4560450000000  0.4458690000000  0.4849430000000 1.0
C      1  0.5361790000000  0.4870200000000  0.4956280000000 1.0
C      1  0.5574360000000  0.5018100000000  0.4809900000000 1.0
C      1  0.5250820000000  0.5588700000000  0.4732550000000 1.0
C      1  0.5063420000000  0.4588820000000  0.5593720000000 1.0
C      1  0.4985160000000  0.5627420000000  0.4802590000000 1.0
C      1  0.5711990000000  0.4748150000000  0.5320810000000 1.0
C      1  0.4836320000000  0.5046030000000  0.5247630000000 1.0
C      1  0.5226490000000  0.4413660000000  0.4896150000000 1.0
C      1  0.4985280000000  0.4899480000000  0.4828080000000 1.0
C      1  0.5413730000000  0.5047430000000  0.4568180000000 1.0
C      1  0.4870390000000  0.5361140000000  0.5623780000000 1.0
C      1  0.5426890000000  0.5570890000000  0.4947310000000 1.0
C      1  0.4920930000000  0.4447410000000  0.5401690000000 1.0
C      1  0.4950830000000  0.4303820000000  0.4851160000000 1.0
C      1  0.5207160000000  0.5278330000000  0.4603090000000 1.0
C      1  0.5579270000000  0.5209510000000  0.5043510000000 1.0
C      1  0.5054250000000  0.4769210000000  0.4315630000000 1.0
C      1  0.4836800000000  0.5554600000000  0.5397660000000 1.0
C      1  0.5037580000000  0.5173440000000  0.4827900000000 1.0
C      1  0.5320840000000  0.4553370000000  0.4656580000000 1.0
C      1  0.4433100000000  0.5193520000000  0.4756430000000 1.0
C      1  0.5311210000000  0.4570250000000  0.5433090000000 1.0
C      1  0.5034390000000  0.5242250000000  0.5111990000000 1.0
C      1  0.4429000000000  0.4722320000000  0.4896540000000 1.0
C      1  0.5346840000000  0.5433060000000  0.5421230000000 1.0
C      1  0.5533710000000  0.5463190000000  0.5185800000000 1.0
C      1  0.4771450000000  0.4413030000000  0.4644010000000 1.0
C      1  0.5015010000000  0.5284070000000  0.4362650000000 1.0
C      1  0.4731930000000  0.5357050000000  0.4399490000000 1.0
C      1  0.4317830000000  0.5176850000000  0.5028530000000 1.0
C      1  0.4782640000000  0.4861160000000  0.4618450000000 1.0
C      1  0.5334780000000  0.5184240000000  0.5591500000000 1.0
C      1  0.5311170000000  0.4787020000000  0.4476300000000 1.0
C      1  0.5100500000000  0.5499400000000  0.5289740000000 1.0
END
