TITL C-883732-77-322 21.8335835073632 125000 -11309.38829389 0 0 78 (C1) n - 1
REM
REM in /home/nfs/bkarasulu/CARBON/AIRSS/Generating-Clusters/ReaxFF-fromJPCA2015/Units_Real/with-SteepDescent/Only-C1/SD-CG/Try1-3A/FIRE-CG
REM
REM
REM
REM
REM
REM ./C.cell (11c1c37f851c82e70ff6c80c92926a4b)
REM
REM compiler GCC version 9.2.1 20190827 (Red Hat 9.2.1-1)
REM options -cpp -mtune=generic -march=x86-64 -g -O0 -fpre-include=/usr/include/finclude/math-vector-fortran.h
REM seed 49982660 1654661988 -983075064 -1463079297 -1902993641 -1876523974 726695657 -746617876 -1603425347 83049007 -1212789489 702762458 -939607210 626612711 -1711773347 1838520706 360705466 638063027 -1559860279 -2025948766 1678253986 -292901024 741195229 -357532534 2122606656 863459680 1339026021 1463691901 -397614775 -1545042127 1530774174 -1323424489 -1292164369
REM
CELL 1.54180   50.00000   50.00000   50.00000   90.00000   90.00000   90.00000
LATT -1
SFAC C  
C      1  0.4167280000000  0.4974030000000  0.4844120000000 1.0
C      1  0.4861650000000  0.5748670000000  0.5446520000000 1.0
C      1  0.4337090000000  0.5206440000000  0.5584490000000 1.0
C      1  0.4468840000000  0.5559700000000  0.4946780000000 1.0
C      1  0.4453460000000  0.5187220000000  0.5147090000000 1.0
C      1  0.5319370000000  0.5015200000000  0.4858220000000 1.0
C      1  0.5616620000000  0.5252980000000  0.4534790000000 1.0
C      1  0.4994100000000  0.4724780000000  0.5355170000000 1.0
C      1  0.4274680000000  0.4792280000000  0.5306170000000 1.0
C      1  0.5191030000000  0.4386890000000  0.4431090000000 1.0
C      1  0.5109700000000  0.4632690000000  0.5604170000000 1.0
C      1  0.4433970000000  0.4914100000000  0.4766130000000 1.0
C      1  0.5329410000000  0.4562860000000  0.4261260000000 1.0
C      1  0.4916290000000  0.5601000000000  0.4579220000000 1.0
C      1  0.5331780000000  0.5069000000000  0.4200170000000 1.0
C      1  0.5579670000000  0.4684090000000  0.5588730000000 1.0
C      1  0.4964270000000  0.4785150000000  0.4248570000000 1.0
C      1  0.5074980000000  0.4281720000000  0.5223750000000 1.0
C      1  0.4105220000000  0.4961610000000  0.5125490000000 1.0
C      1  0.4788990000000  0.4609630000000  0.5686830000000 1.0
C      1  0.5622240000000  0.5040870000000  0.4958200000000 1.0
C      1  0.5612330000000  0.4568370000000  0.4730590000000 1.0
C      1  0.4716720000000  0.5637890000000  0.4790100000000 1.0
C      1  0.5153280000000  0.5409790000000  0.5684410000000 1.0
C      1  0.4597670000000  0.4455270000000  0.5024590000000 1.0
C      1  0.5294730000000  0.5574590000000  0.5223130000000 1.0
C      1  0.5168600000000  0.5232780000000  0.4706910000000 1.0
C      1  0.4224450000000  0.5426110000000  0.5411540000000 1.0
C      1  0.5224670000000  0.4802140000000  0.4123630000000 1.0
C      1  0.4783770000000  0.5104780000000  0.5731770000000 1.0
C      1  0.5084970000000  0.4688460000000  0.5092850000000 1.0
C      1  0.4735070000000  0.4949440000000  0.4152320000000 1.0
C      1  0.5658920000000  0.4483190000000  0.5228760000000 1.0
C      1  0.4904030000000  0.5392840000000  0.4348320000000 1.0
C      1  0.5131350000000  0.5608050000000  0.5473230000000 1.0
C      1  0.4848310000000  0.4375130000000  0.4627550000000 1.0
C      1  0.5533750000000  0.5672540000000  0.4895710000000 1.0
C      1  0.5267890000000  0.4795610000000  0.4644110000000 1.0
C      1  0.4440620000000  0.4618830000000  0.5162860000000 1.0
C      1  0.5746970000000  0.5235860000000  0.4792920000000 1.0
C      1  0.5104400000000  0.4299760000000  0.4684640000000 1.0
C      1  0.4376640000000  0.4919060000000  0.5560700000000 1.0
C      1  0.4685810000000  0.5154410000000  0.5282230000000 1.0
C      1  0.4623700000000  0.5366030000000  0.4797370000000 1.0
C      1  0.4218230000000  0.5225860000000  0.5018380000000 1.0
C      1  0.4614860000000  0.5595220000000  0.5461470000000 1.0
C      1  0.5203740000000  0.4400780000000  0.4980440000000 1.0
C      1  0.4534910000000  0.4945050000000  0.4358080000000 1.0
C      1  0.5066830000000  0.5136320000000  0.5727110000000 1.0
C      1  0.4778460000000  0.4323540000000  0.5232900000000 1.0
C      1  0.5504900000000  0.4414570000000  0.5472090000000 1.0
C      1  0.4877530000000  0.5095830000000  0.5089810000000 1.0
C      1  0.5014530000000  0.4860330000000  0.4534430000000 1.0
C      1  0.5204840000000  0.5212460000000  0.5489440000000 1.0
C      1  0.5517150000000  0.5401230000000  0.5208400000000 1.0
C      1  0.5460020000000  0.5086500000000  0.5462460000000 1.0
C      1  0.5180960000000  0.5665800000000  0.4673510000000 1.0
C      1  0.4687720000000  0.5209240000000  0.4279510000000 1.0
C      1  0.5516320000000  0.4441970000000  0.4965690000000 1.0
C      1  0.5704660000000  0.5464390000000  0.4996740000000 1.0
C      1  0.5508240000000  0.4726530000000  0.4477440000000 1.0
C      1  0.5560970000000  0.5029380000000  0.4371300000000 1.0
C      1  0.5127770000000  0.4974680000000  0.5069550000000 1.0
C      1  0.5266200000000  0.5733440000000  0.4943230000000 1.0
C      1  0.4633690000000  0.4862060000000  0.5690680000000 1.0
C      1  0.5335300000000  0.5410670000000  0.4529340000000 1.0
C      1  0.5732700000000  0.4745050000000  0.5342790000000 1.0
C      1  0.5216710000000  0.4373640000000  0.5465220000000 1.0
C      1  0.4910060000000  0.5112840000000  0.4653050000000 1.0
C      1  0.4502020000000  0.4728380000000  0.4560580000000 1.0
C      1  0.5178360000000  0.5308330000000  0.4291840000000 1.0
C      1  0.4696580000000  0.4389870000000  0.5512520000000 1.0
C      1  0.4619350000000  0.4491730000000  0.4713030000000 1.0
C      1  0.5361390000000  0.4871020000000  0.5631320000000 1.0
C      1  0.4409100000000  0.5596120000000  0.5243730000000 1.0
C      1  0.4626030000000  0.5295900000000  0.5581360000000 1.0
C      1  0.5659310000000  0.5018340000000  0.5247460000000 1.0
C      1  0.4711290000000  0.5091100000000  0.4857930000000 1.0
END
