TITL C-884127-5181-456 -11.1942864397561 125000 -9287.53168533143 0 0 64 (C1) n - 1
REM
REM in /home/nfs/bkarasulu/CARBON/AIRSS/Generating-Clusters/ReaxFF-fromJPCA2015/Units_Real/with-SteepDescent/Only-C1/SD-CG/Try1-3A/FIRE-CG
REM
REM
REM
REM
REM
REM ./C.cell (11c1c37f851c82e70ff6c80c92926a4b)
REM
REM compiler GCC version 9.2.1 20190827 (Red Hat 9.2.1-1)
REM options -cpp -mtune=generic -march=x86-64 -g -O0 -fpre-include=/usr/include/finclude/math-vector-fortran.h
REM seed 2133362823 -801353722 -2085217559 1702498819 -1116972827 1920103399 -556434616 590482115 617316085 332616389 -1811546937 -1678207876 2069111187 -827920460 -922128990 -1641034709 699297593 -1263735428 679953244 -96056384 -1074969825 -1424420505 1777614767 1386583882 -1653853860 1376190890 1771946758 -876280113 -274566826 1038271582 433675216 1266390755 489491876
REM
CELL 1.54180   50.00000   50.00000   50.00000   90.00000   90.00000   90.00000
LATT -1
SFAC C  
C      1  0.5657040000000  0.4673700000000  0.5348720000000 1.0
C      1  0.5328820000000  0.5013950000000  0.5575760000000 1.0
C      1  0.5714420000000  0.5215720000000  0.4989640000000 1.0
C      1  0.5556160000000  0.5371600000000  0.4795940000000 1.0
C      1  0.5348870000000  0.5496450000000  0.4966000000000 1.0
C      1  0.5555830000000  0.4923380000000  0.5401010000000 1.0
C      1  0.4588590000000  0.5401450000000  0.5476040000000 1.0
C      1  0.4664520000000  0.4842310000000  0.4972540000000 1.0
C      1  0.5071540000000  0.4880050000000  0.5591850000000 1.0
C      1  0.4722010000000  0.5057650000000  0.4389710000000 1.0
C      1  0.4751430000000  0.4512650000000  0.4492320000000 1.0
C      1  0.4621050000000  0.5414470000000  0.4937420000000 1.0
C      1  0.5064830000000  0.5432830000000  0.4897840000000 1.0
C      1  0.5255680000000  0.4267230000000  0.4527190000000 1.0
C      1  0.5308480000000  0.4820420000000  0.4696710000000 1.0
C      1  0.4948680000000  0.5198470000000  0.4505870000000 1.0
C      1  0.4308880000000  0.5178020000000  0.4704980000000 1.0
C      1  0.5213050000000  0.5634150000000  0.5438710000000 1.0
C      1  0.4943790000000  0.5469660000000  0.4626930000000 1.0
C      1  0.5447390000000  0.4455790000000  0.4392850000000 1.0
C      1  0.4970790000000  0.4629510000000  0.4336590000000 1.0
C      1  0.4799380000000  0.5559520000000  0.5546790000000 1.0
C      1  0.4347900000000  0.4536730000000  0.5024920000000 1.0
C      1  0.5411130000000  0.5618590000000  0.5221720000000 1.0
C      1  0.4735850000000  0.4576390000000  0.5354610000000 1.0
C      1  0.4383290000000  0.4540040000000  0.4747750000000 1.0
C      1  0.4769770000000  0.4824140000000  0.4222050000000 1.0
C      1  0.5715900000000  0.5680130000000  0.5292280000000 1.0
C      1  0.5572840000000  0.4560460000000  0.5086080000000 1.0
C      1  0.5437500000000  0.4790790000000  0.4962650000000 1.0
C      1  0.4455650000000  0.4905600000000  0.5180910000000 1.0
C      1  0.4855780000000  0.5280050000000  0.5042250000000 1.0
C      1  0.4691240000000  0.5591620000000  0.4713180000000 1.0
C      1  0.5087600000000  0.5196730000000  0.5865020000000 1.0
C      1  0.4695030000000  0.4567510000000  0.4793180000000 1.0
C      1  0.5482540000000  0.4522200000000  0.5468950000000 1.0
C      1  0.5526950000000  0.4715820000000  0.4513930000000 1.0
C      1  0.5545870000000  0.5009610000000  0.5116600000000 1.0
C      1  0.5783130000000  0.5447340000000  0.5139900000000 1.0
C      1  0.4897630000000  0.4364610000000  0.5226390000000 1.0
C      1  0.4895270000000  0.4824470000000  0.5363250000000 1.0
C      1  0.4885100000000  0.4352210000000  0.4922370000000 1.0
C      1  0.5595940000000  0.4982730000000  0.4454430000000 1.0
C      1  0.5426310000000  0.4358670000000  0.5258660000000 1.0
C      1  0.4939980000000  0.4954840000000  0.5877820000000 1.0
C      1  0.4314720000000  0.5354590000000  0.4956750000000 1.0
C      1  0.5156680000000  0.4376550000000  0.5304690000000 1.0
C      1  0.4219080000000  0.5086530000000  0.5099380000000 1.0
C      1  0.5184900000000  0.4434830000000  0.4285140000000 1.0
C      1  0.4551570000000  0.4639570000000  0.4319230000000 1.0
C      1  0.4952870000000  0.5779010000000  0.5393600000000 1.0
C      1  0.4874570000000  0.4984560000000  0.5106190000000 1.0
C      1  0.5475160000000  0.5222880000000  0.4547360000000 1.0
C      1  0.5080910000000  0.4294260000000  0.4744600000000 1.0
C      1  0.4451350000000  0.4612080000000  0.5278990000000 1.0
C      1  0.4819130000000  0.5780420000000  0.4884140000000 1.0
C      1  0.5274390000000  0.5296550000000  0.5666950000000 1.0
C      1  0.4438010000000  0.5010930000000  0.4510270000000 1.0
C      1  0.4261120000000  0.5280780000000  0.5273630000000 1.0
C      1  0.5069100000000  0.5413360000000  0.5524440000000 1.0
C      1  0.4354700000000  0.4722720000000  0.4516030000000 1.0
C      1  0.5212790000000  0.5074210000000  0.4573720000000 1.0
C      1  0.4883920000000  0.5800410000000  0.5128990000000 1.0
C      1  0.4445580000000  0.5185510000000  0.5425590000000 1.0
END
