TITL C-884128-4793-287 3.33334364025195 125000 -29486.4232412146 0 0 196 (C1) n - 1
REM
REM in /home/nfs/bkarasulu/CARBON/AIRSS/Generating-Clusters/ReaxFF-fromJPCA2015/Units_Real/with-SteepDescent/Only-C1/SD-CG/Try1-3A/FIRE-CG
REM
REM
REM
REM
REM
REM ./C.cell (11c1c37f851c82e70ff6c80c92926a4b)
REM
REM compiler GCC version 9.2.1 20190827 (Red Hat 9.2.1-1)
REM options -cpp -mtune=generic -march=x86-64 -g -O0 -fpre-include=/usr/include/finclude/math-vector-fortran.h
REM seed 345273264 -1857094795 -815686094 297581683 74750285 1393724034 1748996729 -1623979993 688272137 -1759595109 1645548687 -1432322004 667304935 -476139514 2012239513 506432167 -125987365 1317121769 -2298885 -137251191 2010883554 -183380619 1268727539 -930402613 329641833 2060818458 859595350 -2105663401 210189896 262730757 -1905574663 547836835 -1078149512
REM
CELL 1.54180   50.00000   50.00000   50.00000   90.00000   90.00000   90.00000
LATT -1
SFAC C  
C      1  0.5846900000000  0.5323020000000  0.5068390000000 1.0
C      1  0.3921720000000  0.4885330000000  0.5507750000000 1.0
C      1  0.5612470000000  0.5066850000000  0.4176460000000 1.0
C      1  0.4834140000000  0.3953770000000  0.5118450000000 1.0
C      1  0.4758590000000  0.4814750000000  0.5028730000000 1.0
C      1  0.4916930000000  0.4858690000000  0.5612270000000 1.0
C      1  0.4811630000000  0.5096390000000  0.5449180000000 1.0
C      1  0.4260020000000  0.5729300000000  0.5580370000000 1.0
C      1  0.4263160000000  0.4362340000000  0.5803430000000 1.0
C      1  0.4875310000000  0.5441470000000  0.4430920000000 1.0
C      1  0.5218080000000  0.5813630000000  0.5773130000000 1.0
C      1  0.5759980000000  0.5145550000000  0.5297580000000 1.0
C      1  0.4270120000000  0.4935210000000  0.5121990000000 1.0
C      1  0.5000210000000  0.3925670000000  0.4874730000000 1.0
C      1  0.5176070000000  0.4701790000000  0.5589230000000 1.0
C      1  0.4033640000000  0.4486390000000  0.4886640000000 1.0
C      1  0.5229920000000  0.5242040000000  0.3858410000000 1.0
C      1  0.4780440000000  0.5383810000000  0.5508460000000 1.0
C      1  0.5149730000000  0.4998770000000  0.4321740000000 1.0
C      1  0.5362500000000  0.5866830000000  0.5493810000000 1.0
C      1  0.5640770000000  0.4424260000000  0.4603510000000 1.0
C      1  0.5632030000000  0.4872380000000  0.5872330000000 1.0
C      1  0.4915390000000  0.4016070000000  0.4599430000000 1.0
C      1  0.5503770000000  0.4651280000000  0.4424560000000 1.0
C      1  0.5107290000000  0.5812770000000  0.4272330000000 1.0
C      1  0.4428920000000  0.4786120000000  0.5723410000000 1.0
C      1  0.4211340000000  0.4314020000000  0.4723360000000 1.0
C      1  0.3849840000000  0.4787910000000  0.4311330000000 1.0
C      1  0.4620130000000  0.4058160000000  0.4588660000000 1.0
C      1  0.4491070000000  0.5747970000000  0.5745620000000 1.0
C      1  0.4595360000000  0.5112260000000  0.6003920000000 1.0
C      1  0.4517810000000  0.4561600000000  0.4049420000000 1.0
C      1  0.4627010000000  0.4105420000000  0.5518730000000 1.0
C      1  0.4834320000000  0.5519740000000  0.3957050000000 1.0
C      1  0.5534500000000  0.5420470000000  0.5900560000000 1.0
C      1  0.4953170000000  0.4244650000000  0.5872940000000 1.0
C      1  0.5364460000000  0.4544970000000  0.4977750000000 1.0
C      1  0.5572040000000  0.4745150000000  0.4149450000000 1.0
C      1  0.4402930000000  0.4084840000000  0.5344070000000 1.0
C      1  0.4604870000000  0.4809110000000  0.4778170000000 1.0
C      1  0.4331260000000  0.4411190000000  0.4454510000000 1.0
C      1  0.3942740000000  0.5489480000000  0.4756510000000 1.0
C      1  0.4403660000000  0.5921520000000  0.4470770000000 1.0
C      1  0.5291890000000  0.3931230000000  0.4921860000000 1.0
C      1  0.5390160000000  0.4800670000000  0.5425710000000 1.0
C      1  0.4628190000000  0.5606380000000  0.4997510000000 1.0
C      1  0.5380170000000  0.5986690000000  0.4596090000000 1.0
C      1  0.5951610000000  0.4556280000000  0.5570490000000 1.0
C      1  0.5923450000000  0.4865500000000  0.4500350000000 1.0
C      1  0.4619960000000  0.5720810000000  0.4743200000000 1.0
C      1  0.5962160000000  0.4409010000000  0.4562900000000 1.0
C      1  0.5894870000000  0.4370210000000  0.5342370000000 1.0
C      1  0.4506590000000  0.4193510000000  0.4365270000000 1.0
C      1  0.5944970000000  0.4585670000000  0.4337690000000 1.0
C      1  0.5726430000000  0.5298470000000  0.4275510000000 1.0
C      1  0.5463270000000  0.5067230000000  0.4668750000000 1.0
C      1  0.4695630000000  0.4856510000000  0.6088560000000 1.0
C      1  0.5874910000000  0.5327950000000  0.5701470000000 1.0
C      1  0.4090440000000  0.4785760000000  0.4140580000000 1.0
C      1  0.4108850000000  0.5118020000000  0.4649460000000 1.0
C      1  0.5465460000000  0.5357810000000  0.5333490000000 1.0
C      1  0.4798180000000  0.4508490000000  0.4464060000000 1.0
C      1  0.4901490000000  0.6118870000000  0.5449390000000 1.0
C      1  0.5442290000000  0.5627130000000  0.4857140000000 1.0
C      1  0.4644960000000  0.4629050000000  0.5601760000000 1.0
C      1  0.4234820000000  0.5052330000000  0.4096270000000 1.0
C      1  0.5273050000000  0.5047170000000  0.4918430000000 1.0
C      1  0.4662440000000  0.5499890000000  0.5754720000000 1.0
C      1  0.5724360000000  0.4435310000000  0.5723540000000 1.0
C      1  0.4727510000000  0.4322700000000  0.5985290000000 1.0
C      1  0.5110450000000  0.6086780000000  0.4645140000000 1.0
C      1  0.5783610000000  0.5754270000000  0.5212840000000 1.0
C      1  0.5315570000000  0.4136790000000  0.4754870000000 1.0
C      1  0.4919730000000  0.5023500000000  0.4516680000000 1.0
C      1  0.4694770000000  0.5976670000000  0.5772580000000 1.0
C      1  0.6081130000000  0.5276450000000  0.4650740000000 1.0
C      1  0.4698560000000  0.5211080000000  0.4475220000000 1.0
C      1  0.4864750000000  0.5237950000000  0.4971460000000 1.0
C      1  0.4597060000000  0.4562230000000  0.5316710000000 1.0
C      1  0.4205470000000  0.4644230000000  0.5861280000000 1.0
C      1  0.5590830000000  0.5390400000000  0.4937750000000 1.0
C      1  0.3930970000000  0.5372400000000  0.5295120000000 1.0
C      1  0.5710670000000  0.5548690000000  0.5702120000000 1.0
C      1  0.4266510000000  0.5232560000000  0.5564920000000 1.0
C      1  0.6006650000000  0.5547900000000  0.4748660000000 1.0
C      1  0.4707610000000  0.6217140000000  0.5265810000000 1.0
C      1  0.5077090000000  0.4109540000000  0.4359170000000 1.0
C      1  0.6032180000000  0.4827680000000  0.5249290000000 1.0
C      1  0.4684010000000  0.4331860000000  0.4192590000000 1.0
C      1  0.4762540000000  0.5065240000000  0.5167820000000 1.0
C      1  0.4359200000000  0.5420500000000  0.5340920000000 1.0
C      1  0.5133750000000  0.4967170000000  0.3970470000000 1.0
C      1  0.5364450000000  0.4513850000000  0.3996180000000 1.0
C      1  0.5535810000000  0.4976190000000  0.5612090000000 1.0
C      1  0.5233880000000  0.4721880000000  0.4450000000000 1.0
C      1  0.3840990000000  0.5004880000000  0.5009160000000 1.0
C      1  0.4937270000000  0.4744020000000  0.3940540000000 1.0
C      1  0.6199690000000  0.5037260000000  0.4811000000000 1.0
C      1  0.4653220000000  0.4801280000000  0.3964880000000 1.0
C      1  0.5251020000000  0.4548160000000  0.5844290000000 1.0
C      1  0.5764860000000  0.4509070000000  0.4124060000000 1.0
C      1  0.4614870000000  0.6084210000000  0.5511740000000 1.0
C      1  0.4155620000000  0.4241480000000  0.5351300000000 1.0
C      1  0.3998910000000  0.4876820000000  0.5219910000000 1.0
C      1  0.4391390000000  0.5662360000000  0.4574650000000 1.0
C      1  0.4425250000000  0.5075700000000  0.5757870000000 1.0
C      1  0.5953660000000  0.5115650000000  0.5545540000000 1.0
C      1  0.5594790000000  0.5645150000000  0.5426210000000 1.0
C      1  0.5686990000000  0.4779880000000  0.4937040000000 1.0
C      1  0.5020410000000  0.6135080000000  0.4913350000000 1.0
C      1  0.5755910000000  0.4115610000000  0.5030270000000 1.0
C      1  0.4714940000000  0.4352110000000  0.5151610000000 1.0
C      1  0.4738400000000  0.5375520000000  0.6007280000000 1.0
C      1  0.3963610000000  0.4871770000000  0.4585950000000 1.0
C      1  0.4333140000000  0.5154850000000  0.4902020000000 1.0
C      1  0.4981740000000  0.5502980000000  0.5334040000000 1.0
C      1  0.4654810000000  0.5993230000000  0.4426390000000 1.0
C      1  0.4950340000000  0.5508810000000  0.5035730000000 1.0
C      1  0.5020370000000  0.5411950000000  0.3773090000000 1.0
C      1  0.5164210000000  0.4374790000000  0.4834280000000 1.0
C      1  0.4051430000000  0.4357030000000  0.5603260000000 1.0
C      1  0.4367270000000  0.5440720000000  0.4117430000000 1.0
C      1  0.3981320000000  0.4647840000000  0.5668040000000 1.0
C      1  0.5266480000000  0.4784200000000  0.5124940000000 1.0
C      1  0.5693940000000  0.4929920000000  0.4699440000000 1.0
C      1  0.5089780000000  0.5195880000000  0.6288860000000 1.0
C      1  0.5139100000000  0.5414520000000  0.4562770000000 1.0
C      1  0.5371190000000  0.5282170000000  0.5073110000000 1.0
C      1  0.4357560000000  0.4668230000000  0.5177440000000 1.0
C      1  0.4589190000000  0.5909680000000  0.4945230000000 1.0
C      1  0.5493420000000  0.4001150000000  0.5124930000000 1.0
C      1  0.5006380000000  0.5079660000000  0.4784520000000 1.0
C      1  0.5005160000000  0.5139450000000  0.3759860000000 1.0
C      1  0.5546040000000  0.4595000000000  0.5885850000000 1.0
C      1  0.5803470000000  0.5602910000000  0.4556160000000 1.0
C      1  0.5551260000000  0.5896390000000  0.4815960000000 1.0
C      1  0.6076640000000  0.4493220000000  0.4813370000000 1.0
C      1  0.4574410000000  0.4594030000000  0.4583170000000 1.0
C      1  0.5493620000000  0.5131260000000  0.5862450000000 1.0
C      1  0.4149840000000  0.5312680000000  0.4221950000000 1.0
C      1  0.5957960000000  0.5588910000000  0.5049160000000 1.0
C      1  0.3987090000000  0.5173900000000  0.5512100000000 1.0
C      1  0.4970820000000  0.4406410000000  0.5066100000000 1.0
C      1  0.5161450000000  0.4093920000000  0.5517160000000 1.0
C      1  0.4944080000000  0.6010050000000  0.4414300000000 1.0
C      1  0.4503610000000  0.5063160000000  0.3995690000000 1.0
C      1  0.4749170000000  0.6125960000000  0.5003520000000 1.0
C      1  0.5952620000000  0.5167630000000  0.4419540000000 1.0
C      1  0.5186010000000  0.4225500000000  0.5776090000000 1.0
C      1  0.5076230000000  0.4491320000000  0.4000620000000 1.0
C      1  0.4888000000000  0.4033440000000  0.5395610000000 1.0
C      1  0.4554530000000  0.4084120000000  0.5075110000000 1.0
C      1  0.3889300000000  0.5296030000000  0.5019590000000 1.0
C      1  0.5248160000000  0.5537420000000  0.5918060000000 1.0
C      1  0.5519940000000  0.4314310000000  0.4117450000000 1.0
C      1  0.5369560000000  0.4145610000000  0.4314190000000 1.0
C      1  0.6052290000000  0.4827840000000  0.5539510000000 1.0
C      1  0.5163080000000  0.5557800000000  0.4811670000000 1.0
C      1  0.4987620000000  0.4680480000000  0.5124640000000 1.0
C      1  0.4124660000000  0.5682360000000  0.4664710000000 1.0
C      1  0.5659590000000  0.4261660000000  0.5489070000000 1.0
C      1  0.4965540000000  0.5892510000000  0.5790460000000 1.0
C      1  0.5654330000000  0.5981140000000  0.5079970000000 1.0
C      1  0.4121770000000  0.5605260000000  0.5370090000000 1.0
C      1  0.5194510000000  0.5362520000000  0.5451770000000 1.0
C      1  0.5092740000000  0.5909500000000  0.5362840000000 1.0
C      1  0.4422290000000  0.4132930000000  0.4796380000000 1.0
C      1  0.4959840000000  0.4265870000000  0.4149100000000 1.0
C      1  0.5956350000000  0.4326550000000  0.5051270000000 1.0
C      1  0.5191860000000  0.6070630000000  0.5143470000000 1.0
C      1  0.5738360000000  0.4866040000000  0.5202960000000 1.0
C      1  0.4270310000000  0.4559030000000  0.4180560000000 1.0
C      1  0.5502930000000  0.4163960000000  0.4565150000000 1.0
C      1  0.5010460000000  0.5419460000000  0.6119230000000 1.0
C      1  0.4140430000000  0.4461330000000  0.5156060000000 1.0
C      1  0.5610500000000  0.5608760000000  0.4369060000000 1.0
C      1  0.5379680000000  0.5796790000000  0.4372920000000 1.0
C      1  0.4801900000000  0.4596130000000  0.6122770000000 1.0
C      1  0.5056550000000  0.4541980000000  0.4582150000000 1.0
C      1  0.5114900000000  0.4964860000000  0.6080120000000 1.0
C      1  0.6227590000000  0.5008670000000  0.5101070000000 1.0
C      1  0.5604440000000  0.4535170000000  0.4870760000000 1.0
C      1  0.3999740000000  0.5334540000000  0.4498450000000 1.0
C      1  0.5452240000000  0.6075260000000  0.5268230000000 1.0
C      1  0.6124070000000  0.4766870000000  0.4715350000000 1.0
C      1  0.5026440000000  0.5062150000000  0.5817520000000 1.0
C      1  0.4551770000000  0.5087040000000  0.4695260000000 1.0
C      1  0.4933200000000  0.5599490000000  0.4206070000000 1.0
C      1  0.5131850000000  0.5318650000000  0.5734690000000 1.0
C      1  0.4582980000000  0.5355710000000  0.3977660000000 1.0
C      1  0.3897130000000  0.4752970000000  0.4841520000000 1.0
C      1  0.5427430000000  0.4108280000000  0.5389290000000 1.0
C      1  0.4414490000000  0.5397510000000  0.5060150000000 1.0
C      1  0.5077280000000  0.4675470000000  0.6082100000000 1.0
C      1  0.5324590000000  0.5205070000000  0.4453730000000 1.0
C      1  0.4558230000000  0.4321020000000  0.5734590000000 1.0
END
