TITL C-883734-4173-378 77.5865626789336 125000 -24523.1761053974 0 0 167 (C1) n - 1
REM
REM in /home/nfs/bkarasulu/CARBON/AIRSS/Generating-Clusters/ReaxFF-fromJPCA2015/Units_Real/with-SteepDescent/Only-C1/SD-CG/Try1-3A/FIRE-CG
REM
REM
REM
REM
REM
REM ./C.cell (11c1c37f851c82e70ff6c80c92926a4b)
REM
REM compiler GCC version 9.2.1 20190827 (Red Hat 9.2.1-1)
REM options -cpp -mtune=generic -march=x86-64 -g -O0 -fpre-include=/usr/include/finclude/math-vector-fortran.h
REM seed -2102190309 -747974964 -565684742 -2044488813 -2009959458 -1555838810 -1373487338 -750174712 -473583964 -1650186716 2092326726 -1653720961 371501710 -1300323622 1781008002 -1589534980 -1105552910 -1420124511 1035948487 -1591669615 -2130709399 1031484571 317431635 843040253 -1995857444 -2026408311 216201774 -1569729760 -1968351087 -1710251349 1738689915 127275068 591715956
REM
CELL 1.54180   50.00000   50.00000   50.00000   90.00000   90.00000   90.00000
LATT -1
SFAC C  
C      1  0.4884860000000  0.4898490000000  0.4549800000000 1.0
C      1  0.5498170000000  0.5212060000000  0.4990190000000 1.0
C      1  0.5161680000000  0.4856200000000  0.4616440000000 1.0
C      1  0.5019850000000  0.6045490000000  0.5383630000000 1.0
C      1  0.4925420000000  0.4393860000000  0.4359410000000 1.0
C      1  0.5218730000000  0.5889270000000  0.4452240000000 1.0
C      1  0.5711100000000  0.5893120000000  0.5037480000000 1.0
C      1  0.5270600000000  0.4482680000000  0.5128450000000 1.0
C      1  0.4518980000000  0.5213450000000  0.4187970000000 1.0
C      1  0.5754110000000  0.4641100000000  0.5560900000000 1.0
C      1  0.4369810000000  0.4792030000000  0.4014700000000 1.0
C      1  0.4821820000000  0.5242250000000  0.6029330000000 1.0
C      1  0.5438910000000  0.5304880000000  0.4712260000000 1.0
C      1  0.5159600000000  0.3762840000000  0.4873620000000 1.0
C      1  0.4628700000000  0.5022010000000  0.6044640000000 1.0
C      1  0.3882480000000  0.5275910000000  0.4950210000000 1.0
C      1  0.4642610000000  0.4060870000000  0.5443750000000 1.0
C      1  0.5408840000000  0.5021300000000  0.4594690000000 1.0
C      1  0.4264540000000  0.4225580000000  0.5134970000000 1.0
C      1  0.4377610000000  0.5290520000000  0.5823910000000 1.0
C      1  0.5775130000000  0.5850000000000  0.5324080000000 1.0
C      1  0.4283730000000  0.5416810000000  0.4667670000000 1.0
C      1  0.5086940000000  0.3908960000000  0.5341130000000 1.0
C      1  0.4796340000000  0.5125180000000  0.4692980000000 1.0
C      1  0.5193180000000  0.4768500000000  0.5125530000000 1.0
C      1  0.4224070000000  0.5344410000000  0.5570110000000 1.0
C      1  0.5033670000000  0.5197870000000  0.4042920000000 1.0
C      1  0.4742320000000  0.4625120000000  0.4484600000000 1.0
C      1  0.5556380000000  0.5336150000000  0.4135820000000 1.0
C      1  0.4256370000000  0.5157870000000  0.4268030000000 1.0
C      1  0.5778040000000  0.5623170000000  0.5523800000000 1.0
C      1  0.5610270000000  0.4849500000000  0.4763650000000 1.0
C      1  0.5278470000000  0.5049170000000  0.5099290000000 1.0
C      1  0.4574280000000  0.5001080000000  0.3967420000000 1.0
C      1  0.5220160000000  0.4581310000000  0.4681010000000 1.0
C      1  0.5612220000000  0.4314490000000  0.4600980000000 1.0
C      1  0.4498290000000  0.4565090000000  0.5854380000000 1.0
C      1  0.4209480000000  0.4865900000000  0.4248630000000 1.0
C      1  0.6086510000000  0.5225370000000  0.4850220000000 1.0
C      1  0.4862350000000  0.5161390000000  0.4983760000000 1.0
C      1  0.4767390000000  0.4846980000000  0.5907870000000 1.0
C      1  0.5698780000000  0.5355520000000  0.5140530000000 1.0
C      1  0.5349700000000  0.4029740000000  0.5399890000000 1.0
C      1  0.4685820000000  0.4047620000000  0.4676440000000 1.0
C      1  0.4702290000000  0.4579380000000  0.4755650000000 1.0
C      1  0.5516230000000  0.5993100000000  0.4836450000000 1.0
C      1  0.5493640000000  0.5895100000000  0.4559290000000 1.0
C      1  0.5117320000000  0.4455150000000  0.4146610000000 1.0
C      1  0.5125840000000  0.5865110000000  0.5605620000000 1.0
C      1  0.5603180000000  0.5005320000000  0.5343490000000 1.0
C      1  0.4567210000000  0.5790100000000  0.4353280000000 1.0
C      1  0.5661110000000  0.5101740000000  0.5782030000000 1.0
C      1  0.4202380000000  0.4735990000000  0.5448720000000 1.0
C      1  0.4330640000000  0.4323970000000  0.4443570000000 1.0
C      1  0.4712460000000  0.3933430000000  0.4939170000000 1.0
C      1  0.4448650000000  0.4267210000000  0.5506910000000 1.0
C      1  0.5508050000000  0.5946470000000  0.5397550000000 1.0
C      1  0.5955950000000  0.5325010000000  0.4629380000000 1.0
C      1  0.5546380000000  0.4619660000000  0.4156010000000 1.0
C      1  0.4797150000000  0.4934620000000  0.5631970000000 1.0
C      1  0.4399850000000  0.5361790000000  0.5120100000000 1.0
C      1  0.4256560000000  0.5635580000000  0.5467760000000 1.0
C      1  0.4765580000000  0.4588730000000  0.5982410000000 1.0
C      1  0.5476510000000  0.4079620000000  0.5143970000000 1.0
C      1  0.5886260000000  0.4783370000000  0.4663950000000 1.0
C      1  0.4953500000000  0.3817450000000  0.5066450000000 1.0
C      1  0.4323370000000  0.4775560000000  0.5713490000000 1.0
C      1  0.5701850000000  0.4855780000000  0.4209400000000 1.0
C      1  0.4965130000000  0.5518430000000  0.4635490000000 1.0
C      1  0.5234100000000  0.5276020000000  0.5978820000000 1.0
C      1  0.5646100000000  0.5673590000000  0.4453850000000 1.0
C      1  0.4711130000000  0.5594680000000  0.5633820000000 1.0
C      1  0.5311270000000  0.4044150000000  0.4893410000000 1.0
C      1  0.4931230000000  0.4108020000000  0.5459960000000 1.0
C      1  0.5408210000000  0.4089430000000  0.4622450000000 1.0
C      1  0.5240170000000  0.6103480000000  0.4893640000000 1.0
C      1  0.4297680000000  0.5642030000000  0.5177850000000 1.0
C      1  0.4435050000000  0.4182060000000  0.4663060000000 1.0
C      1  0.4909890000000  0.4136130000000  0.4479200000000 1.0
C      1  0.4741920000000  0.4956210000000  0.5148510000000 1.0
C      1  0.5194820000000  0.4068110000000  0.4423570000000 1.0
C      1  0.4512350000000  0.4498020000000  0.4337180000000 1.0
C      1  0.5302980000000  0.4766130000000  0.5741460000000 1.0
C      1  0.4535320000000  0.5009620000000  0.4744390000000 1.0
C      1  0.6073090000000  0.5017080000000  0.5357360000000 1.0
C      1  0.5409200000000  0.5837330000000  0.5661680000000 1.0
C      1  0.4378230000000  0.5010770000000  0.5888110000000 1.0
C      1  0.5587940000000  0.4351620000000  0.5149110000000 1.0
C      1  0.5564320000000  0.5591780000000  0.5716380000000 1.0
C      1  0.4561780000000  0.5883920000000  0.4768670000000 1.0
C      1  0.5474440000000  0.5599450000000  0.4214760000000 1.0
C      1  0.4147140000000  0.4474560000000  0.4599400000000 1.0
C      1  0.5625450000000  0.4398150000000  0.5469620000000 1.0
C      1  0.5052860000000  0.5797710000000  0.5223960000000 1.0
C      1  0.3994070000000  0.5499240000000  0.4769000000000 1.0
C      1  0.5044730000000  0.5995230000000  0.4673270000000 1.0
C      1  0.4644060000000  0.5409590000000  0.5849910000000 1.0
C      1  0.5074700000000  0.5090210000000  0.6071520000000 1.0
C      1  0.4859150000000  0.4391680000000  0.4881150000000 1.0
C      1  0.5313890000000  0.4243010000000  0.4213400000000 1.0
C      1  0.5487620000000  0.5062690000000  0.4260790000000 1.0
C      1  0.5315790000000  0.5803490000000  0.5244540000000 1.0
C      1  0.4542070000000  0.4086460000000  0.5145070000000 1.0
C      1  0.4927770000000  0.4761910000000  0.5218640000000 1.0
C      1  0.4995160000000  0.5121070000000  0.5588110000000 1.0
C      1  0.5958320000000  0.4557630000000  0.4840360000000 1.0
C      1  0.4068890000000  0.4971160000000  0.4687830000000 1.0
C      1  0.5175500000000  0.5438480000000  0.4814130000000 1.0
C      1  0.5760180000000  0.4357650000000  0.4887230000000 1.0
C      1  0.4862050000000  0.5772590000000  0.4714400000000 1.0
C      1  0.5157880000000  0.6169190000000  0.5159840000000 1.0
C      1  0.4261830000000  0.4358010000000  0.4872580000000 1.0
C      1  0.4291450000000  0.4477420000000  0.5284730000000 1.0
C      1  0.4553370000000  0.4759100000000  0.4910830000000 1.0
C      1  0.4439210000000  0.5223820000000  0.5369630000000 1.0
C      1  0.5065450000000  0.4526310000000  0.6001850000000 1.0
C      1  0.5183170000000  0.5677280000000  0.4254980000000 1.0
C      1  0.4836490000000  0.4519000000000  0.5315010000000 1.0
C      1  0.6107550000000  0.5130790000000  0.5091800000000 1.0
C      1  0.5020120000000  0.5381300000000  0.5055330000000 1.0
C      1  0.4717710000000  0.4342460000000  0.5126570000000 1.0
C      1  0.5072270000000  0.4395920000000  0.5384130000000 1.0
C      1  0.4568890000000  0.6030290000000  0.4510720000000 1.0
C      1  0.5009020000000  0.5586300000000  0.5565890000000 1.0
C      1  0.4695020000000  0.5633880000000  0.4124950000000 1.0
C      1  0.4768280000000  0.5374570000000  0.4450780000000 1.0
C      1  0.5230260000000  0.4987140000000  0.4081540000000 1.0
C      1  0.5561760000000  0.4363340000000  0.4292190000000 1.0
C      1  0.4434610000000  0.4539510000000  0.4123520000000 1.0
C      1  0.4679470000000  0.6130710000000  0.4754100000000 1.0
C      1  0.5146620000000  0.4383490000000  0.4876670000000 1.0
C      1  0.6001690000000  0.5132100000000  0.4474670000000 1.0
C      1  0.5979350000000  0.4739330000000  0.5386140000000 1.0
C      1  0.4123990000000  0.4745680000000  0.4509370000000 1.0
C      1  0.5708630000000  0.5450510000000  0.4623890000000 1.0
C      1  0.5265110000000  0.4698210000000  0.4077780000000 1.0
C      1  0.5431260000000  0.4237480000000  0.5613540000000 1.0
C      1  0.4146050000000  0.5209210000000  0.4528200000000 1.0
C      1  0.4405150000000  0.5242270000000  0.4864480000000 1.0
C      1  0.4844660000000  0.5029640000000  0.3968810000000 1.0
C      1  0.4057030000000  0.4930070000000  0.5289730000000 1.0
C      1  0.5680070000000  0.4860570000000  0.5108820000000 1.0
C      1  0.5172710000000  0.4794300000000  0.6000300000000 1.0
C      1  0.5345730000000  0.5136340000000  0.5366110000000 1.0
C      1  0.5159240000000  0.4541890000000  0.5607140000000 1.0
C      1  0.4958810000000  0.5498140000000  0.4177610000000 1.0
C      1  0.5906090000000  0.4701520000000  0.5103000000000 1.0
C      1  0.3983360000000  0.5164040000000  0.5444030000000 1.0
C      1  0.5485180000000  0.5331930000000  0.5855070000000 1.0
C      1  0.4922030000000  0.5570880000000  0.5270900000000 1.0
C      1  0.4608860000000  0.5009150000000  0.5405760000000 1.0
C      1  0.3858100000000  0.5288060000000  0.5230510000000 1.0
C      1  0.5599310000000  0.4826980000000  0.5735760000000 1.0
C      1  0.5220970000000  0.4344320000000  0.5803750000000 1.0
C      1  0.5874930000000  0.5390760000000  0.5378050000000 1.0
C      1  0.4510690000000  0.5775750000000  0.5506110000000 1.0
C      1  0.4492950000000  0.5864440000000  0.5209690000000 1.0
C      1  0.3992460000000  0.5005610000000  0.4967310000000 1.0
C      1  0.4568880000000  0.4334720000000  0.5735810000000 1.0
C      1  0.5828790000000  0.5124030000000  0.5526250000000 1.0
C      1  0.4509880000000  0.5429400000000  0.4103600000000 1.0
C      1  0.5936800000000  0.4878640000000  0.4386160000000 1.0
C      1  0.5169270000000  0.5289930000000  0.5550130000000 1.0
C      1  0.5498800000000  0.4590200000000  0.4674560000000 1.0
C      1  0.4555390000000  0.5559810000000  0.4530400000000 1.0
C      1  0.4597230000000  0.6046280000000  0.5018420000000 1.0
C      1  0.4334140000000  0.4607040000000  0.5022970000000 1.0
END
