TITL C-883732-77-92 8.82195365848235 125000 -19429.7951311134 0 0 131 (C1) n - 1
REM
REM in /home/nfs/bkarasulu/CARBON/AIRSS/Generating-Clusters/ReaxFF-fromJPCA2015/Units_Real/with-SteepDescent/Only-C1/SD-CG/Try1-3A/FIRE-CG
REM
REM
REM
REM
REM
REM ./C.cell (11c1c37f851c82e70ff6c80c92926a4b)
REM
REM compiler GCC version 9.2.1 20190827 (Red Hat 9.2.1-1)
REM options -cpp -mtune=generic -march=x86-64 -g -O0 -fpre-include=/usr/include/finclude/math-vector-fortran.h
REM seed 808545624 1308273051 -379486182 1557218063 2065486265 178406443 2045902686 -1996828603 831119568 -1258039573 1198250622 1191327547 1602419707 524003929 491080112 -174473012 193401588 1760001451 -965539911 -1381742594 40280441 1051976460 -592009212 -1775686205 1516933990 -996775883 -316640689 1740927307 -2093383008 702304819 -1873717447 -1548004037 28695234
REM
CELL 1.54180   50.00000   50.00000   50.00000   90.00000   90.00000   90.00000
LATT -1
SFAC C  
C      1  0.4855580000000  0.4787110000000  0.4167280000000 1.0
C      1  0.5364850000000  0.5892870000000  0.5330340000000 1.0
C      1  0.4531810000000  0.4158560000000  0.5167740000000 1.0
C      1  0.4381940000000  0.4681560000000  0.5307210000000 1.0
C      1  0.4985270000000  0.4196840000000  0.4489260000000 1.0
C      1  0.5392380000000  0.4840340000000  0.4689370000000 1.0
C      1  0.4116420000000  0.5069320000000  0.4817780000000 1.0
C      1  0.4806070000000  0.4318790000000  0.4307550000000 1.0
C      1  0.4724450000000  0.5752250000000  0.4464400000000 1.0
C      1  0.4230100000000  0.4919530000000  0.5264610000000 1.0
C      1  0.5066530000000  0.5526200000000  0.4177310000000 1.0
C      1  0.4079820000000  0.4958100000000  0.4540950000000 1.0
C      1  0.5865690000000  0.4898260000000  0.4742010000000 1.0
C      1  0.4820100000000  0.4124220000000  0.4719130000000 1.0
C      1  0.4439890000000  0.5824440000000  0.4895430000000 1.0
C      1  0.5017470000000  0.5529450000000  0.4983160000000 1.0
C      1  0.5915960000000  0.4771800000000  0.5041950000000 1.0
C      1  0.5122330000000  0.5939280000000  0.4781370000000 1.0
C      1  0.4949270000000  0.4891860000000  0.4410920000000 1.0
C      1  0.4601220000000  0.4175510000000  0.5454990000000 1.0
C      1  0.5032840000000  0.5156210000000  0.4405560000000 1.0
C      1  0.4627790000000  0.5239740000000  0.4048090000000 1.0
C      1  0.4486370000000  0.5696300000000  0.5450690000000 1.0
C      1  0.4968540000000  0.6060310000000  0.4972430000000 1.0
C      1  0.4345920000000  0.5182590000000  0.5273210000000 1.0
C      1  0.4251890000000  0.4712190000000  0.4531270000000 1.0
C      1  0.5231750000000  0.4578370000000  0.5860320000000 1.0
C      1  0.5201360000000  0.4833390000000  0.3930570000000 1.0
C      1  0.4773510000000  0.5791730000000  0.5416800000000 1.0
C      1  0.4544320000000  0.5184570000000  0.5477670000000 1.0
C      1  0.5903760000000  0.5197470000000  0.4600680000000 1.0
C      1  0.4877520000000  0.4085990000000  0.5402650000000 1.0
C      1  0.4925610000000  0.5021930000000  0.5886610000000 1.0
C      1  0.5428690000000  0.4209690000000  0.4778580000000 1.0
C      1  0.4204160000000  0.5266670000000  0.5684940000000 1.0
C      1  0.4693920000000  0.4933720000000  0.4979740000000 1.0
C      1  0.4893930000000  0.5301650000000  0.4040960000000 1.0
C      1  0.4148050000000  0.4842510000000  0.5001980000000 1.0
C      1  0.5082850000000  0.4827030000000  0.4659250000000 1.0
C      1  0.4817890000000  0.5312510000000  0.4898380000000 1.0
C      1  0.5496710000000  0.5197240000000  0.5801470000000 1.0
C      1  0.4228880000000  0.5347750000000  0.4817540000000 1.0
C      1  0.4955530000000  0.5329690000000  0.5937110000000 1.0
C      1  0.4551130000000  0.4347170000000  0.4426200000000 1.0
C      1  0.5589540000000  0.5009770000000  0.4802450000000 1.0
C      1  0.5396340000000  0.5318750000000  0.5125480000000 1.0
C      1  0.4592720000000  0.4630240000000  0.5510750000000 1.0
C      1  0.4624750000000  0.4984530000000  0.5918280000000 1.0
C      1  0.5821690000000  0.4877770000000  0.5504260000000 1.0
C      1  0.5016510000000  0.4667390000000  0.5185700000000 1.0
C      1  0.4975030000000  0.4173040000000  0.4953060000000 1.0
C      1  0.4378460000000  0.5038900000000  0.4092270000000 1.0
C      1  0.4667830000000  0.6011950000000  0.4928800000000 1.0
C      1  0.4424080000000  0.4329680000000  0.4953990000000 1.0
C      1  0.4397500000000  0.4758140000000  0.4136040000000 1.0
C      1  0.5353350000000  0.4920600000000  0.5502530000000 1.0
C      1  0.4571610000000  0.4722530000000  0.6024210000000 1.0
C      1  0.5536900000000  0.5023370000000  0.4294360000000 1.0
C      1  0.4619200000000  0.5488250000000  0.4475210000000 1.0
C      1  0.4590470000000  0.5929150000000  0.4663640000000 1.0
C      1  0.5788690000000  0.4519420000000  0.5098690000000 1.0
C      1  0.5461820000000  0.5597960000000  0.4674670000000 1.0
C      1  0.5975060000000  0.5378680000000  0.4956070000000 1.0
C      1  0.5169050000000  0.6014420000000  0.5184220000000 1.0
C      1  0.5588700000000  0.4729080000000  0.4340840000000 1.0
C      1  0.5060920000000  0.4548030000000  0.4689820000000 1.0
C      1  0.4288920000000  0.4568460000000  0.5059450000000 1.0
C      1  0.4401360000000  0.5331550000000  0.4582550000000 1.0
C      1  0.5648750000000  0.4450740000000  0.5343190000000 1.0
C      1  0.4970730000000  0.5016770000000  0.4896330000000 1.0
C      1  0.4513050000000  0.4808770000000  0.4637460000000 1.0
C      1  0.5817780000000  0.5434500000000  0.4732530000000 1.0
C      1  0.4558760000000  0.4253750000000  0.4698490000000 1.0
C      1  0.5816200000000  0.5453000000000  0.5325300000000 1.0
C      1  0.5032720000000  0.5136120000000  0.5364960000000 1.0
C      1  0.5426880000000  0.4829950000000  0.5247610000000 1.0
C      1  0.4182600000000  0.5060310000000  0.4298590000000 1.0
C      1  0.4830260000000  0.4596160000000  0.6059980000000 1.0
C      1  0.5056780000000  0.4935330000000  0.5582960000000 1.0
C      1  0.5372590000000  0.4517070000000  0.4313260000000 1.0
C      1  0.5348410000000  0.5462220000000  0.4208160000000 1.0
C      1  0.5352040000000  0.4297830000000  0.5271310000000 1.0
C      1  0.5689040000000  0.4627320000000  0.5569200000000 1.0
C      1  0.5228080000000  0.5790540000000  0.4580060000000 1.0
C      1  0.4917360000000  0.4506600000000  0.4128780000000 1.0
C      1  0.5288610000000  0.4580800000000  0.5188790000000 1.0
C      1  0.5954470000000  0.4951850000000  0.5256240000000 1.0
C      1  0.4559760000000  0.5086220000000  0.4562040000000 1.0
C      1  0.5718690000000  0.5237740000000  0.4379590000000 1.0
C      1  0.4354030000000  0.4539600000000  0.4309490000000 1.0
C      1  0.4419740000000  0.5080680000000  0.5728830000000 1.0
C      1  0.4293260000000  0.5584250000000  0.4987200000000 1.0
C      1  0.5599360000000  0.5075090000000  0.5556760000000 1.0
C      1  0.5005520000000  0.5718570000000  0.4385660000000 1.0
C      1  0.5989810000000  0.5259060000000  0.5214460000000 1.0
C      1  0.5557690000000  0.5492260000000  0.4414680000000 1.0
C      1  0.5421660000000  0.4942410000000  0.5904940000000 1.0
C      1  0.4924890000000  0.5667550000000  0.5206160000000 1.0
C      1  0.5682960000000  0.5654640000000  0.5290850000000 1.0
C      1  0.4154370000000  0.5388320000000  0.5434570000000 1.0
C      1  0.4544320000000  0.4393510000000  0.5630210000000 1.0
C      1  0.5498960000000  0.4686360000000  0.5806340000000 1.0
C      1  0.4960230000000  0.5714310000000  0.5624040000000 1.0
C      1  0.4795330000000  0.4035660000000  0.5119910000000 1.0
C      1  0.4727040000000  0.5453720000000  0.5842340000000 1.0
C      1  0.4621490000000  0.4460080000000  0.5890340000000 1.0
C      1  0.5507530000000  0.5696490000000  0.5483860000000 1.0
C      1  0.5497570000000  0.4610420000000  0.4753020000000 1.0
C      1  0.5311350000000  0.5492200000000  0.4903780000000 1.0
C      1  0.5203720000000  0.4566310000000  0.4090040000000 1.0
C      1  0.5063990000000  0.4458070000000  0.5639980000000 1.0
C      1  0.5289060000000  0.5178850000000  0.4262670000000 1.0
C      1  0.5058260000000  0.4768040000000  0.6008700000000 1.0
C      1  0.5834030000000  0.4711410000000  0.4497710000000 1.0
C      1  0.4898120000000  0.4662290000000  0.5489830000000 1.0
C      1  0.5239330000000  0.4354530000000  0.4545590000000 1.0
C      1  0.4962330000000  0.4991360000000  0.3976250000000 1.0
C      1  0.4886890000000  0.4519020000000  0.4923650000000 1.0
C      1  0.5120360000000  0.4228670000000  0.5478860000000 1.0
C      1  0.5280190000000  0.4157030000000  0.5011360000000 1.0
C      1  0.4608100000000  0.5189720000000  0.5071040000000 1.0
C      1  0.5646280000000  0.4405360000000  0.4844550000000 1.0
C      1  0.4803690000000  0.5271670000000  0.4554060000000 1.0
C      1  0.5483370000000  0.5050110000000  0.5063330000000 1.0
C      1  0.5054720000000  0.4946950000000  0.5153340000000 1.0
C      1  0.5241170000000  0.5337450000000  0.5376770000000 1.0
C      1  0.5357770000000  0.5435410000000  0.5637250000000 1.0
C      1  0.4557240000000  0.5459870000000  0.5607900000000 1.0
C      1  0.5119840000000  0.5551870000000  0.5798240000000 1.0
C      1  0.4642860000000  0.4680440000000  0.4863020000000 1.0
C      1  0.4267510000000  0.5612370000000  0.5280770000000 1.0
END
