TITL C-884138-6203-39 2935935.19075309 125000 -16437.4983671994 0 0 112 (C1) n - 1
REM
REM in /home/nfs/bkarasulu/CARBON/AIRSS/Generating-Clusters/ReaxFF-fromJPCA2015/Units_Real/with-SteepDescent/Only-C1/SD-CG/Try1-3A/FIRE-CG
REM
REM
REM
REM
REM
REM ./C.cell (11c1c37f851c82e70ff6c80c92926a4b)
REM
REM compiler GCC version 9.2.1 20190827 (Red Hat 9.2.1-1)
REM options -cpp -mtune=generic -march=x86-64 -g -O0 -fpre-include=/usr/include/finclude/math-vector-fortran.h
REM seed 1905177986 1871818158 440432956 -1887514700 -1527129512 1263599712 -425215826 -551452505 -1379964756 -167964537 1364297434 1774764966 1087687898 1481993172 701810993 -1168084185 862543429 680739792 1400906840 -1021390028 242449825 -2017159386 -737616141 1811450603 -1878224286 177786978 -1005176802 601413422 1811484312 -753856607 -511163536 2108966631 -24489857
REM
CELL 1.54180   50.00000   50.00000   50.00000   90.00000   90.00000   90.00000
LATT -1
SFAC C  
C      1  0.5746340000000  0.4710830000000  0.5653930000000 1.0
C      1  0.4840190000000  0.4185540000000  0.5239760000000 1.0
C      1  0.5683830000000  0.5530080000000  0.5200990000000 1.0
C      1  0.4835150000000  0.4285560000000  0.5520150000000 1.0
C      1  0.5413990000000  0.4488750000000  0.4624090000000 1.0
C      1  0.5031160000000  0.4844820000000  0.5882190000000 1.0
C      1  0.5139760000000  0.5956640000000  0.4928490000000 1.0
C      1  0.5276410000000  0.4923280000000  0.5154480000000 1.0
C      1  0.5567920000000  0.5280630000000  0.4291740000000 1.0
C      1  0.5117900000000  0.5296700000000  0.4170790000000 1.0
C      1  0.5450590000000  0.4458510000000  0.5382580000000 1.0
C      1  0.4405550000000  0.4588620000000  0.5365890000000 1.0
C      1  0.5734910000000  0.4527850000000  0.5422260000000 1.0
C      1  0.4578340000000  0.4446150000000  0.5592610000000 1.0
C      1  0.4497060000000  0.5620780000000  0.5444210000000 1.0
C      1  0.4734860000000  0.5193040000000  0.4816480000000 1.0
C      1  0.5358220000000  0.5342870000000  0.4863580000000 1.0
C      1  0.5495310000000  0.5758160000000  0.5278510000000 1.0
C      1  0.4032950000000  0.4919420000000  0.4835830000000 1.0
C      1  0.4575120000000  0.4820270000000  0.5263540000000 1.0
C      1  0.5578850000000  0.4353390000000  0.4830940000000 1.0
C      1  0.4857540000000  0.4474270000000  0.4326850000000 1.0
C      1  0.4627570000000  0.4217920000000  0.5041380000000 1.0
C      1  0.5677140000000  0.5006090000000  0.5642220000000 1.0
C      1  0.5025680000000  0.4044340000000  0.4748910000000 1.0
C      1  0.5189430000000  0.5088320000000  0.5911900000000 1.0
C      1  0.4289240000000  0.5515860000000  0.5238360000000 1.0
C      1  0.5345450000000  0.5712120000000  0.5517130000000 1.0
C      1  0.4636510000000  0.5818970000000  0.5286130000000 1.0
C      1  0.4447980000000  0.4526960000000  0.4586650000000 1.0
C      1  0.5043000000000  0.5322370000000  0.5814840000000 1.0
C      1  0.5696930000000  0.4834970000000  0.4434450000000 1.0
C      1  0.4741480000000  0.4808240000000  0.5959660000000 1.0
C      1  0.5195760000000  0.5487910000000  0.5598060000000 1.0
C      1  0.4754140000000  0.5289310000000  0.5801190000000 1.0
C      1  0.5051560000000  0.4687330000000  0.4222460000000 1.0
C      1  0.4288780000000  0.4827640000000  0.4873040000000 1.0
C      1  0.5366880000000  0.5470460000000  0.4225990000000 1.0
C      1  0.5765560000000  0.5131200000000  0.5415200000000 1.0
C      1  0.4547730000000  0.4968010000000  0.4868090000000 1.0
C      1  0.4722750000000  0.5450380000000  0.5558550000000 1.0
C      1  0.5151470000000  0.5271900000000  0.4665470000000 1.0
C      1  0.5497250000000  0.5548120000000  0.4672310000000 1.0
C      1  0.5778790000000  0.5415830000000  0.4951610000000 1.0
C      1  0.5816630000000  0.4388090000000  0.5174780000000 1.0
C      1  0.5034680000000  0.5158440000000  0.4425230000000 1.0
C      1  0.4592250000000  0.5040840000000  0.5861390000000 1.0
C      1  0.4954390000000  0.5485820000000  0.4643000000000 1.0
C      1  0.4549480000000  0.5476970000000  0.4398710000000 1.0
C      1  0.5846720000000  0.5237190000000  0.4734770000000 1.0
C      1  0.4938910000000  0.4538880000000  0.4994480000000 1.0
C      1  0.4772070000000  0.5289540000000  0.4529170000000 1.0
C      1  0.4957620000000  0.5942450000000  0.4687430000000 1.0
C      1  0.5356050000000  0.4414050000000  0.5673070000000 1.0
C      1  0.5241500000000  0.5763440000000  0.5119320000000 1.0
C      1  0.5435590000000  0.4950260000000  0.5816910000000 1.0
C      1  0.4322630000000  0.4529200000000  0.4856490000000 1.0
C      1  0.5073560000000  0.4293540000000  0.5093040000000 1.0
C      1  0.4416790000000  0.4409480000000  0.5095500000000 1.0
C      1  0.5841810000000  0.4476490000000  0.4896810000000 1.0
C      1  0.4947150000000  0.5251480000000  0.3964430000000 1.0
C      1  0.5500000000000  0.4663500000000  0.5796320000000 1.0
C      1  0.5775810000000  0.5019310000000  0.5163170000000 1.0
C      1  0.4515720000000  0.5129870000000  0.4172740000000 1.0
C      1  0.4636870000000  0.4623110000000  0.4201500000000 1.0
C      1  0.4835060000000  0.4709600000000  0.5199440000000 1.0
C      1  0.5339770000000  0.5656490000000  0.4450490000000 1.0
C      1  0.5247470000000  0.4149270000000  0.4906840000000 1.0
C      1  0.4107310000000  0.5055900000000  0.5389060000000 1.0
C      1  0.4090110000000  0.5300370000000  0.5207870000000 1.0
C      1  0.4637360000000  0.5712820000000  0.4530600000000 1.0
C      1  0.4979710000000  0.4639180000000  0.5419460000000 1.0
C      1  0.4985440000000  0.4689380000000  0.4759750000000 1.0
C      1  0.4726910000000  0.5071430000000  0.3983600000000 1.0
C      1  0.5592850000000  0.5336600000000  0.5410950000000 1.0
C      1  0.4377950000000  0.5555720000000  0.4971040000000 1.0
C      1  0.5545000000000  0.4286930000000  0.5126030000000 1.0
C      1  0.5847030000000  0.4935330000000  0.4664300000000 1.0
C      1  0.4562760000000  0.5088530000000  0.5353160000000 1.0
C      1  0.4337510000000  0.4969680000000  0.5726930000000 1.0
C      1  0.5936510000000  0.4888910000000  0.5056340000000 1.0
C      1  0.5526390000000  0.4991690000000  0.4261720000000 1.0
C      1  0.5707690000000  0.5397660000000  0.4535380000000 1.0
C      1  0.4778970000000  0.5281820000000  0.5318720000000 1.0
C      1  0.4749610000000  0.4183860000000  0.4767210000000 1.0
C      1  0.5522170000000  0.4612220000000  0.4400780000000 1.0
C      1  0.4433350000000  0.4732750000000  0.4385990000000 1.0
C      1  0.4687300000000  0.5854240000000  0.4762010000000 1.0
C      1  0.5294080000000  0.5340590000000  0.5362650000000 1.0
C      1  0.5490170000000  0.5065350000000  0.5008130000000 1.0
C      1  0.4859670000000  0.5392060000000  0.5059800000000 1.0
C      1  0.5095800000000  0.4330090000000  0.5644860000000 1.0
C      1  0.3808430000000  0.5090520000000  0.4811760000000 1.0
C      1  0.5258460000000  0.4695880000000  0.4723220000000 1.0
C      1  0.4696520000000  0.4371450000000  0.4554850000000 1.0
C      1  0.4328810000000  0.5305220000000  0.4496340000000 1.0
C      1  0.4008680000000  0.5317920000000  0.4924740000000 1.0
C      1  0.5948620000000  0.4741720000000  0.4841960000000 1.0
C      1  0.4237470000000  0.5397460000000  0.4762280000000 1.0
C      1  0.4802670000000  0.4906830000000  0.4793240000000 1.0
C      1  0.4332600000000  0.5191410000000  0.5531400000000 1.0
C      1  0.5336280000000  0.4760700000000  0.4243480000000 1.0
C      1  0.5055370000000  0.5725570000000  0.4507600000000 1.0
C      1  0.4351050000000  0.5027900000000  0.4364920000000 1.0
C      1  0.5058000000000  0.4822150000000  0.5596110000000 1.0
C      1  0.5387190000000  0.4817010000000  0.4921630000000 1.0
C      1  0.4645400000000  0.4616350000000  0.5783550000000 1.0
C      1  0.5169190000000  0.5446710000000  0.5104940000000 1.0
C      1  0.5250720000000  0.4747060000000  0.5381840000000 1.0
C      1  0.4833000000000  0.4790450000000  0.4058220000000 1.0
C      1  0.4663010000000  0.5663890000000  0.5010960000000 1.0
C      1  0.4215280000000  0.4802940000000  0.5502120000000 1.0
END
