TITL C-884134-5972-10 182063.505879799 125000 -25028.6537845894 0 0 166 (C1) n - 1
REM
REM in /home/nfs/bkarasulu/CARBON/AIRSS/Generating-Clusters/ReaxFF-fromJPCA2015/Units_Real/with-SteepDescent/Only-C1/SD-CG/Try1-3A/FIRE-CG
REM
REM
REM
REM
REM
REM ./C.cell (11c1c37f851c82e70ff6c80c92926a4b)
REM
REM compiler GCC version 9.2.1 20190827 (Red Hat 9.2.1-1)
REM options -cpp -mtune=generic -march=x86-64 -g -O0 -fpre-include=/usr/include/finclude/math-vector-fortran.h
REM seed -323241720 -425552282 -531382970 -1092097153 -9536299 256089229 1709147949 -17785778 419222936 1378514058 -1073762639 1346434444 1920528553 -1014087512 -1199161780 -1545803367 -1010973883 -1882961010 -539152796 -1804108053 617761135 285382617 -564005770 -1385057099 1777457990 -1965381604 -1850167665 -2033575807 -603582224 -601391884 -949906727 1765929732 1614275628
REM
CELL 1.54180   50.00000   50.00000   50.00000   90.00000   90.00000   90.00000
LATT -1
SFAC C  
C      1  0.4054950000000  0.4834940000000  0.5361260000000 1.0
C      1  0.4856730000000  0.5402570000000  0.5093160000000 1.0
C      1  0.5225960000000  0.5747360000000  0.5886760000000 1.0
C      1  0.5568640000000  0.5177580000000  0.5249870000000 1.0
C      1  0.4855250000000  0.5384850000000  0.6064810000000 1.0
C      1  0.6161860000000  0.4720730000000  0.5029700000000 1.0
C      1  0.5167690000000  0.5343620000000  0.5515210000000 1.0
C      1  0.4239160000000  0.4684330000000  0.4356490000000 1.0
C      1  0.5514570000000  0.5332510000000  0.4746570000000 1.0
C      1  0.6036970000000  0.4831100000000  0.4772820000000 1.0
C      1  0.5177550000000  0.4095060000000  0.4704160000000 1.0
C      1  0.4532750000000  0.5234500000000  0.4409410000000 1.0
C      1  0.4066080000000  0.4513760000000  0.4779080000000 1.0
C      1  0.5973360000000  0.5031240000000  0.5410310000000 1.0
C      1  0.5353420000000  0.4565330000000  0.5871320000000 1.0
C      1  0.4989460000000  0.4868350000000  0.5650270000000 1.0
C      1  0.5639290000000  0.4713590000000  0.4144780000000 1.0
C      1  0.5213330000000  0.4304590000000  0.5827100000000 1.0
C      1  0.4796750000000  0.5952900000000  0.4531890000000 1.0
C      1  0.4647460000000  0.5186960000000  0.5996310000000 1.0
C      1  0.5397990000000  0.4488050000000  0.5015520000000 1.0
C      1  0.5922130000000  0.4583480000000  0.5484050000000 1.0
C      1  0.5313680000000  0.4770860000000  0.5651940000000 1.0
C      1  0.4587240000000  0.4102020000000  0.4977070000000 1.0
C      1  0.5015310000000  0.4902350000000  0.5039010000000 1.0
C      1  0.4933940000000  0.5944060000000  0.4250760000000 1.0
C      1  0.5799080000000  0.5432320000000  0.4756400000000 1.0
C      1  0.5865880000000  0.4700860000000  0.5737990000000 1.0
C      1  0.5286260000000  0.5174310000000  0.6081080000000 1.0
C      1  0.4419930000000  0.5596840000000  0.5263830000000 1.0
C      1  0.5058870000000  0.5618900000000  0.5469180000000 1.0
C      1  0.4144770000000  0.4374820000000  0.5326610000000 1.0
C      1  0.4151270000000  0.4635890000000  0.5185370000000 1.0
C      1  0.4518670000000  0.4350400000000  0.5675980000000 1.0
C      1  0.4669580000000  0.4552050000000  0.5296980000000 1.0
C      1  0.5405710000000  0.4194800000000  0.5667300000000 1.0
C      1  0.4815890000000  0.4963470000000  0.6084880000000 1.0
C      1  0.4469070000000  0.5622580000000  0.4800490000000 1.0
C      1  0.4763140000000  0.4232640000000  0.4404680000000 1.0
C      1  0.5115550000000  0.4486090000000  0.4051250000000 1.0
C      1  0.4678190000000  0.3997530000000  0.4488370000000 1.0
C      1  0.5168870000000  0.4777810000000  0.4003140000000 1.0
C      1  0.4247220000000  0.4669120000000  0.4923840000000 1.0
C      1  0.5528700000000  0.5174270000000  0.5979650000000 1.0
C      1  0.5400520000000  0.4651880000000  0.5400430000000 1.0
C      1  0.4285690000000  0.5366330000000  0.5675050000000 1.0
C      1  0.3982490000000  0.5358240000000  0.5218690000000 1.0
C      1  0.5030290000000  0.5170880000000  0.6179040000000 1.0
C      1  0.5937450000000  0.5258380000000  0.4954620000000 1.0
C      1  0.4449960000000  0.4885760000000  0.5643950000000 1.0
C      1  0.5953930000000  0.5498490000000  0.4519450000000 1.0
C      1  0.5366770000000  0.5867770000000  0.5649530000000 1.0
C      1  0.4651370000000  0.5654740000000  0.4140670000000 1.0
C      1  0.5459420000000  0.5166060000000  0.4241900000000 1.0
C      1  0.5002810000000  0.3911320000000  0.4863530000000 1.0
C      1  0.4174540000000  0.5190760000000  0.4629850000000 1.0
C      1  0.4533560000000  0.4932900000000  0.5020510000000 1.0
C      1  0.4617350000000  0.5568050000000  0.5054630000000 1.0
C      1  0.5281380000000  0.5610620000000  0.4475820000000 1.0
C      1  0.4399320000000  0.4459680000000  0.4270720000000 1.0
C      1  0.5350080000000  0.4379700000000  0.4110640000000 1.0
C      1  0.5226720000000  0.5972110000000  0.5123980000000 1.0
C      1  0.4927750000000  0.4933080000000  0.3963320000000 1.0
C      1  0.4299580000000  0.5856190000000  0.5202900000000 1.0
C      1  0.4913170000000  0.5693310000000  0.4069540000000 1.0
C      1  0.4107550000000  0.4227440000000  0.4855350000000 1.0
C      1  0.4955170000000  0.5636340000000  0.5936280000000 1.0
C      1  0.4731540000000  0.4042090000000  0.5279020000000 1.0
C      1  0.3906050000000  0.5061990000000  0.5216260000000 1.0
C      1  0.4215340000000  0.5763840000000  0.4943260000000 1.0
C      1  0.5489580000000  0.3933980000000  0.5341530000000 1.0
C      1  0.4440230000000  0.5714020000000  0.4314540000000 1.0
C      1  0.5962900000000  0.4680820000000  0.4532470000000 1.0
C      1  0.4598740000000  0.5833290000000  0.5595000000000 1.0
C      1  0.5897670000000  0.4399120000000  0.4590160000000 1.0
C      1  0.5099820000000  0.5484490000000  0.4934100000000 1.0
C      1  0.4977550000000  0.5147640000000  0.5546350000000 1.0
C      1  0.5897470000000  0.5334110000000  0.4366680000000 1.0
C      1  0.4971610000000  0.6088550000000  0.4713950000000 1.0
C      1  0.4718620000000  0.4164710000000  0.5543240000000 1.0
C      1  0.5389450000000  0.5450040000000  0.4970060000000 1.0
C      1  0.5419910000000  0.4898220000000  0.4093920000000 1.0
C      1  0.4610260000000  0.4535560000000  0.4092280000000 1.0
C      1  0.4835390000000  0.5206120000000  0.5318050000000 1.0
C      1  0.5097310000000  0.5451390000000  0.4059990000000 1.0
C      1  0.6078050000000  0.4456270000000  0.5035210000000 1.0
C      1  0.4481490000000  0.4214110000000  0.4469790000000 1.0
C      1  0.4983260000000  0.4429260000000  0.4976540000000 1.0
C      1  0.5850300000000  0.4828430000000  0.4303810000000 1.0
C      1  0.5761280000000  0.4253730000000  0.4378360000000 1.0
C      1  0.5637370000000  0.5739050000000  0.5337600000000 1.0
C      1  0.5174340000000  0.6112190000000  0.4271230000000 1.0
C      1  0.4446220000000  0.5139620000000  0.5783290000000 1.0
C      1  0.5859130000000  0.5231180000000  0.5231280000000 1.0
C      1  0.4448180000000  0.5588860000000  0.5559290000000 1.0
C      1  0.4528690000000  0.4690040000000  0.4852750000000 1.0
C      1  0.5196240000000  0.4325310000000  0.5147160000000 1.0
C      1  0.5231910000000  0.6097280000000  0.4574160000000 1.0
C      1  0.4537220000000  0.5991710000000  0.5341950000000 1.0
C      1  0.5608420000000  0.4166940000000  0.5493810000000 1.0
C      1  0.5652340000000  0.4575740000000  0.5943370000000 1.0
C      1  0.4727660000000  0.3929500000000  0.4768650000000 1.0
C      1  0.4755080000000  0.4946250000000  0.5207540000000 1.0
C      1  0.5079410000000  0.5488630000000  0.4644930000000 1.0
C      1  0.5185300000000  0.4659120000000  0.4587130000000 1.0
C      1  0.5382340000000  0.5853660000000  0.4624060000000 1.0
C      1  0.4825290000000  0.5218440000000  0.4351580000000 1.0
C      1  0.4120440000000  0.5344010000000  0.5447960000000 1.0
C      1  0.4456410000000  0.5281100000000  0.4707330000000 1.0
C      1  0.4696050000000  0.4772430000000  0.5486040000000 1.0
C      1  0.4262990000000  0.4452330000000  0.5590000000000 1.0
C      1  0.5366330000000  0.5131600000000  0.4561840000000 1.0
C      1  0.4916060000000  0.5058420000000  0.4837450000000 1.0
C      1  0.4201400000000  0.4742170000000  0.5600430000000 1.0
C      1  0.3976030000000  0.5540540000000  0.4695720000000 1.0
C      1  0.4673440000000  0.4786480000000  0.3954630000000 1.0
C      1  0.4651660000000  0.4756450000000  0.4556780000000 1.0
C      1  0.4334560000000  0.5441430000000  0.4302500000000 1.0
C      1  0.5661890000000  0.5805960000000  0.5603390000000 1.0
C      1  0.5631370000000  0.4879890000000  0.4834910000000 1.0
C      1  0.3930430000000  0.5003650000000  0.4948580000000 1.0
C      1  0.5419780000000  0.5895140000000  0.4915460000000 1.0
C      1  0.5866050000000  0.5034100000000  0.4803200000000 1.0
C      1  0.5655900000000  0.4465450000000  0.5372920000000 1.0
C      1  0.5887170000000  0.4314030000000  0.4891000000000 1.0
C      1  0.5670110000000  0.4407270000000  0.5069600000000 1.0
C      1  0.5502490000000  0.4962750000000  0.5076460000000 1.0
C      1  0.4684710000000  0.4434730000000  0.5025340000000 1.0
C      1  0.5108360000000  0.4386430000000  0.4707750000000 1.0
C      1  0.4438540000000  0.4952470000000  0.4032510000000 1.0
C      1  0.4027870000000  0.4687650000000  0.4556800000000 1.0
C      1  0.5567170000000  0.5685880000000  0.5071450000000 1.0
C      1  0.5521900000000  0.5044470000000  0.5693320000000 1.0
C      1  0.4375630000000  0.4159310000000  0.4782380000000 1.0
C      1  0.6072790000000  0.4769880000000  0.5310380000000 1.0
C      1  0.5030840000000  0.5197180000000  0.4573380000000 1.0
C      1  0.4923750000000  0.5208700000000  0.4079380000000 1.0
C      1  0.5694880000000  0.5426030000000  0.5936040000000 1.0
C      1  0.4634090000000  0.5145460000000  0.4883110000000 1.0
C      1  0.5300880000000  0.4769870000000  0.5137980000000 1.0
C      1  0.5598620000000  0.4632350000000  0.6193270000000 1.0
C      1  0.5431490000000  0.5236920000000  0.5498580000000 1.0
C      1  0.5400070000000  0.4850830000000  0.4641620000000 1.0
C      1  0.5209710000000  0.5855320000000  0.5395230000000 1.0
C      1  0.5327980000000  0.5449110000000  0.4229220000000 1.0
C      1  0.5614290000000  0.4404960000000  0.4156170000000 1.0
C      1  0.3997430000000  0.5571300000000  0.4976610000000 1.0
C      1  0.4860810000000  0.4751550000000  0.5892060000000 1.0
C      1  0.5740310000000  0.5612790000000  0.5820190000000 1.0
C      1  0.5221880000000  0.4045970000000  0.5245790000000 1.0
C      1  0.5766490000000  0.5108590000000  0.4246960000000 1.0
C      1  0.4915020000000  0.4678010000000  0.4469080000000 1.0
C      1  0.4560460000000  0.5800360000000  0.4576870000000 1.0
C      1  0.4076420000000  0.4148810000000  0.5148490000000 1.0
C      1  0.4922390000000  0.4273570000000  0.5748110000000 1.0
C      1  0.4863420000000  0.4440050000000  0.4240060000000 1.0
C      1  0.4970890000000  0.6084660000000  0.5015950000000 1.0
C      1  0.3982120000000  0.4962680000000  0.4680620000000 1.0
C      1  0.4966320000000  0.3922420000000  0.5166930000000 1.0
C      1  0.4256090000000  0.5064120000000  0.3893390000000 1.0
C      1  0.4748990000000  0.6041480000000  0.5177240000000 1.0
C      1  0.4082130000000  0.5410410000000  0.4458330000000 1.0
C      1  0.5817570000000  0.4969120000000  0.5650340000000 1.0
C      1  0.4740200000000  0.4473860000000  0.5840660000000 1.0
C      1  0.4462280000000  0.4893290000000  0.4375840000000 1.0
C      1  0.4860660000000  0.5727420000000  0.5664900000000 1.0
END
