TITL C-883734-4173-445 -2.12795523260271 125000 -7617.17432001078 0 0 53 (C1) n - 1
REM
REM in /home/nfs/bkarasulu/CARBON/AIRSS/Generating-Clusters/ReaxFF-fromJPCA2015/Units_Real/with-SteepDescent/Only-C1/SD-CG/Try1-3A/FIRE-CG
REM
REM
REM
REM
REM
REM ./C.cell (11c1c37f851c82e70ff6c80c92926a4b)
REM
REM compiler GCC version 9.2.1 20190827 (Red Hat 9.2.1-1)
REM options -cpp -mtune=generic -march=x86-64 -g -O0 -fpre-include=/usr/include/finclude/math-vector-fortran.h
REM seed 595573170 -42539192 -1146043265 -1523339124 1220000654 609346776 349299112 -1429101506 -1338144514 903459468 -1522697844 911925307 1226058874 -1229628134 -2110030676 -2072048279 1146498710 -544266782 -128740313 -149367802 1375709869 2052751487 1285142806 599234598 -428133353 1553838885 214623657 -1913492307 213455896 625330310 17409976 469968492 -187412105
REM
CELL 1.54180   50.00000   50.00000   50.00000   90.00000   90.00000   90.00000
LATT -1
SFAC C  
C      1  0.5674700000000  0.5030450000000  0.4461150000000 1.0
C      1  0.5635550000000  0.4953280000000  0.5489540000000 1.0
C      1  0.5147020000000  0.5031980000000  0.5311940000000 1.0
C      1  0.4937420000000  0.4877390000000  0.5112870000000 1.0
C      1  0.5005520000000  0.5391990000000  0.4382950000000 1.0
C      1  0.4809460000000  0.4914990000000  0.5687400000000 1.0
C      1  0.5727900000000  0.4795510000000  0.4615830000000 1.0
C      1  0.4900420000000  0.4323900000000  0.5172510000000 1.0
C      1  0.4584690000000  0.5348960000000  0.4709260000000 1.0
C      1  0.4566660000000  0.4323500000000  0.5247520000000 1.0
C      1  0.5092570000000  0.5596480000000  0.4556380000000 1.0
C      1  0.5209050000000  0.4468530000000  0.4721580000000 1.0
C      1  0.5006660000000  0.5412390000000  0.5571830000000 1.0
C      1  0.5073430000000  0.4451570000000  0.5675270000000 1.0
C      1  0.4963350000000  0.5601000000000  0.5338640000000 1.0
C      1  0.4755510000000  0.5229850000000  0.4485790000000 1.0
C      1  0.5239810000000  0.5621350000000  0.4753340000000 1.0
C      1  0.4925970000000  0.5282230000000  0.4939570000000 1.0
C      1  0.5011250000000  0.5116560000000  0.5568120000000 1.0
C      1  0.5275250000000  0.5262790000000  0.4383940000000 1.0
C      1  0.5394060000000  0.5567000000000  0.4975010000000 1.0
C      1  0.5550920000000  0.4757850000000  0.4381940000000 1.0
C      1  0.4958250000000  0.4667770000000  0.5712740000000 1.0
C      1  0.4554680000000  0.5315660000000  0.5626450000000 1.0
C      1  0.4508590000000  0.4561080000000  0.5365340000000 1.0
C      1  0.5418420000000  0.4579760000000  0.4892480000000 1.0
C      1  0.4756040000000  0.4956140000000  0.4457860000000 1.0
C      1  0.4306680000000  0.5207570000000  0.5294800000000 1.0
C      1  0.4986330000000  0.4307240000000  0.4848850000000 1.0
C      1  0.5287260000000  0.4793310000000  0.4297540000000 1.0
C      1  0.4776040000000  0.5035930000000  0.4923200000000 1.0
C      1  0.4247590000000  0.5126500000000  0.5002670000000 1.0
C      1  0.4666530000000  0.4581490000000  0.4551910000000 1.0
C      1  0.4490700000000  0.5096070000000  0.4834490000000 1.0
C      1  0.4495240000000  0.5435050000000  0.5382040000000 1.0
C      1  0.5159400000000  0.4617300000000  0.4460810000000 1.0
C      1  0.5033920000000  0.4359360000000  0.5447460000000 1.0
C      1  0.4394160000000  0.4952050000000  0.5361860000000 1.0
C      1  0.4868180000000  0.4704120000000  0.4404510000000 1.0
C      1  0.5527670000000  0.5255020000000  0.4566330000000 1.0
C      1  0.4638110000000  0.5164600000000  0.5841310000000 1.0
C      1  0.5205420000000  0.5047400000000  0.4308170000000 1.0
C      1  0.5620540000000  0.4799430000000  0.4890480000000 1.0
C      1  0.4551140000000  0.4794340000000  0.5507390000000 1.0
C      1  0.4699740000000  0.5558510000000  0.5208870000000 1.0
C      1  0.5146610000000  0.5271870000000  0.5132570000000 1.0
C      1  0.5508780000000  0.5305990000000  0.4853110000000 1.0
C      1  0.4725030000000  0.5496150000000  0.4924300000000 1.0
C      1  0.5484890000000  0.5022090000000  0.5295150000000 1.0
C      1  0.4915380000000  0.4608930000000  0.5127030000000 1.0
C      1  0.4779340000000  0.4416020000000  0.4705060000000 1.0
C      1  0.5573400000000  0.5066960000000  0.5008900000000 1.0
C      1  0.5228740000000  0.5536740000000  0.5223930000000 1.0
END
