TITL C-883733-4178-248 117.645543954025 125000 -29843.294675471 0 0 199 (C1) n - 1
REM
REM in /home/nfs/bkarasulu/CARBON/AIRSS/Generating-Clusters/ReaxFF-fromJPCA2015/Units_Real/with-SteepDescent/Only-C1/SD-CG/Try1-3A/FIRE-CG
REM
REM
REM
REM
REM
REM ./C.cell (11c1c37f851c82e70ff6c80c92926a4b)
REM
REM compiler GCC version 9.2.1 20190827 (Red Hat 9.2.1-1)
REM options -cpp -mtune=generic -march=x86-64 -g -O0 -fpre-include=/usr/include/finclude/math-vector-fortran.h
REM seed 950476940 -884316281 -1968357682 -913706045 1283660264 2010601797 -925482368 -1770534466 1536565398 1696184465 2066343037 -1917159886 281877103 -1837036289 -1233684231 325143130 1362462936 1357979827 -870704244 1095492254 -983798398 628230903 -448320391 1727628442 249220882 -1368029179 1607834925 892543044 1834140858 -455054077 -1091187143 -383010091 400377408
REM
CELL 1.54180   50.00000   50.00000   50.00000   90.00000   90.00000   90.00000
LATT -1
SFAC C  
C      1  0.5777700000000  0.4374340000000  0.4567590000000 1.0
C      1  0.5061350000000  0.5053140000000  0.5482740000000 1.0
C      1  0.5101080000000  0.4721950000000  0.3964380000000 1.0
C      1  0.4503470000000  0.5024390000000  0.5663000000000 1.0
C      1  0.5262310000000  0.5625020000000  0.5292010000000 1.0
C      1  0.5268640000000  0.6051330000000  0.4544510000000 1.0
C      1  0.6046050000000  0.5357020000000  0.5474550000000 1.0
C      1  0.4582140000000  0.5648900000000  0.5293990000000 1.0
C      1  0.4761920000000  0.4556030000000  0.5672580000000 1.0
C      1  0.5150560000000  0.6153860000000  0.5278240000000 1.0
C      1  0.4675210000000  0.6112140000000  0.4922570000000 1.0
C      1  0.4661260000000  0.4150830000000  0.4358480000000 1.0
C      1  0.4935130000000  0.5138830000000  0.4831950000000 1.0
C      1  0.4934820000000  0.4644770000000  0.4812900000000 1.0
C      1  0.5507050000000  0.5379780000000  0.4924410000000 1.0
C      1  0.4962130000000  0.4367120000000  0.5765950000000 1.0
C      1  0.4098460000000  0.5457550000000  0.5122030000000 1.0
C      1  0.5522310000000  0.6032460000000  0.4657220000000 1.0
C      1  0.5370420000000  0.4967640000000  0.5064050000000 1.0
C      1  0.5774310000000  0.4220860000000  0.5195960000000 1.0
C      1  0.4857550000000  0.5878840000000  0.4288590000000 1.0
C      1  0.5686550000000  0.5682900000000  0.4292470000000 1.0
C      1  0.5100630000000  0.4204900000000  0.4161540000000 1.0
C      1  0.4033250000000  0.5221600000000  0.5571460000000 1.0
C      1  0.4624780000000  0.5453180000000  0.5522700000000 1.0
C      1  0.4344470000000  0.5838940000000  0.5743970000000 1.0
C      1  0.3798510000000  0.4711840000000  0.4917040000000 1.0
C      1  0.5597600000000  0.5127980000000  0.5999000000000 1.0
C      1  0.3950650000000  0.4260650000000  0.4968610000000 1.0
C      1  0.4353430000000  0.4715090000000  0.4088630000000 1.0
C      1  0.5926110000000  0.4989970000000  0.4337150000000 1.0
C      1  0.4487250000000  0.4625740000000  0.4993550000000 1.0
C      1  0.4103600000000  0.4973060000000  0.5032850000000 1.0
C      1  0.5449370000000  0.6090990000000  0.4933780000000 1.0
C      1  0.5833670000000  0.4785290000000  0.5272370000000 1.0
C      1  0.5336070000000  0.4649680000000  0.5382970000000 1.0
C      1  0.5525530000000  0.5228280000000  0.5622860000000 1.0
C      1  0.4903120000000  0.4719600000000  0.6234160000000 1.0
C      1  0.5441860000000  0.5153630000000  0.3986180000000 1.0
C      1  0.4242350000000  0.5773910000000  0.4894030000000 1.0
C      1  0.4231570000000  0.4447500000000  0.4092840000000 1.0
C      1  0.5251830000000  0.3934550000000  0.5579540000000 1.0
C      1  0.4891440000000  0.6116580000000  0.5407520000000 1.0
C      1  0.5057400000000  0.5700190000000  0.5099560000000 1.0
C      1  0.3978070000000  0.5098150000000  0.4593050000000 1.0
C      1  0.5103450000000  0.5094350000000  0.5995440000000 1.0
C      1  0.4949360000000  0.5405730000000  0.3960790000000 1.0
C      1  0.6074350000000  0.4936130000000  0.5222040000000 1.0
C      1  0.5954770000000  0.4870930000000  0.5662200000000 1.0
C      1  0.5843040000000  0.5645050000000  0.5499620000000 1.0
C      1  0.4984300000000  0.4987330000000  0.3885520000000 1.0
C      1  0.4806300000000  0.3979940000000  0.4554240000000 1.0
C      1  0.3851190000000  0.5036410000000  0.5489360000000 1.0
C      1  0.5457540000000  0.4084200000000  0.5642990000000 1.0
C      1  0.3874910000000  0.4993850000000  0.4840700000000 1.0
C      1  0.4332370000000  0.4428460000000  0.5305210000000 1.0
C      1  0.5452420000000  0.5617390000000  0.4130010000000 1.0
C      1  0.5013420000000  0.4449350000000  0.5217480000000 1.0
C      1  0.5474180000000  0.5381870000000  0.5873600000000 1.0
C      1  0.5186290000000  0.5367140000000  0.5937880000000 1.0
C      1  0.6029940000000  0.5403700000000  0.4619220000000 1.0
C      1  0.5150380000000  0.4373420000000  0.5982940000000 1.0
C      1  0.4257270000000  0.5968680000000  0.5497520000000 1.0
C      1  0.4984450000000  0.5313850000000  0.4601600000000 1.0
C      1  0.5349450000000  0.5792740000000  0.5561710000000 1.0
C      1  0.5898250000000  0.4618170000000  0.5497630000000 1.0
C      1  0.5097920000000  0.5801340000000  0.5724980000000 1.0
C      1  0.4983210000000  0.5639320000000  0.4162730000000 1.0
C      1  0.5038530000000  0.4443300000000  0.4343930000000 1.0
C      1  0.5347430000000  0.5372800000000  0.5195020000000 1.0
C      1  0.4724000000000  0.4870700000000  0.5786350000000 1.0
C      1  0.4824690000000  0.5544320000000  0.5175980000000 1.0
C      1  0.3974590000000  0.4733100000000  0.5152210000000 1.0
C      1  0.5334890000000  0.4542070000000  0.3908750000000 1.0
C      1  0.4891310000000  0.3971880000000  0.5073300000000 1.0
C      1  0.4510240000000  0.4783400000000  0.4780830000000 1.0
C      1  0.4044310000000  0.5564110000000  0.4844520000000 1.0
C      1  0.5134280000000  0.4559930000000  0.6220980000000 1.0
C      1  0.5206100000000  0.4641840000000  0.4886150000000 1.0
C      1  0.5009400000000  0.5563280000000  0.5843790000000 1.0
C      1  0.5426780000000  0.5614450000000  0.4774820000000 1.0
C      1  0.4927110000000  0.5596280000000  0.4634840000000 1.0
C      1  0.4820790000000  0.4390340000000  0.4753500000000 1.0
C      1  0.5599680000000  0.4086650000000  0.5003560000000 1.0
C      1  0.5969990000000  0.5276170000000  0.4359590000000 1.0
C      1  0.4125850000000  0.5715570000000  0.5579740000000 1.0
C      1  0.5142410000000  0.3929100000000  0.4918670000000 1.0
C      1  0.5591520000000  0.4920530000000  0.4650830000000 1.0
C      1  0.5197600000000  0.3821160000000  0.5317130000000 1.0
C      1  0.5843310000000  0.4444560000000  0.5016560000000 1.0
C      1  0.5921200000000  0.5659590000000  0.4720730000000 1.0
C      1  0.4532550000000  0.4701630000000  0.6113270000000 1.0
C      1  0.4827400000000  0.4638300000000  0.5355830000000 1.0
C      1  0.4178020000000  0.4938970000000  0.4168030000000 1.0
C      1  0.5608460000000  0.5393320000000  0.4001980000000 1.0
C      1  0.4635540000000  0.5816580000000  0.5774530000000 1.0
C      1  0.5638790000000  0.5431230000000  0.5448410000000 1.0
C      1  0.5839580000000  0.5294120000000  0.5292940000000 1.0
C      1  0.5581720000000  0.4527060000000  0.4960470000000 1.0
C      1  0.4379430000000  0.5566690000000  0.5072980000000 1.0
C      1  0.4551200000000  0.5219290000000  0.4188140000000 1.0
C      1  0.4801870000000  0.4878150000000  0.4728680000000 1.0
C      1  0.4737460000000  0.4904340000000  0.6106420000000 1.0
C      1  0.4928280000000  0.4192890000000  0.5276670000000 1.0
C      1  0.4053500000000  0.5374410000000  0.4597220000000 1.0
C      1  0.6115720000000  0.5078300000000  0.5492360000000 1.0
C      1  0.4636280000000  0.5601660000000  0.4641970000000 1.0
C      1  0.5840720000000  0.5461270000000  0.4175450000000 1.0
C      1  0.5395230000000  0.6042910000000  0.5392050000000 1.0
C      1  0.4557160000000  0.4244670000000  0.4762460000000 1.0
C      1  0.5793160000000  0.4342770000000  0.5472890000000 1.0
C      1  0.4430980000000  0.4515180000000  0.5951400000000 1.0
C      1  0.4020020000000  0.4532320000000  0.4518340000000 1.0
C      1  0.4902760000000  0.3783830000000  0.5320200000000 1.0
C      1  0.5053350000000  0.4312530000000  0.4612650000000 1.0
C      1  0.6132440000000  0.4972300000000  0.4935070000000 1.0
C      1  0.5432560000000  0.5166830000000  0.4668290000000 1.0
C      1  0.4873010000000  0.4926710000000  0.5301970000000 1.0
C      1  0.5726510000000  0.4802590000000  0.4226020000000 1.0
C      1  0.5595890000000  0.6004000000000  0.5189620000000 1.0
C      1  0.5439060000000  0.4467180000000  0.5896710000000 1.0
C      1  0.4763210000000  0.5182390000000  0.3973650000000 1.0
C      1  0.5387100000000  0.4683100000000  0.6127420000000 1.0
C      1  0.4552990000000  0.4557640000000  0.5208060000000 1.0
C      1  0.5729620000000  0.5011800000000  0.5772620000000 1.0
C      1  0.4590480000000  0.5141130000000  0.4464460000000 1.0
C      1  0.6060400000000  0.5241180000000  0.4856510000000 1.0
C      1  0.5233190000000  0.5044470000000  0.4860810000000 1.0
C      1  0.5471730000000  0.4912190000000  0.4146580000000 1.0
C      1  0.4938110000000  0.6119270000000  0.4798820000000 1.0
C      1  0.4257680000000  0.5219170000000  0.4158550000000 1.0
C      1  0.5414380000000  0.4070750000000  0.4517340000000 1.0
C      1  0.4289920000000  0.4158430000000  0.5178620000000 1.0
C      1  0.4997530000000  0.6046060000000  0.4505760000000 1.0
C      1  0.4288760000000  0.3999150000000  0.5409660000000 1.0
C      1  0.4546810000000  0.5422970000000  0.4851330000000 1.0
C      1  0.5841560000000  0.5379610000000  0.5015410000000 1.0
C      1  0.5199560000000  0.5240550000000  0.4438620000000 1.0
C      1  0.4489090000000  0.4359070000000  0.5718060000000 1.0
C      1  0.4097550000000  0.4732390000000  0.5629010000000 1.0
C      1  0.5650200000000  0.4244970000000  0.5706400000000 1.0
C      1  0.5218930000000  0.5517860000000  0.4274750000000 1.0
C      1  0.5968920000000  0.4489910000000  0.4751420000000 1.0
C      1  0.4692970000000  0.3992860000000  0.4813800000000 1.0
C      1  0.5385910000000  0.4159210000000  0.4239310000000 1.0
C      1  0.4250630000000  0.4483530000000  0.5584440000000 1.0
C      1  0.5133080000000  0.4023190000000  0.4640590000000 1.0
C      1  0.3873750000000  0.4761660000000  0.5435120000000 1.0
C      1  0.5462330000000  0.4684360000000  0.4759550000000 1.0
C      1  0.4412220000000  0.4195440000000  0.4504130000000 1.0
C      1  0.5207430000000  0.4782020000000  0.4235680000000 1.0
C      1  0.5145660000000  0.5683860000000  0.4816610000000 1.0
C      1  0.5170260000000  0.4317150000000  0.3909080000000 1.0
C      1  0.5925610000000  0.5678500000000  0.5008320000000 1.0
C      1  0.5615420000000  0.4160360000000  0.4699630000000 1.0
C      1  0.4480700000000  0.5940270000000  0.5320870000000 1.0
C      1  0.4383940000000  0.5038830000000  0.4948870000000 1.0
C      1  0.4870470000000  0.5954950000000  0.5652000000000 1.0
C      1  0.4754560000000  0.4421710000000  0.4277740000000 1.0
C      1  0.4563940000000  0.5867100000000  0.4293120000000 1.0
C      1  0.4769800000000  0.5298410000000  0.5034200000000 1.0
C      1  0.4637950000000  0.5090550000000  0.5208310000000 1.0
C      1  0.5290630000000  0.4480360000000  0.5123430000000 1.0
C      1  0.5334220000000  0.5169350000000  0.5415200000000 1.0
C      1  0.4019460000000  0.4089460000000  0.5146070000000 1.0
C      1  0.4979140000000  0.5005250000000  0.5745390000000 1.0
C      1  0.5058420000000  0.4999220000000  0.4352930000000 1.0
C      1  0.4586640000000  0.4675930000000  0.4302310000000 1.0
C      1  0.5366820000000  0.3924760000000  0.5084100000000 1.0
C      1  0.5387040000000  0.4562450000000  0.5633930000000 1.0
C      1  0.5168560000000  0.6156820000000  0.4983490000000 1.0
C      1  0.5810730000000  0.5811940000000  0.5237420000000 1.0
C      1  0.4384550000000  0.4724600000000  0.4515170000000 1.0
C      1  0.4422830000000  0.6000700000000  0.4792060000000 1.0
C      1  0.5703980000000  0.4517590000000  0.4309480000000 1.0
C      1  0.4728010000000  0.5544090000000  0.5781540000000 1.0
C      1  0.4184270000000  0.4338870000000  0.4375050000000 1.0
C      1  0.5168430000000  0.5210730000000  0.3876330000000 1.0
C      1  0.5602180000000  0.5640810000000  0.5676820000000 1.0
C      1  0.5865800000000  0.4910220000000  0.4591060000000 1.0
C      1  0.4217680000000  0.4997700000000  0.5674030000000 1.0
C      1  0.4789670000000  0.4927430000000  0.4441290000000 1.0
C      1  0.4064790000000  0.5482700000000  0.5414220000000 1.0
C      1  0.5363320000000  0.4966380000000  0.6082270000000 1.0
C      1  0.6053900000000  0.4768440000000  0.4738570000000 1.0
C      1  0.4755900000000  0.3913130000000  0.5538760000000 1.0
C      1  0.4444750000000  0.5196200000000  0.4709030000000 1.0
C      1  0.3889690000000  0.4469320000000  0.4771370000000 1.0
C      1  0.5514780000000  0.4886730000000  0.5279090000000 1.0
C      1  0.4979190000000  0.4117440000000  0.5560520000000 1.0
C      1  0.5512440000000  0.4403240000000  0.4128290000000 1.0
C      1  0.4532610000000  0.6004260000000  0.4537330000000 1.0
C      1  0.4110090000000  0.4845200000000  0.4445510000000 1.0
C      1  0.4666360000000  0.6134820000000  0.5218950000000 1.0
C      1  0.4495160000000  0.4037690000000  0.5592590000000 1.0
C      1  0.4564630000000  0.5197010000000  0.5459850000000 1.0
C      1  0.5660620000000  0.5750810000000  0.4591810000000 1.0
C      1  0.4222270000000  0.5432600000000  0.4362370000000 1.0
C      1  0.4459650000000  0.5610190000000  0.4411460000000 1.0
END
