TITL C-883733-4178-339 -1.8141402587615 125000 -8185.125877865 0 0 56 (C1) n - 1
REM
REM in /home/nfs/bkarasulu/CARBON/AIRSS/Generating-Clusters/ReaxFF-fromJPCA2015/Units_Real/with-SteepDescent/Only-C1/SD-CG/Try1-3A/FIRE-CG
REM
REM
REM
REM
REM
REM ./C.cell (11c1c37f851c82e70ff6c80c92926a4b)
REM
REM compiler GCC version 9.2.1 20190827 (Red Hat 9.2.1-1)
REM options -cpp -mtune=generic -march=x86-64 -g -O0 -fpre-include=/usr/include/finclude/math-vector-fortran.h
REM seed -837806018 1014067699 -1508021615 -1095351527 495696821 377971823 -705605547 -1251616766 -1792260246 812430664 1262784395 2059335939 331443742 -1299466981 -999209720 -895820171 1032713838 1645409643 -216106512 -1676785490 -1599797250 1311977431 -440869435 1286459479 -1325721346 -394656458 1061012561 -399930924 2145919312 -1163987192 2032367920 2089869275 -538258018
REM
CELL 1.54180   50.00000   50.00000   50.00000   90.00000   90.00000   90.00000
LATT -1
SFAC C  
C      1  0.5523210000000  0.5380630000000  0.5303510000000 1.0
C      1  0.4534030000000  0.4717240000000  0.5531350000000 1.0
C      1  0.4710220000000  0.4876880000000  0.4378560000000 1.0
C      1  0.5068220000000  0.4411770000000  0.4570310000000 1.0
C      1  0.4685100000000  0.5589300000000  0.5553830000000 1.0
C      1  0.5905050000000  0.5074630000000  0.5019560000000 1.0
C      1  0.4967190000000  0.5186860000000  0.5732000000000 1.0
C      1  0.5424890000000  0.5201590000000  0.5517830000000 1.0
C      1  0.5170780000000  0.4838110000000  0.4332870000000 1.0
C      1  0.4697600000000  0.5648050000000  0.4865350000000 1.0
C      1  0.5231330000000  0.5168400000000  0.5713990000000 1.0
C      1  0.4739720000000  0.5243500000000  0.5543920000000 1.0
C      1  0.5167030000000  0.5641190000000  0.4965630000000 1.0
C      1  0.4896560000000  0.5719870000000  0.5071420000000 1.0
C      1  0.4743420000000  0.4584690000000  0.4365730000000 1.0
C      1  0.5741600000000  0.5167880000000  0.5250900000000 1.0
C      1  0.5364540000000  0.5460100000000  0.5073440000000 1.0
C      1  0.4860810000000  0.4475970000000  0.5146780000000 1.0
C      1  0.5344560000000  0.4477150000000  0.5260140000000 1.0
C      1  0.4951670000000  0.4729850000000  0.5585240000000 1.0
C      1  0.4753630000000  0.4606080000000  0.4895150000000 1.0
C      1  0.5574330000000  0.4980050000000  0.5403780000000 1.0
C      1  0.5397360000000  0.4780900000000  0.5250160000000 1.0
C      1  0.4793620000000  0.5671340000000  0.5326070000000 1.0
C      1  0.5526250000000  0.4541920000000  0.4822650000000 1.0
C      1  0.4787860000000  0.4454440000000  0.4625060000000 1.0
C      1  0.5147770000000  0.5104430000000  0.4419560000000 1.0
C      1  0.5007290000000  0.5138610000000  0.5087020000000 1.0
C      1  0.4595770000000  0.4988880000000  0.5537980000000 1.0
C      1  0.4371510000000  0.4988050000000  0.4931520000000 1.0
C      1  0.4733980000000  0.5302050000000  0.4557160000000 1.0
C      1  0.4238300000000  0.4602230000000  0.5443580000000 1.0
C      1  0.5571380000000  0.5113800000000  0.4762840000000 1.0
C      1  0.5004230000000  0.4818290000000  0.4830520000000 1.0
C      1  0.5078120000000  0.4917310000000  0.5756720000000 1.0
C      1  0.5129010000000  0.4414160000000  0.5076460000000 1.0
C      1  0.4454880000000  0.5307370000000  0.4629360000000 1.0
C      1  0.5053480000000  0.4578480000000  0.4321350000000 1.0
C      1  0.5808420000000  0.4964000000000  0.4753350000000 1.0
C      1  0.5202870000000  0.4539220000000  0.4804040000000 1.0
C      1  0.4846140000000  0.5560530000000  0.4630900000000 1.0
C      1  0.5568860000000  0.4562210000000  0.5108470000000 1.0
C      1  0.4325190000000  0.5038740000000  0.4635460000000 1.0
C      1  0.5133900000000  0.5566060000000  0.4683550000000 1.0
C      1  0.4483190000000  0.5449670000000  0.4885080000000 1.0
C      1  0.5272230000000  0.5329020000000  0.4583380000000 1.0
C      1  0.5161190000000  0.4906650000000  0.5051240000000 1.0
C      1  0.4893760000000  0.5046300000000  0.4573730000000 1.0
C      1  0.4759420000000  0.5201750000000  0.5216260000000 1.0
C      1  0.5732500000000  0.4672660000000  0.4669990000000 1.0
C      1  0.4462460000000  0.4713070000000  0.4955180000000 1.0
C      1  0.4303880000000  0.4658550000000  0.5176600000000 1.0
C      1  0.4795650000000  0.4573020000000  0.5423770000000 1.0
C      1  0.5335100000000  0.5240440000000  0.4861240000000 1.0
C      1  0.4460620000000  0.4858840000000  0.4468920000000 1.0
C      1  0.4508320000000  0.5217220000000  0.5059540000000 1.0
END
