TITL C-883730-8503-50 84.9204898259843 125000 -25557.5679732524 0 0 172 (C1) n - 1
REM
REM in /home/nfs/bkarasulu/CARBON/AIRSS/Generating-Clusters/ReaxFF-fromJPCA2015/Units_Real/with-SteepDescent/Only-C1/SD-CG/Try1-3A/FIRE-CG
REM
REM
REM
REM
REM
REM ./C.cell (11c1c37f851c82e70ff6c80c92926a4b)
REM
REM compiler GCC version 9.2.1 20190827 (Red Hat 9.2.1-1)
REM options -cpp -mtune=generic -march=x86-64 -g -O0 -fpre-include=/usr/include/finclude/math-vector-fortran.h
REM seed -917308207 263361708 -839995071 -63313557 -1251680071 -1442285810 -796774347 1135553523 -1624175671 -515959391 -987640411 666797816 -603289133 989979018 198143685 813074840 -1531019947 -1284893820 -299003374 -1608731984 486593784 -1176968630 1504764874 523570955 -917459409 -227020704 -772710567 -1282893643 77294392 -2142577405 -1355202586 73908465 40359231
REM
CELL 1.54180   50.00000   50.00000   50.00000   90.00000   90.00000   90.00000
LATT -1
SFAC C  
C      1  0.5347050000000  0.4720460000000  0.3999700000000 1.0
C      1  0.4803020000000  0.5417230000000  0.4933750000000 1.0
C      1  0.4695360000000  0.4160470000000  0.5535930000000 1.0
C      1  0.4695130000000  0.5293290000000  0.5987400000000 1.0
C      1  0.4884580000000  0.5866560000000  0.5847410000000 1.0
C      1  0.5765280000000  0.4901980000000  0.5401260000000 1.0
C      1  0.5055790000000  0.4360630000000  0.4130340000000 1.0
C      1  0.5649280000000  0.5873140000000  0.4385310000000 1.0
C      1  0.5891990000000  0.5754340000000  0.4823970000000 1.0
C      1  0.5153620000000  0.5035750000000  0.4842150000000 1.0
C      1  0.5362030000000  0.6068730000000  0.5176320000000 1.0
C      1  0.4664260000000  0.4542290000000  0.5963290000000 1.0
C      1  0.5168990000000  0.4612940000000  0.5353850000000 1.0
C      1  0.4872370000000  0.6075900000000  0.4941600000000 1.0
C      1  0.4559900000000  0.5385660000000  0.5753140000000 1.0
C      1  0.5546330000000  0.4419670000000  0.5783300000000 1.0
C      1  0.4746480000000  0.4669170000000  0.4425240000000 1.0
C      1  0.4585330000000  0.6034330000000  0.4957300000000 1.0
C      1  0.5678150000000  0.5088770000000  0.5188640000000 1.0
C      1  0.4274070000000  0.5345450000000  0.5765480000000 1.0
C      1  0.4584870000000  0.5638430000000  0.4351450000000 1.0
C      1  0.5396640000000  0.5801080000000  0.4694670000000 1.0
C      1  0.5575790000000  0.5675740000000  0.4543020000000 1.0
C      1  0.4167750000000  0.5415410000000  0.5490610000000 1.0
C      1  0.5658980000000  0.5317520000000  0.4853290000000 1.0
C      1  0.5707730000000  0.4992260000000  0.5691140000000 1.0
C      1  0.4425830000000  0.4948250000000  0.5485180000000 1.0
C      1  0.5334610000000  0.4826710000000  0.5314850000000 1.0
C      1  0.5543620000000  0.4936930000000  0.5941640000000 1.0
C      1  0.4892340000000  0.4449030000000  0.4927730000000 1.0
C      1  0.3959400000000  0.4917780000000  0.5064840000000 1.0
C      1  0.4568250000000  0.3998940000000  0.4862970000000 1.0
C      1  0.4618440000000  0.4953690000000  0.3915630000000 1.0
C      1  0.5022020000000  0.5545770000000  0.4186540000000 1.0
C      1  0.5804060000000  0.5760370000000  0.5105740000000 1.0
C      1  0.4562390000000  0.5729340000000  0.5356880000000 1.0
C      1  0.5232870000000  0.4787300000000  0.5002960000000 1.0
C      1  0.5124830000000  0.5432450000000  0.4439460000000 1.0
C      1  0.4834540000000  0.5272440000000  0.5393280000000 1.0
C      1  0.4434870000000  0.5123920000000  0.4082950000000 1.0
C      1  0.4085780000000  0.5466620000000  0.4898240000000 1.0
C      1  0.4342060000000  0.4505240000000  0.5364880000000 1.0
C      1  0.4208420000000  0.5561250000000  0.4513460000000 1.0
C      1  0.4762480000000  0.4805850000000  0.6052860000000 1.0
C      1  0.6070990000000  0.4500100000000  0.4858380000000 1.0
C      1  0.5376450000000  0.4023980000000  0.5426230000000 1.0
C      1  0.5396280000000  0.5352690000000  0.4939690000000 1.0
C      1  0.4134720000000  0.5088330000000  0.5159930000000 1.0
C      1  0.5248320000000  0.4423470000000  0.5813900000000 1.0
C      1  0.5364350000000  0.5075030000000  0.4657390000000 1.0
C      1  0.5757480000000  0.4835430000000  0.4308460000000 1.0
C      1  0.5302980000000  0.5224370000000  0.4412670000000 1.0
C      1  0.6019980000000  0.4704920000000  0.4656240000000 1.0
C      1  0.5906390000000  0.5057750000000  0.4444220000000 1.0
C      1  0.4943210000000  0.4849740000000  0.5647620000000 1.0
C      1  0.5237220000000  0.4430570000000  0.4361850000000 1.0
C      1  0.4777790000000  0.4360880000000  0.5163970000000 1.0
C      1  0.4921760000000  0.4476230000000  0.5377330000000 1.0
C      1  0.4515720000000  0.4774590000000  0.5003240000000 1.0
C      1  0.4057370000000  0.5350550000000  0.4615510000000 1.0
C      1  0.5400000000000  0.4036970000000  0.4958320000000 1.0
C      1  0.4048150000000  0.4546850000000  0.4714840000000 1.0
C      1  0.4072820000000  0.4854160000000  0.4762070000000 1.0
C      1  0.5525230000000  0.4323140000000  0.5043480000000 1.0
C      1  0.4624330000000  0.4096360000000  0.4329900000000 1.0
C      1  0.4051950000000  0.5202130000000  0.5350880000000 1.0
C      1  0.5957620000000  0.4481690000000  0.5131230000000 1.0
C      1  0.4530970000000  0.5315550000000  0.4881970000000 1.0
C      1  0.4356200000000  0.4493690000000  0.4281250000000 1.0
C      1  0.5680840000000  0.4423250000000  0.5510760000000 1.0
C      1  0.4321060000000  0.5087100000000  0.5917750000000 1.0
C      1  0.4368680000000  0.4243210000000  0.4965280000000 1.0
C      1  0.5154990000000  0.5787330000000  0.5926830000000 1.0
C      1  0.5532210000000  0.4265930000000  0.5334730000000 1.0
C      1  0.4304340000000  0.4861020000000  0.5741090000000 1.0
C      1  0.5024620000000  0.5098400000000  0.5507710000000 1.0
C      1  0.5089930000000  0.4018490000000  0.5517960000000 1.0
C      1  0.5099700000000  0.4869290000000  0.3927740000000 1.0
C      1  0.4981480000000  0.6101390000000  0.4680900000000 1.0
C      1  0.4569440000000  0.4328510000000  0.4181190000000 1.0
C      1  0.4463000000000  0.4460520000000  0.4771580000000 1.0
C      1  0.4031290000000  0.4505500000000  0.5366760000000 1.0
C      1  0.4974530000000  0.4689790000000  0.5023260000000 1.0
C      1  0.5210060000000  0.5980620000000  0.4571620000000 1.0
C      1  0.4470210000000  0.4754160000000  0.4339820000000 1.0
C      1  0.4951640000000  0.5841930000000  0.4545850000000 1.0
C      1  0.5840850000000  0.5326660000000  0.4384240000000 1.0
C      1  0.4390410000000  0.5847220000000  0.4838880000000 1.0
C      1  0.5888650000000  0.5547140000000  0.5281740000000 1.0
C      1  0.5427620000000  0.4762310000000  0.4657640000000 1.0
C      1  0.4070660000000  0.4352620000000  0.4920410000000 1.0
C      1  0.5867570000000  0.5933830000000  0.4597530000000 1.0
C      1  0.4803240000000  0.4500040000000  0.4113330000000 1.0
C      1  0.5016930000000  0.5546430000000  0.4703390000000 1.0
C      1  0.5203460000000  0.5329760000000  0.5981400000000 1.0
C      1  0.5428520000000  0.5170950000000  0.4128070000000 1.0
C      1  0.6045280000000  0.5366120000000  0.5132220000000 1.0
C      1  0.5314930000000  0.5111410000000  0.5418030000000 1.0
C      1  0.5425650000000  0.4239570000000  0.4530270000000 1.0
C      1  0.6167350000000  0.5192270000000  0.4969910000000 1.0
C      1  0.5542500000000  0.4891450000000  0.4122440000000 1.0
C      1  0.5479140000000  0.5632250000000  0.5610410000000 1.0
C      1  0.5346880000000  0.5610390000000  0.5328210000000 1.0
C      1  0.5843050000000  0.4620240000000  0.5363570000000 1.0
C      1  0.3880850000000  0.4688440000000  0.5216370000000 1.0
C      1  0.5716840000000  0.5482080000000  0.5530470000000 1.0
C      1  0.3908970000000  0.4423590000000  0.5138080000000 1.0
C      1  0.4934040000000  0.5409340000000  0.6068000000000 1.0
C      1  0.5040700000000  0.5996540000000  0.5194070000000 1.0
C      1  0.5264400000000  0.5586290000000  0.4848520000000 1.0
C      1  0.4852860000000  0.4015470000000  0.5338860000000 1.0
C      1  0.5422960000000  0.5293270000000  0.5210870000000 1.0
C      1  0.4838650000000  0.5753790000000  0.4273210000000 1.0
C      1  0.5302680000000  0.4460540000000  0.4082090000000 1.0
C      1  0.4290470000000  0.5625160000000  0.5307620000000 1.0
C      1  0.4283450000000  0.5292830000000  0.5032110000000 1.0
C      1  0.4669940000000  0.5238680000000  0.3947820000000 1.0
C      1  0.4562800000000  0.6014940000000  0.5248810000000 1.0
C      1  0.5801540000000  0.4263980000000  0.5038020000000 1.0
C      1  0.4509080000000  0.4298960000000  0.5216400000000 1.0
C      1  0.5521760000000  0.5842270000000  0.5188590000000 1.0
C      1  0.5768190000000  0.5060540000000  0.4918380000000 1.0
C      1  0.4742870000000  0.4443320000000  0.4671780000000 1.0
C      1  0.5659620000000  0.5686630000000  0.4144920000000 1.0
C      1  0.5166340000000  0.5148900000000  0.3960980000000 1.0
C      1  0.4412240000000  0.4772100000000  0.5265450000000 1.0
C      1  0.5821130000000  0.4599440000000  0.4466540000000 1.0
C      1  0.5049870000000  0.4214880000000  0.5752230000000 1.0
C      1  0.4778820000000  0.4883920000000  0.5024860000000 1.0
C      1  0.4817380000000  0.3978040000000  0.5002500000000 1.0
C      1  0.4946110000000  0.4872570000000  0.4477920000000 1.0
C      1  0.4257430000000  0.4429900000000  0.4554570000000 1.0
C      1  0.5673130000000  0.5396310000000  0.4156280000000 1.0
C      1  0.4832510000000  0.4761450000000  0.3953090000000 1.0
C      1  0.4369320000000  0.4892510000000  0.4798550000000 1.0
C      1  0.4951220000000  0.5332410000000  0.3990650000000 1.0
C      1  0.5695620000000  0.4340670000000  0.4556690000000 1.0
C      1  0.5269580000000  0.4058370000000  0.4700440000000 1.0
C      1  0.4814540000000  0.4141140000000  0.4534060000000 1.0
C      1  0.4522020000000  0.5115090000000  0.4688010000000 1.0
C      1  0.4980340000000  0.4006170000000  0.4765780000000 1.0
C      1  0.5136950000000  0.4700610000000  0.5818490000000 1.0
C      1  0.4695360000000  0.5383480000000  0.4406070000000 1.0
C      1  0.4829400000000  0.5541630000000  0.5243330000000 1.0
C      1  0.5190890000000  0.4728580000000  0.4492530000000 1.0
C      1  0.4806240000000  0.6079210000000  0.5400020000000 1.0
C      1  0.5445520000000  0.4605400000000  0.4895650000000 1.0
C      1  0.4932200000000  0.5688360000000  0.6058920000000 1.0
C      1  0.5328770000000  0.5568360000000  0.5856090000000 1.0
C      1  0.5301560000000  0.3921820000000  0.5185480000000 1.0
C      1  0.4216650000000  0.5696700000000  0.5025760000000 1.0
C      1  0.5072140000000  0.5703600000000  0.5268520000000 1.0
C      1  0.4907040000000  0.5132220000000  0.4939970000000 1.0
C      1  0.4108660000000  0.5068380000000  0.4532590000000 1.0
C      1  0.5769990000000  0.5494590000000  0.4643630000000 1.0
C      1  0.4566260000000  0.3978970000000  0.4574940000000 1.0
C      1  0.5892870000000  0.4282960000000  0.4773500000000 1.0
C      1  0.4318430000000  0.5009260000000  0.4332540000000 1.0
C      1  0.4396840000000  0.4605430000000  0.5862400000000 1.0
C      1  0.4754780000000  0.5130630000000  0.4506980000000 1.0
C      1  0.4589900000000  0.5042600000000  0.6039190000000 1.0
C      1  0.4579790000000  0.5201720000000  0.5515580000000 1.0
C      1  0.4499890000000  0.4531280000000  0.5603950000000 1.0
C      1  0.4378050000000  0.5772220000000  0.4554030000000 1.0
C      1  0.6010360000000  0.4997670000000  0.4727050000000 1.0
C      1  0.5059630000000  0.4848070000000  0.6059520000000 1.0
C      1  0.5581890000000  0.4663720000000  0.5913540000000 1.0
C      1  0.4759240000000  0.4645390000000  0.5541480000000 1.0
C      1  0.5584240000000  0.5235100000000  0.5602760000000 1.0
C      1  0.4774580000000  0.4296770000000  0.5782060000000 1.0
C      1  0.5273090000000  0.5053470000000  0.6024730000000 1.0
C      1  0.4731900000000  0.5905970000000  0.5612440000000 1.0
END
