TITL C-883739-1268-90 -10.0935675393151 125000 -9906.46048934862 0 0 67 (C1) n - 1
REM
REM in /home/nfs/bkarasulu/CARBON/AIRSS/Generating-Clusters/ReaxFF-fromJPCA2015/Units_Real/with-SteepDescent/Only-C1/SD-CG/Try1-3A/FIRE-CG
REM
REM
REM
REM
REM
REM ./C.cell (11c1c37f851c82e70ff6c80c92926a4b)
REM
REM compiler GCC version 9.2.1 20190827 (Red Hat 9.2.1-1)
REM options -cpp -mtune=generic -march=x86-64 -g -O0 -fpre-include=/usr/include/finclude/math-vector-fortran.h
REM seed -246137476 1634788179 -1624494649 2051934630 -1894743942 214534571 -2057024086 -851635319 -108076039 1714604374 -1986444520 724063744 1913936988 468748345 2065679284 1828506462 -2108651016 -931085127 861804384 -1587939511 788022956 -1342039044 297384486 1129279197 424584155 -1133525365 -308031363 -1298237685 -955772675 2081503619 -1217818360 1197743382 1054963951
REM
CELL 1.54180   50.00000   50.00000   50.00000   90.00000   90.00000   90.00000
LATT -1
SFAC C  
C      1  0.4422480000000  0.5585290000000  0.4672540000000 1.0
C      1  0.4250820000000  0.4723870000000  0.4983900000000 1.0
C      1  0.5503590000000  0.4562930000000  0.4658220000000 1.0
C      1  0.5139880000000  0.5335050000000  0.4735870000000 1.0
C      1  0.5233290000000  0.5427420000000  0.5407860000000 1.0
C      1  0.5373160000000  0.4931420000000  0.4916310000000 1.0
C      1  0.5709460000000  0.5396170000000  0.5022620000000 1.0
C      1  0.4940280000000  0.5568500000000  0.5134860000000 1.0
C      1  0.4725220000000  0.5124910000000  0.4253690000000 1.0
C      1  0.5256790000000  0.4557410000000  0.5587560000000 1.0
C      1  0.4748480000000  0.5189290000000  0.4731520000000 1.0
C      1  0.5056340000000  0.5447460000000  0.4477490000000 1.0
C      1  0.5628750000000  0.5302810000000  0.4756690000000 1.0
C      1  0.4371840000000  0.5171620000000  0.5237170000000 1.0
C      1  0.5621980000000  0.4818660000000  0.4986510000000 1.0
C      1  0.5022250000000  0.5014540000000  0.5359540000000 1.0
C      1  0.5404010000000  0.4952350000000  0.4406140000000 1.0
C      1  0.5049700000000  0.4801070000000  0.5188510000000 1.0
C      1  0.5517920000000  0.5062760000000  0.5315540000000 1.0
C      1  0.5719540000000  0.5281920000000  0.5304110000000 1.0
C      1  0.5347200000000  0.4812270000000  0.5667150000000 1.0
C      1  0.5143810000000  0.5052240000000  0.4816380000000 1.0
C      1  0.5203170000000  0.5082080000000  0.5708030000000 1.0
C      1  0.4788320000000  0.5310290000000  0.4487740000000 1.0
C      1  0.5560570000000  0.4803650000000  0.5455640000000 1.0
C      1  0.4300740000000  0.4820340000000  0.4700750000000 1.0
C      1  0.4918080000000  0.5143210000000  0.5763010000000 1.0
C      1  0.5059130000000  0.4545440000000  0.4521020000000 1.0
C      1  0.5699390000000  0.4784450000000  0.4700250000000 1.0
C      1  0.4666320000000  0.4479010000000  0.5306910000000 1.0
C      1  0.4803020000000  0.4394690000000  0.4814710000000 1.0
C      1  0.4804170000000  0.4654730000000  0.4659720000000 1.0
C      1  0.5616170000000  0.5378990000000  0.5550840000000 1.0
C      1  0.4463060000000  0.4677800000000  0.5397010000000 1.0
C      1  0.5202350000000  0.4386810000000  0.5367100000000 1.0
C      1  0.4781970000000  0.5360140000000  0.5599560000000 1.0
C      1  0.4966320000000  0.5012690000000  0.4129040000000 1.0
C      1  0.4936600000000  0.4860420000000  0.4914280000000 1.0
C      1  0.4608470000000  0.4360700000000  0.5039540000000 1.0
C      1  0.4301180000000  0.5085290000000  0.4575200000000 1.0
C      1  0.5353610000000  0.4404920000000  0.4858970000000 1.0
C      1  0.5173010000000  0.5523960000000  0.4954110000000 1.0
C      1  0.4595350000000  0.5724400000000  0.4790380000000 1.0
C      1  0.4651090000000  0.5574460000000  0.5016530000000 1.0
C      1  0.4725800000000  0.5063020000000  0.4968430000000 1.0
C      1  0.5317300000000  0.4674170000000  0.4465640000000 1.0
C      1  0.5243930000000  0.5105800000000  0.4207670000000 1.0
C      1  0.4956870000000  0.5523990000000  0.5421220000000 1.0
C      1  0.5471090000000  0.5514720000000  0.4906300000000 1.0
C      1  0.5241330000000  0.5151360000000  0.5275090000000 1.0
C      1  0.4331620000000  0.4877070000000  0.5216100000000 1.0
C      1  0.4780330000000  0.5133940000000  0.5257950000000 1.0
C      1  0.4493510000000  0.4978810000000  0.4365340000000 1.0
C      1  0.4756800000000  0.4916270000000  0.5736940000000 1.0
C      1  0.5406760000000  0.4417730000000  0.5147630000000 1.0
C      1  0.5235270000000  0.5407190000000  0.4241900000000 1.0
C      1  0.4956890000000  0.4543910000000  0.5301620000000 1.0
C      1  0.5086990000000  0.4350910000000  0.4738890000000 1.0
C      1  0.4323770000000  0.4432950000000  0.4987800000000 1.0
C      1  0.4315830000000  0.5332720000000  0.4744120000000 1.0
C      1  0.4533220000000  0.4743100000000  0.4534920000000 1.0
C      1  0.5618320000000  0.5048740000000  0.4586050000000 1.0
C      1  0.4614130000000  0.4749060000000  0.5616260000000 1.0
C      1  0.4577490000000  0.5220550000000  0.5444840000000 1.0
C      1  0.5360210000000  0.5337980000000  0.5667360000000 1.0
C      1  0.4425640000000  0.5358620000000  0.5017050000000 1.0
C      1  0.5588060000000  0.4628980000000  0.5220360000000 1.0
END
