TITL C-884132-5695-351 297.947526792485 125000 -29358.3233898286 0 0 200 (C1) n - 1
REM
REM in /home/nfs/bkarasulu/CARBON/AIRSS/Generating-Clusters/ReaxFF-fromJPCA2015/Units_Real/with-SteepDescent/Only-C1/SD-CG/Try1-3A/FIRE-CG
REM
REM
REM
REM
REM
REM ./C.cell (11c1c37f851c82e70ff6c80c92926a4b)
REM
REM compiler GCC version 9.2.1 20190827 (Red Hat 9.2.1-1)
REM options -cpp -mtune=generic -march=x86-64 -g -O0 -fpre-include=/usr/include/finclude/math-vector-fortran.h
REM seed 741724212 262314274 -1147612954 -1083106952 -1948399134 -1538966710 1875037232 1468606775 -762143230 541438702 656156914 198295244 -871005903 -1213023709 -1573310889 1888914174 1129889935 -2128051674 1052906767 -1642446377 1562493124 1482438058 -2034806386 -1985448884 -33060925 -2060886083 58818291 2002534173 705409642 -1771254039 -2025914986 1099173019 -1762143718
REM
CELL 1.54180   50.00000   50.00000   50.00000   90.00000   90.00000   90.00000
LATT -1
SFAC C  
C      1  0.5375000000000  0.5529250000000  0.4192860000000 1.0
C      1  0.4349550000000  0.5703820000000  0.5491010000000 1.0
C      1  0.4426550000000  0.4422160000000  0.4081030000000 1.0
C      1  0.5566410000000  0.5317560000000  0.4574290000000 1.0
C      1  0.4278440000000  0.5213820000000  0.5862540000000 1.0
C      1  0.4265780000000  0.5243870000000  0.5619770000000 1.0
C      1  0.5457170000000  0.5062100000000  0.4534060000000 1.0
C      1  0.5521170000000  0.4867900000000  0.5526120000000 1.0
C      1  0.4589920000000  0.4947100000000  0.3828060000000 1.0
C      1  0.5611370000000  0.5131990000000  0.5013590000000 1.0
C      1  0.4786260000000  0.4791670000000  0.5572230000000 1.0
C      1  0.5244680000000  0.5111770000000  0.4703140000000 1.0
C      1  0.5585750000000  0.4973520000000  0.4047840000000 1.0
C      1  0.5680060000000  0.4697610000000  0.4091470000000 1.0
C      1  0.5069940000000  0.4481190000000  0.5684330000000 1.0
C      1  0.4488990000000  0.5888150000000  0.5049510000000 1.0
C      1  0.5849130000000  0.5522270000000  0.5260200000000 1.0
C      1  0.4806400000000  0.4441150000000  0.5102370000000 1.0
C      1  0.4560460000000  0.4913940000000  0.4440730000000 1.0
C      1  0.5182360000000  0.4506040000000  0.4014410000000 1.0
C      1  0.4542340000000  0.5797060000000  0.4344400000000 1.0
C      1  0.5120580000000  0.6022560000000  0.4378520000000 1.0
C      1  0.4748720000000  0.3983360000000  0.4786260000000 1.0
C      1  0.4119070000000  0.4431680000000  0.5799710000000 1.0
C      1  0.5606210000000  0.4809130000000  0.4555320000000 1.0
C      1  0.4648150000000  0.5334970000000  0.3903890000000 1.0
C      1  0.4516280000000  0.5146680000000  0.4854150000000 1.0
C      1  0.5878270000000  0.4893800000000  0.4433790000000 1.0
C      1  0.4939590000000  0.4336290000000  0.4035100000000 1.0
C      1  0.5668800000000  0.5489970000000  0.4137070000000 1.0
C      1  0.5005230000000  0.5873180000000  0.4147960000000 1.0
C      1  0.5576520000000  0.4442790000000  0.5850930000000 1.0
C      1  0.4846590000000  0.5892660000000  0.5648140000000 1.0
C      1  0.4220430000000  0.4183220000000  0.5679440000000 1.0
C      1  0.4349330000000  0.4295950000000  0.5913770000000 1.0
C      1  0.4916760000000  0.5101140000000  0.6214310000000 1.0
C      1  0.5658200000000  0.5735820000000  0.5272950000000 1.0
C      1  0.4634710000000  0.5093230000000  0.6135490000000 1.0
C      1  0.4903050000000  0.4992230000000  0.5752670000000 1.0
C      1  0.5235040000000  0.5317370000000  0.4898600000000 1.0
C      1  0.4927740000000  0.5439460000000  0.4581240000000 1.0
C      1  0.6146000000000  0.4785000000000  0.5092130000000 1.0
C      1  0.4904710000000  0.4427310000000  0.4833630000000 1.0
C      1  0.5435610000000  0.4856100000000  0.5825370000000 1.0
C      1  0.4837950000000  0.5246980000000  0.5664070000000 1.0
C      1  0.4824400000000  0.4321200000000  0.4599090000000 1.0
C      1  0.5166480000000  0.5075330000000  0.5886990000000 1.0
C      1  0.5101740000000  0.4896610000000  0.6108500000000 1.0
C      1  0.4979460000000  0.5299520000000  0.5031000000000 1.0
C      1  0.5810660000000  0.5248030000000  0.5352320000000 1.0
C      1  0.4269510000000  0.4011680000000  0.4985030000000 1.0
C      1  0.3932770000000  0.5157350000000  0.5219050000000 1.0
C      1  0.5945000000000  0.5594640000000  0.4776980000000 1.0
C      1  0.4209880000000  0.5383450000000  0.4351040000000 1.0
C      1  0.4364280000000  0.4877920000000  0.4682080000000 1.0
C      1  0.4746730000000  0.5108910000000  0.4393350000000 1.0
C      1  0.4813320000000  0.5235550000000  0.4793270000000 1.0
C      1  0.5802880000000  0.5638810000000  0.4345450000000 1.0
C      1  0.4653940000000  0.4923770000000  0.5004340000000 1.0
C      1  0.4012130000000  0.4362200000000  0.4758370000000 1.0
C      1  0.6139620000000  0.5208750000000  0.5062000000000 1.0
C      1  0.5798230000000  0.5095840000000  0.6009460000000 1.0
C      1  0.4447090000000  0.4042310000000  0.5207440000000 1.0
C      1  0.4645680000000  0.5661380000000  0.4951840000000 1.0
C      1  0.4973150000000  0.5455190000000  0.5531230000000 1.0
C      1  0.5032520000000  0.5978970000000  0.5190530000000 1.0
C      1  0.5282690000000  0.6111780000000  0.4862620000000 1.0
C      1  0.5068590000000  0.5903750000000  0.4800160000000 1.0
C      1  0.5893640000000  0.4388120000000  0.4474000000000 1.0
C      1  0.4903300000000  0.3966870000000  0.5031950000000 1.0
C      1  0.4331240000000  0.4897110000000  0.5866500000000 1.0
C      1  0.5455230000000  0.5370440000000  0.5072020000000 1.0
C      1  0.5953010000000  0.5452860000000  0.4505570000000 1.0
C      1  0.5336370000000  0.4060300000000  0.4849780000000 1.0
C      1  0.3918580000000  0.4625400000000  0.4773460000000 1.0
C      1  0.4620670000000  0.4421520000000  0.4439590000000 1.0
C      1  0.5442810000000  0.5398830000000  0.5365660000000 1.0
C      1  0.5049800000000  0.5107480000000  0.5270740000000 1.0
C      1  0.5870040000000  0.4146680000000  0.4983360000000 1.0
C      1  0.4167380000000  0.5476930000000  0.5566310000000 1.0
C      1  0.4936720000000  0.4073110000000  0.4510550000000 1.0
C      1  0.5682260000000  0.4739750000000  0.4877600000000 1.0
C      1  0.5120030000000  0.4786350000000  0.4070540000000 1.0
C      1  0.4017550000000  0.4179000000000  0.4995050000000 1.0
C      1  0.4551580000000  0.4823480000000  0.6053350000000 1.0
C      1  0.5381770000000  0.5547160000000  0.4515330000000 1.0
C      1  0.4111410000000  0.5644440000000  0.4941820000000 1.0
C      1  0.5038320000000  0.5474080000000  0.3897620000000 1.0
C      1  0.5724590000000  0.4826830000000  0.5941280000000 1.0
C      1  0.5189240000000  0.5692340000000  0.4015310000000 1.0
C      1  0.4164620000000  0.4902120000000  0.4236900000000 1.0
C      1  0.4329320000000  0.5375570000000  0.5149660000000 1.0
C      1  0.4589960000000  0.5747350000000  0.5675100000000 1.0
C      1  0.5132720000000  0.4870990000000  0.4805770000000 1.0
C      1  0.5453650000000  0.4560260000000  0.4434470000000 1.0
C      1  0.5987520000000  0.4797810000000  0.4860490000000 1.0
C      1  0.3878710000000  0.5143530000000  0.4938790000000 1.0
C      1  0.5048480000000  0.5761870000000  0.5818440000000 1.0
C      1  0.5449250000000  0.4147380000000  0.4428130000000 1.0
C      1  0.5217340000000  0.6147250000000  0.5327340000000 1.0
C      1  0.4891220000000  0.5571460000000  0.5131670000000 1.0
C      1  0.4644290000000  0.4350410000000  0.5928300000000 1.0
C      1  0.4737170000000  0.5484560000000  0.5358960000000 1.0
C      1  0.6026210000000  0.5082240000000  0.4819460000000 1.0
C      1  0.5525660000000  0.4341320000000  0.5579090000000 1.0
C      1  0.5197410000000  0.3958090000000  0.5067490000000 1.0
C      1  0.4277620000000  0.5770810000000  0.5214460000000 1.0
C      1  0.4418470000000  0.4071040000000  0.5490440000000 1.0
C      1  0.5009320000000  0.4733950000000  0.4338140000000 1.0
C      1  0.4081200000000  0.4970960000000  0.4548920000000 1.0
C      1  0.5204610000000  0.5260890000000  0.5460590000000 1.0
C      1  0.6077760000000  0.4801150000000  0.5364530000000 1.0
C      1  0.4702110000000  0.4074300000000  0.5532850000000 1.0
C      1  0.5206610000000  0.4561370000000  0.5443610000000 1.0
C      1  0.5938300000000  0.4565650000000  0.5510390000000 1.0
C      1  0.4910880000000  0.6040900000000  0.4591920000000 1.0
C      1  0.5299840000000  0.5015160000000  0.4033970000000 1.0
C      1  0.5494350000000  0.4594500000000  0.5412800000000 1.0
C      1  0.5325190000000  0.5707380000000  0.5732920000000 1.0
C      1  0.5756260000000  0.5219820000000  0.4781700000000 1.0
C      1  0.4424640000000  0.5968310000000  0.4770050000000 1.0
C      1  0.4193500000000  0.4629120000000  0.5291610000000 1.0
C      1  0.5670530000000  0.5107070000000  0.5539800000000 1.0
C      1  0.5663480000000  0.5862930000000  0.4513310000000 1.0
C      1  0.4283760000000  0.4660810000000  0.4160510000000 1.0
C      1  0.5869930000000  0.4332470000000  0.5348340000000 1.0
C      1  0.5760910000000  0.5818810000000  0.4795890000000 1.0
C      1  0.5344470000000  0.4114730000000  0.5526800000000 1.0
C      1  0.4467850000000  0.5435600000000  0.4907860000000 1.0
C      1  0.5865010000000  0.4335520000000  0.4774750000000 1.0
C      1  0.3936120000000  0.4861940000000  0.5559550000000 1.0
C      1  0.4738720000000  0.5765840000000  0.4133830000000 1.0
C      1  0.4960310000000  0.6078470000000  0.5446650000000 1.0
C      1  0.4472170000000  0.4084790000000  0.4788560000000 1.0
C      1  0.4734870000000  0.4594750000000  0.6025900000000 1.0
C      1  0.5687460000000  0.4246710000000  0.4339730000000 1.0
C      1  0.4092940000000  0.4730780000000  0.5768840000000 1.0
C      1  0.4644050000000  0.5566760000000  0.5905070000000 1.0
C      1  0.5108930000000  0.4199080000000  0.5700050000000 1.0
C      1  0.4454070000000  0.5175540000000  0.3936980000000 1.0
C      1  0.5135930000000  0.5630410000000  0.4648510000000 1.0
C      1  0.5063170000000  0.4634940000000  0.5212150000000 1.0
C      1  0.5891700000000  0.4633990000000  0.4297480000000 1.0
C      1  0.4310770000000  0.5645720000000  0.4436290000000 1.0
C      1  0.5425870000000  0.6122580000000  0.5117650000000 1.0
C      1  0.5401730000000  0.5964050000000  0.4442460000000 1.0
C      1  0.4935320000000  0.4856990000000  0.5339310000000 1.0
C      1  0.4765230000000  0.5551800000000  0.3933610000000 1.0
C      1  0.5166670000000  0.5279700000000  0.4096570000000 1.0
C      1  0.4721940000000  0.4687500000000  0.4357410000000 1.0
C      1  0.6032610000000  0.5483290000000  0.5034140000000 1.0
C      1  0.4116030000000  0.4935760000000  0.5312970000000 1.0
C      1  0.4055950000000  0.5272220000000  0.4569180000000 1.0
C      1  0.3992250000000  0.5395780000000  0.4830750000000 1.0
C      1  0.5360050000000  0.4610150000000  0.5963330000000 1.0
C      1  0.5455560000000  0.4507890000000  0.4139820000000 1.0
C      1  0.5060940000000  0.5304520000000  0.6066300000000 1.0
C      1  0.5252900000000  0.4784340000000  0.5049220000000 1.0
C      1  0.4940760000000  0.5284480000000  0.4336330000000 1.0
C      1  0.5186600000000  0.4599860000000  0.4522830000000 1.0
C      1  0.5115380000000  0.5718250000000  0.5250360000000 1.0
C      1  0.4847220000000  0.4135620000000  0.4220620000000 1.0
C      1  0.4868120000000  0.4956660000000  0.4825070000000 1.0
C      1  0.4222150000000  0.5762370000000  0.4699140000000 1.0
C      1  0.4546630000000  0.5285350000000  0.5302000000000 1.0
C      1  0.4926130000000  0.5553840000000  0.5980110000000 1.0
C      1  0.5523230000000  0.4865010000000  0.5109420000000 1.0
C      1  0.5920920000000  0.5178130000000  0.4363280000000 1.0
C      1  0.5059100000000  0.4621340000000  0.5984710000000 1.0
C      1  0.4510720000000  0.5325200000000  0.6001680000000 1.0
C      1  0.6054130000000  0.5100360000000  0.5325390000000 1.0
C      1  0.5756110000000  0.5210260000000  0.4128900000000 1.0
C      1  0.4574880000000  0.4637780000000  0.5092560000000 1.0
C      1  0.4627030000000  0.5981570000000  0.4556490000000 1.0
C      1  0.5400030000000  0.4042540000000  0.5254800000000 1.0
C      1  0.5239850000000  0.4034290000000  0.4574100000000 1.0
C      1  0.5820540000000  0.4597150000000  0.5783040000000 1.0
C      1  0.5153340000000  0.4478500000000  0.4762630000000 1.0
C      1  0.4034560000000  0.4402310000000  0.5186440000000 1.0
C      1  0.5475910000000  0.5534010000000  0.5878650000000 1.0
C      1  0.4320360000000  0.4352450000000  0.4734440000000 1.0
C      1  0.4470940000000  0.4628050000000  0.5373120000000 1.0
C      1  0.4565200000000  0.4211790000000  0.4242160000000 1.0
C      1  0.4682590000000  0.4455550000000  0.3918630000000 1.0
C      1  0.4400210000000  0.4617130000000  0.4815080000000 1.0
C      1  0.4508540000000  0.4829030000000  0.5565800000000 1.0
C      1  0.4402900000000  0.5072900000000  0.5435400000000 1.0
C      1  0.5373630000000  0.4348870000000  0.4884740000000 1.0
C      1  0.5647080000000  0.5914950000000  0.5055630000000 1.0
C      1  0.4827750000000  0.4152830000000  0.5777500000000 1.0
C      1  0.5629100000000  0.5358270000000  0.6020010000000 1.0
C      1  0.4737050000000  0.4132610000000  0.5222190000000 1.0
C      1  0.5635090000000  0.4467430000000  0.4911950000000 1.0
C      1  0.4646170000000  0.4721310000000  0.3846120000000 1.0
C      1  0.4263380000000  0.5164070000000  0.4161340000000 1.0
C      1  0.5769110000000  0.5256990000000  0.5775100000000 1.0
C      1  0.5717210000000  0.4124640000000  0.5223750000000 1.0
C      1  0.3870090000000  0.4892460000000  0.4755400000000 1.0
C      1  0.5374000000000  0.5686950000000  0.5412580000000 1.0
C      1  0.4064270000000  0.5418280000000  0.5284010000000 1.0
END
