TITL C-884141-4321-237 16.5849140908903 125000 -17465.342934392 0 0 120 (C1) n - 1
REM
REM in /home/nfs/bkarasulu/CARBON/AIRSS/Generating-Clusters/ReaxFF-fromJPCA2015/Units_Real/with-SteepDescent/Only-C1/SD-CG/Try1-3A/FIRE-CG
REM
REM
REM
REM
REM
REM ./C.cell (11c1c37f851c82e70ff6c80c92926a4b)
REM
REM compiler GCC version 9.2.1 20190827 (Red Hat 9.2.1-1)
REM options -cpp -mtune=generic -march=x86-64 -g -O0 -fpre-include=/usr/include/finclude/math-vector-fortran.h
REM seed 1314549937 1558161700 735835409 -120921486 366310168 130288235 57410879 1881422129 -1445189681 442598215 -1985192246 1639573178 -1287751213 -96036567 -1255545471 -1725958205 -79007685 -1811328079 -688907645 415694498 1223289615 1750471730 1050142132 1222712157 -2062827311 247397746 -582553709 -1903166672 568597816 1380151815 1415217256 -722117807 -1466424066
REM
CELL 1.54180   50.00000   50.00000   50.00000   90.00000   90.00000   90.00000
LATT -1
SFAC C  
C      1  0.4498320000000  0.5225940000000  0.4353080000000 1.0
C      1  0.4525340000000  0.4944630000000  0.5274460000000 1.0
C      1  0.6019460000000  0.4657440000000  0.4622610000000 1.0
C      1  0.4346600000000  0.5133050000000  0.5385660000000 1.0
C      1  0.4893540000000  0.5268070000000  0.4695570000000 1.0
C      1  0.4692140000000  0.5682960000000  0.5167860000000 1.0
C      1  0.5152710000000  0.4045290000000  0.4995990000000 1.0
C      1  0.5678170000000  0.4991010000000  0.5640580000000 1.0
C      1  0.5165350000000  0.5699520000000  0.5582960000000 1.0
C      1  0.5231210000000  0.5889110000000  0.4725850000000 1.0
C      1  0.4339310000000  0.5017040000000  0.4455380000000 1.0
C      1  0.5786870000000  0.5524090000000  0.4655010000000 1.0
C      1  0.4694240000000  0.4312450000000  0.5314660000000 1.0
C      1  0.4151100000000  0.5576480000000  0.5312390000000 1.0
C      1  0.4971390000000  0.4292060000000  0.5732120000000 1.0
C      1  0.4311450000000  0.4479020000000  0.4579210000000 1.0
C      1  0.4952850000000  0.5299950000000  0.4070000000000 1.0
C      1  0.4678860000000  0.5639920000000  0.4275410000000 1.0
C      1  0.5502990000000  0.5801900000000  0.4785580000000 1.0
C      1  0.4859180000000  0.5811760000000  0.4427980000000 1.0
C      1  0.5004550000000  0.4545700000000  0.5634430000000 1.0
C      1  0.4385110000000  0.5127350000000  0.5667910000000 1.0
C      1  0.5526220000000  0.5191280000000  0.5799550000000 1.0
C      1  0.5033230000000  0.5294910000000  0.5871300000000 1.0
C      1  0.5468440000000  0.4324820000000  0.5278220000000 1.0
C      1  0.4965220000000  0.5842080000000  0.5428210000000 1.0
C      1  0.5022550000000  0.4850310000000  0.5345360000000 1.0
C      1  0.5323540000000  0.5264110000000  0.4893880000000 1.0
C      1  0.4217430000000  0.5356920000000  0.4841690000000 1.0
C      1  0.5477940000000  0.4792870000000  0.4287150000000 1.0
C      1  0.5796960000000  0.5430950000000  0.4926130000000 1.0
C      1  0.4764920000000  0.5820180000000  0.4702350000000 1.0
C      1  0.4514260000000  0.5499370000000  0.4465610000000 1.0
C      1  0.4403080000000  0.4713700000000  0.4429220000000 1.0
C      1  0.4152560000000  0.4396060000000  0.5316580000000 1.0
C      1  0.5302950000000  0.4562470000000  0.5737140000000 1.0
C      1  0.4909360000000  0.4498040000000  0.4865650000000 1.0
C      1  0.5554730000000  0.4290240000000  0.4992030000000 1.0
C      1  0.5201570000000  0.4243960000000  0.5203620000000 1.0
C      1  0.5614850000000  0.5665210000000  0.5300540000000 1.0
C      1  0.4523030000000  0.5450920000000  0.5226850000000 1.0
C      1  0.4673790000000  0.5783580000000  0.5433640000000 1.0
C      1  0.4936720000000  0.4578210000000  0.5309900000000 1.0
C      1  0.4472310000000  0.4204040000000  0.4553930000000 1.0
C      1  0.4170280000000  0.5135490000000  0.4670770000000 1.0
C      1  0.4443010000000  0.4200780000000  0.4873140000000 1.0
C      1  0.4460600000000  0.4855740000000  0.5726020000000 1.0
C      1  0.5710990000000  0.4515260000000  0.4864600000000 1.0
C      1  0.4721420000000  0.4913010000000  0.5743170000000 1.0
C      1  0.5620570000000  0.5364420000000  0.5314890000000 1.0
C      1  0.5443030000000  0.5210210000000  0.4278480000000 1.0
C      1  0.4439980000000  0.4723810000000  0.5461560000000 1.0
C      1  0.5283960000000  0.4202030000000  0.4534210000000 1.0
C      1  0.4759970000000  0.5338240000000  0.5859570000000 1.0
C      1  0.4825400000000  0.4139190000000  0.5571000000000 1.0
C      1  0.5602830000000  0.5215220000000  0.4844400000000 1.0
C      1  0.4058140000000  0.4869930000000  0.5102570000000 1.0
C      1  0.5946670000000  0.4401730000000  0.4628750000000 1.0
C      1  0.4291430000000  0.5544210000000  0.5038640000000 1.0
C      1  0.5485220000000  0.4521880000000  0.5502450000000 1.0
C      1  0.5510200000000  0.5477600000000  0.5721490000000 1.0
C      1  0.5463060000000  0.5710930000000  0.5554180000000 1.0
C      1  0.4989490000000  0.5873330000000  0.4883560000000 1.0
C      1  0.5842910000000  0.4673260000000  0.5070990000000 1.0
C      1  0.5200650000000  0.5421810000000  0.5118240000000 1.0
C      1  0.5914940000000  0.5023180000000  0.5457350000000 1.0
C      1  0.4992920000000  0.5724830000000  0.5143470000000 1.0
C      1  0.4361100000000  0.4487450000000  0.4877840000000 1.0
C      1  0.4747930000000  0.4854890000000  0.4794600000000 1.0
C      1  0.4873770000000  0.4047340000000  0.4906340000000 1.0
C      1  0.5035960000000  0.5153000000000  0.4526610000000 1.0
C      1  0.4697580000000  0.5177590000000  0.4129820000000 1.0
C      1  0.5856350000000  0.5213750000000  0.5258100000000 1.0
C      1  0.5269930000000  0.4781730000000  0.4957810000000 1.0
C      1  0.5993590000000  0.4927750000000  0.4667730000000 1.0
C      1  0.4650890000000  0.4601040000000  0.4346680000000 1.0
C      1  0.5100430000000  0.4525660000000  0.5075250000000 1.0
C      1  0.5358950000000  0.4155420000000  0.4816100000000 1.0
C      1  0.4807020000000  0.4654370000000  0.5773490000000 1.0
C      1  0.5938020000000  0.4826380000000  0.5245010000000 1.0
C      1  0.4123670000000  0.4585670000000  0.5095450000000 1.0
C      1  0.4444250000000  0.4439690000000  0.5412890000000 1.0
C      1  0.5668090000000  0.4987960000000  0.4680940000000 1.0
C      1  0.4535330000000  0.4981820000000  0.4949780000000 1.0
C      1  0.4576180000000  0.5591160000000  0.4741480000000 1.0
C      1  0.4821420000000  0.4832560000000  0.4266540000000 1.0
C      1  0.4512020000000  0.5383330000000  0.5733290000000 1.0
C      1  0.5265830000000  0.4434160000000  0.4378200000000 1.0
C      1  0.5054000000000  0.4250450000000  0.4360820000000 1.0
C      1  0.4244740000000  0.4934240000000  0.4883840000000 1.0
C      1  0.4753950000000  0.5380630000000  0.4861490000000 1.0
C      1  0.4774490000000  0.4331730000000  0.4443780000000 1.0
C      1  0.4970480000000  0.4870880000000  0.4538230000000 1.0
C      1  0.5264430000000  0.5089710000000  0.5916000000000 1.0
C      1  0.5168150000000  0.5039840000000  0.4957100000000 1.0
C      1  0.4953060000000  0.5268680000000  0.5103700000000 1.0
C      1  0.5047500000000  0.4762430000000  0.4106550000000 1.0
C      1  0.5575820000000  0.5663820000000  0.4522920000000 1.0
C      1  0.5182180000000  0.5334590000000  0.4276190000000 1.0
C      1  0.4909310000000  0.5283770000000  0.5390300000000 1.0
C      1  0.4007390000000  0.5345320000000  0.5330370000000 1.0
C      1  0.5336300000000  0.5606820000000  0.4354710000000 1.0
C      1  0.5288500000000  0.4971410000000  0.5366320000000 1.0
C      1  0.5276100000000  0.4705370000000  0.4501150000000 1.0
C      1  0.5284930000000  0.4828360000000  0.5839840000000 1.0
C      1  0.4454970000000  0.5581270000000  0.5492960000000 1.0
C      1  0.5291850000000  0.4714450000000  0.4086160000000 1.0
C      1  0.4803660000000  0.5016690000000  0.5454980000000 1.0
C      1  0.5062380000000  0.5415980000000  0.5597170000000 1.0
C      1  0.4648470000000  0.4136300000000  0.5071080000000 1.0
C      1  0.5347520000000  0.5248090000000  0.5313130000000 1.0
C      1  0.4668920000000  0.4607230000000  0.4903490000000 1.0
C      1  0.4874450000000  0.4277600000000  0.4721000000000 1.0
C      1  0.4742700000000  0.5454520000000  0.4067130000000 1.0
C      1  0.4069660000000  0.5071490000000  0.5320670000000 1.0
C      1  0.5519590000000  0.4811920000000  0.5469580000000 1.0
C      1  0.5477220000000  0.4744530000000  0.4754470000000 1.0
C      1  0.5649670000000  0.5689870000000  0.5016420000000 1.0
C      1  0.5154770000000  0.5809500000000  0.4446470000000 1.0
C      1  0.5630470000000  0.5034720000000  0.4371190000000 1.0
END
