TITL C-883734-4173-173 -2.74827052065391 125000 -14327.53109484 0 0 97 (C1) n - 1
REM
REM in /home/nfs/bkarasulu/CARBON/AIRSS/Generating-Clusters/ReaxFF-fromJPCA2015/Units_Real/with-SteepDescent/Only-C1/SD-CG/Try1-3A/FIRE-CG
REM
REM
REM
REM
REM
REM ./C.cell (11c1c37f851c82e70ff6c80c92926a4b)
REM
REM compiler GCC version 9.2.1 20190827 (Red Hat 9.2.1-1)
REM options -cpp -mtune=generic -march=x86-64 -g -O0 -fpre-include=/usr/include/finclude/math-vector-fortran.h
REM seed -610002150 1375415494 -174342538 -1987110887 -1552121629 -1374349250 -447571720 -926814027 804168285 -1712175467 1071883531 1906388476 -1354976931 -654303530 1456181971 2103237565 -1397335354 949138562 -1484379397 -1808917460 1237608187 -31554451 1937601013 -1165057031 2115855424 -2035591620 -26013218 -792119593 1995815549 1036676443 961751953 -535045876 110661552
REM
CELL 1.54180   50.00000   50.00000   50.00000   90.00000   90.00000   90.00000
LATT -1
SFAC C  
C      1  0.4898500000000  0.5320910000000  0.5010250000000 1.0
C      1  0.5590360000000  0.5622640000000  0.5056780000000 1.0
C      1  0.4946490000000  0.4624420000000  0.4669890000000 1.0
C      1  0.5663930000000  0.4982800000000  0.4508930000000 1.0
C      1  0.4191050000000  0.5826280000000  0.5285280000000 1.0
C      1  0.5679590000000  0.4451680000000  0.4921390000000 1.0
C      1  0.4919190000000  0.4955780000000  0.4156190000000 1.0
C      1  0.5189480000000  0.5683140000000  0.5319180000000 1.0
C      1  0.5766990000000  0.4934800000000  0.5301260000000 1.0
C      1  0.5561710000000  0.5229040000000  0.4648460000000 1.0
C      1  0.4877790000000  0.5565010000000  0.4181170000000 1.0
C      1  0.5330150000000  0.5224880000000  0.4837320000000 1.0
C      1  0.4311310000000  0.5126220000000  0.5547700000000 1.0
C      1  0.5204610000000  0.5176200000000  0.5957510000000 1.0
C      1  0.4667150000000  0.5554820000000  0.4946330000000 1.0
C      1  0.5284890000000  0.4184650000000  0.4773460000000 1.0
C      1  0.5356050000000  0.5211580000000  0.5620010000000 1.0
C      1  0.4675250000000  0.4301780000000  0.5466580000000 1.0
C      1  0.5565290000000  0.5377450000000  0.5475070000000 1.0
C      1  0.4721840000000  0.4344890000000  0.4998370000000 1.0
C      1  0.5119050000000  0.4928100000000  0.5181190000000 1.0
C      1  0.5475240000000  0.5616380000000  0.5329290000000 1.0
C      1  0.5024100000000  0.4690040000000  0.4211750000000 1.0
C      1  0.5108000000000  0.4653790000000  0.5824790000000 1.0
C      1  0.5529590000000  0.4954560000000  0.5202160000000 1.0
C      1  0.4373020000000  0.4432900000000  0.4515640000000 1.0
C      1  0.5074550000000  0.5145880000000  0.4736930000000 1.0
C      1  0.5092700000000  0.5250290000000  0.5463990000000 1.0
C      1  0.5044710000000  0.5777740000000  0.4700210000000 1.0
C      1  0.4770750000000  0.5671870000000  0.4689880000000 1.0
C      1  0.5312800000000  0.4631220000000  0.4252300000000 1.0
C      1  0.5708420000000  0.4644870000000  0.5396210000000 1.0
C      1  0.5005610000000  0.4713270000000  0.5336240000000 1.0
C      1  0.4905780000000  0.4693740000000  0.5621020000000 1.0
C      1  0.5628930000000  0.4425290000000  0.5209950000000 1.0
C      1  0.4315770000000  0.4507890000000  0.4792430000000 1.0
C      1  0.4791980000000  0.5816990000000  0.5362320000000 1.0
C      1  0.4936930000000  0.4173190000000  0.5142020000000 1.0
C      1  0.4823700000000  0.5135870000000  0.5444820000000 1.0
C      1  0.5425790000000  0.5701160000000  0.4841090000000 1.0
C      1  0.4259240000000  0.5212680000000  0.4556830000000 1.0
C      1  0.4261590000000  0.5311830000000  0.5331290000000 1.0
C      1  0.5634520000000  0.4734970000000  0.4863360000000 1.0
C      1  0.5241080000000  0.5787900000000  0.4482660000000 1.0
C      1  0.4434880000000  0.4904180000000  0.4298350000000 1.0
C      1  0.5278310000000  0.5617670000000  0.4676820000000 1.0
C      1  0.4391480000000  0.5435790000000  0.4891230000000 1.0
C      1  0.5215580000000  0.4150030000000  0.5064480000000 1.0
C      1  0.5784040000000  0.5248230000000  0.5330820000000 1.0
C      1  0.4867920000000  0.5587730000000  0.5698660000000 1.0
C      1  0.5144040000000  0.4867020000000  0.4715790000000 1.0
C      1  0.4627710000000  0.4867260000000  0.5037060000000 1.0
C      1  0.4435770000000  0.4380070000000  0.5040540000000 1.0
C      1  0.5524930000000  0.4342400000000  0.4690820000000 1.0
C      1  0.5242290000000  0.5398690000000  0.4143970000000 1.0
C      1  0.4953920000000  0.4195240000000  0.5431060000000 1.0
C      1  0.5231140000000  0.4282420000000  0.5506940000000 1.0
C      1  0.4602240000000  0.4431670000000  0.4346420000000 1.0
C      1  0.5149940000000  0.5659990000000  0.4209980000000 1.0
C      1  0.4331680000000  0.5474830000000  0.4607360000000 1.0
C      1  0.4675630000000  0.5383550000000  0.4257270000000 1.0
C      1  0.4415220000000  0.4660720000000  0.5531160000000 1.0
C      1  0.4238120000000  0.4782570000000  0.4780470000000 1.0
C      1  0.5561120000000  0.4759670000000  0.4343820000000 1.0
C      1  0.4229920000000  0.4945570000000  0.4517600000000 1.0
C      1  0.5460780000000  0.4947240000000  0.5731190000000 1.0
C      1  0.5524670000000  0.4684080000000  0.5620120000000 1.0
C      1  0.5161670000000  0.5135010000000  0.4219260000000 1.0
C      1  0.4758020000000  0.4623990000000  0.4930870000000 1.0
C      1  0.4331240000000  0.5619580000000  0.5343260000000 1.0
C      1  0.4760810000000  0.5108520000000  0.5158080000000 1.0
C      1  0.5328220000000  0.5101630000000  0.5098710000000 1.0
C      1  0.5101770000000  0.4365470000000  0.4663820000000 1.0
C      1  0.5797740000000  0.5227430000000  0.4824690000000 1.0
C      1  0.5502250000000  0.4483690000000  0.4430060000000 1.0
C      1  0.5308850000000  0.4491780000000  0.5694480000000 1.0
C      1  0.4634670000000  0.4793160000000  0.5669070000000 1.0
C      1  0.4439430000000  0.4420730000000  0.5342830000000 1.0
C      1  0.4741390000000  0.5370520000000  0.5795850000000 1.0
C      1  0.5773860000000  0.5384840000000  0.5070550000000 1.0
C      1  0.5007940000000  0.5782550000000  0.5539340000000 1.0
C      1  0.4348360000000  0.4937250000000  0.4998400000000 1.0
C      1  0.4278780000000  0.5223560000000  0.5061500000000 1.0
C      1  0.4603350000000  0.5097280000000  0.5661730000000 1.0
C      1  0.4858370000000  0.4529080000000  0.4390840000000 1.0
C      1  0.4404470000000  0.4612980000000  0.4287770000000 1.0
C      1  0.4665750000000  0.5071940000000  0.4229880000000 1.0
C      1  0.5253000000000  0.4898580000000  0.5945250000000 1.0
C      1  0.4579890000000  0.5747910000000  0.5193770000000 1.0
C      1  0.5824400000000  0.4932380000000  0.4752050000000 1.0
C      1  0.5339830000000  0.4749840000000  0.4896550000000 1.0
C      1  0.4184280000000  0.4857210000000  0.5531480000000 1.0
C      1  0.5229440000000  0.4665670000000  0.5154000000000 1.0
C      1  0.5073520000000  0.5424410000000  0.5230530000000 1.0
C      1  0.5399360000000  0.4250400000000  0.5272670000000 1.0
C      1  0.5124630000000  0.5212500000000  0.4486670000000 1.0
C      1  0.4597930000000  0.5562110000000  0.4484600000000 1.0
END
