TITL C-883738-3659-425 74.9981056155184 125000 -16268.6369254381 0 0 111 (C1) n - 1
REM
REM in /home/nfs/bkarasulu/CARBON/AIRSS/Generating-Clusters/ReaxFF-fromJPCA2015/Units_Real/with-SteepDescent/Only-C1/SD-CG/Try1-3A/FIRE-CG
REM
REM
REM
REM
REM
REM ./C.cell (11c1c37f851c82e70ff6c80c92926a4b)
REM
REM compiler GCC version 9.2.1 20190827 (Red Hat 9.2.1-1)
REM options -cpp -mtune=generic -march=x86-64 -g -O0 -fpre-include=/usr/include/finclude/math-vector-fortran.h
REM seed 722819854 -784577487 2063505714 -1615725229 900168123 -1337626333 -1022995574 722147157 2128058417 661666818 -1006480212 -1625146311 1046131400 1558341081 1710476752 931869299 -1229441500 -1042126592 -1310475744 -1459849281 511745205 1008393991 1611327989 -1601291113 1896958699 -739405116 443756024 -791238037 -1619192416 1577782786 424615492 -1752550246 1718928683
REM
CELL 1.54180   50.00000   50.00000   50.00000   90.00000   90.00000   90.00000
LATT -1
SFAC C  
C      1  0.4561740000000  0.4290530000000  0.4678760000000 1.0
C      1  0.4181630000000  0.5008160000000  0.5361800000000 1.0
C      1  0.5072300000000  0.5724560000000  0.4437850000000 1.0
C      1  0.4857080000000  0.4878630000000  0.5559150000000 1.0
C      1  0.5121630000000  0.5800400000000  0.5194650000000 1.0
C      1  0.5350720000000  0.4977410000000  0.5464850000000 1.0
C      1  0.5998230000000  0.4856030000000  0.4971140000000 1.0
C      1  0.5382740000000  0.4737810000000  0.5305760000000 1.0
C      1  0.5930670000000  0.4833130000000  0.5251110000000 1.0
C      1  0.5036320000000  0.4626190000000  0.4149970000000 1.0
C      1  0.4809340000000  0.4816640000000  0.4205620000000 1.0
C      1  0.5364430000000  0.4851340000000  0.5939410000000 1.0
C      1  0.5608530000000  0.5707890000000  0.5174420000000 1.0
C      1  0.4571960000000  0.5393650000000  0.5610320000000 1.0
C      1  0.4789310000000  0.4702930000000  0.4882130000000 1.0
C      1  0.4380980000000  0.4594610000000  0.4584850000000 1.0
C      1  0.5262410000000  0.4674590000000  0.4724580000000 1.0
C      1  0.5151910000000  0.4794880000000  0.6010390000000 1.0
C      1  0.5561260000000  0.4418330000000  0.5105100000000 1.0
C      1  0.5348620000000  0.5673760000000  0.4487550000000 1.0
C      1  0.5885060000000  0.5360890000000  0.4983980000000 1.0
C      1  0.4466510000000  0.4713360000000  0.5447030000000 1.0
C      1  0.4536930000000  0.4422880000000  0.5512520000000 1.0
C      1  0.4902820000000  0.5293960000000  0.4712560000000 1.0
C      1  0.5114650000000  0.4150690000000  0.5135220000000 1.0
C      1  0.4799580000000  0.4269530000000  0.5528820000000 1.0
C      1  0.5580420000000  0.5017090000000  0.5832570000000 1.0
C      1  0.5742450000000  0.5005700000000  0.5593630000000 1.0
C      1  0.4910530000000  0.4422160000000  0.4306840000000 1.0
C      1  0.4723450000000  0.4284360000000  0.4954300000000 1.0
C      1  0.4062250000000  0.4920140000000  0.4864970000000 1.0
C      1  0.5776730000000  0.5489360000000  0.5220500000000 1.0
C      1  0.5579590000000  0.4537980000000  0.5353550000000 1.0
C      1  0.4440720000000  0.5755810000000  0.4756950000000 1.0
C      1  0.4621900000000  0.4763950000000  0.4653750000000 1.0
C      1  0.4968860000000  0.5016370000000  0.4718880000000 1.0
C      1  0.4369480000000  0.5521730000000  0.4578910000000 1.0
C      1  0.5630930000000  0.4477990000000  0.4595310000000 1.0
C      1  0.4680620000000  0.4056150000000  0.5366230000000 1.0
C      1  0.4155820000000  0.5348910000000  0.5025020000000 1.0
C      1  0.5026060000000  0.5114060000000  0.5190330000000 1.0
C      1  0.5063270000000  0.4642820000000  0.4919380000000 1.0
C      1  0.4499070000000  0.5006210000000  0.4713710000000 1.0
C      1  0.4375450000000  0.5051340000000  0.4273930000000 1.0
C      1  0.5519510000000  0.5479860000000  0.4358210000000 1.0
C      1  0.5421930000000  0.5267690000000  0.5868500000000 1.0
C      1  0.4652050000000  0.5067540000000  0.4143340000000 1.0
C      1  0.5531300000000  0.4321630000000  0.4847130000000 1.0
C      1  0.4837630000000  0.4059850000000  0.5108570000000 1.0
C      1  0.4840810000000  0.4249970000000  0.4514720000000 1.0
C      1  0.5689180000000  0.5308480000000  0.5454990000000 1.0
C      1  0.5075930000000  0.5054040000000  0.5469410000000 1.0
C      1  0.4301060000000  0.5521620000000  0.5205600000000 1.0
C      1  0.5443830000000  0.4923720000000  0.4335240000000 1.0
C      1  0.4774990000000  0.5317930000000  0.4177120000000 1.0
C      1  0.4863850000000  0.5738940000000  0.5302300000000 1.0
C      1  0.5060140000000  0.5312710000000  0.4467090000000 1.0
C      1  0.5121660000000  0.5276460000000  0.5897680000000 1.0
C      1  0.4636040000000  0.5220040000000  0.4855790000000 1.0
C      1  0.5170890000000  0.5062900000000  0.4351810000000 1.0
C      1  0.4691290000000  0.5153160000000  0.5183470000000 1.0
C      1  0.5563460000000  0.5706840000000  0.4942540000000 1.0
C      1  0.4162620000000  0.4455660000000  0.5007640000000 1.0
C      1  0.4422600000000  0.4198520000000  0.5366830000000 1.0
C      1  0.4254360000000  0.4208570000000  0.5101440000000 1.0
C      1  0.5447760000000  0.5205860000000  0.5321890000000 1.0
C      1  0.5256430000000  0.4206540000000  0.4881900000000 1.0
C      1  0.5111050000000  0.4238890000000  0.4623480000000 1.0
C      1  0.5116000000000  0.4767540000000  0.5173020000000 1.0
C      1  0.4386910000000  0.5756180000000  0.5049940000000 1.0
C      1  0.4973270000000  0.5437990000000  0.5731580000000 1.0
C      1  0.4955570000000  0.5513670000000  0.4260460000000 1.0
C      1  0.4973090000000  0.5819620000000  0.4692690000000 1.0
C      1  0.4670700000000  0.5821350000000  0.5097850000000 1.0
C      1  0.5172450000000  0.5834930000000  0.4897640000000 1.0
C      1  0.6044160000000  0.5133580000000  0.5013880000000 1.0
C      1  0.5272670000000  0.5261140000000  0.5098180000000 1.0
C      1  0.4978960000000  0.5019120000000  0.5985440000000 1.0
C      1  0.4375510000000  0.5368300000000  0.4827440000000 1.0
C      1  0.4364310000000  0.4150900000000  0.4838790000000 1.0
C      1  0.5697520000000  0.5318680000000  0.4478830000000 1.0
C      1  0.5240980000000  0.4470920000000  0.4522610000000 1.0
C      1  0.4326560000000  0.4772730000000  0.4350150000000 1.0
C      1  0.4727610000000  0.4536280000000  0.5105520000000 1.0
C      1  0.5408730000000  0.5177840000000  0.4857670000000 1.0
C      1  0.4161090000000  0.4649450000000  0.4828510000000 1.0
C      1  0.4951150000000  0.4894780000000  0.4451200000000 1.0
C      1  0.4517690000000  0.5130500000000  0.5734580000000 1.0
C      1  0.4739760000000  0.4966930000000  0.5819480000000 1.0
C      1  0.4219380000000  0.5045620000000  0.4649180000000 1.0
C      1  0.5464210000000  0.4464150000000  0.4354140000000 1.0
C      1  0.5330540000000  0.4677230000000  0.4199380000000 1.0
C      1  0.5402380000000  0.5715190000000  0.5632630000000 1.0
C      1  0.5806650000000  0.4921730000000  0.4741140000000 1.0
C      1  0.5049220000000  0.4319290000000  0.5376180000000 1.0
C      1  0.4256700000000  0.5273100000000  0.4461490000000 1.0
C      1  0.5794600000000  0.4746540000000  0.5472060000000 1.0
C      1  0.4059200000000  0.5080920000000  0.5116820000000 1.0
C      1  0.4810070000000  0.5582570000000  0.5567250000000 1.0
C      1  0.5368230000000  0.5794870000000  0.5348710000000 1.0
C      1  0.5662530000000  0.4760290000000  0.4564950000000 1.0
C      1  0.4935500000000  0.4580390000000  0.5306740000000 1.0
C      1  0.4523600000000  0.5364100000000  0.5323820000000 1.0
C      1  0.5700380000000  0.5222250000000  0.4755110000000 1.0
C      1  0.4323870000000  0.4941890000000  0.5590480000000 1.0
C      1  0.4713420000000  0.5841680000000  0.4805220000000 1.0
C      1  0.5550200000000  0.5202180000000  0.4271740000000 1.0
C      1  0.5543610000000  0.5457720000000  0.5689820000000 1.0
C      1  0.4663990000000  0.4895350000000  0.5336140000000 1.0
C      1  0.5408680000000  0.5782290000000  0.4752390000000 1.0
C      1  0.5252970000000  0.4965850000000  0.4744170000000 1.0
END
