TITL C-884133-6611-205 17.184085498772 125000 -19694.8286287306 0 0 130 (C1) n - 1
REM
REM in /home/nfs/bkarasulu/CARBON/AIRSS/Generating-Clusters/ReaxFF-fromJPCA2015/Units_Real/with-SteepDescent/Only-C1/SD-CG/Try1-3A/FIRE-CG
REM
REM
REM
REM
REM
REM ./C.cell (11c1c37f851c82e70ff6c80c92926a4b)
REM
REM compiler GCC version 9.2.1 20190827 (Red Hat 9.2.1-1)
REM options -cpp -mtune=generic -march=x86-64 -g -O0 -fpre-include=/usr/include/finclude/math-vector-fortran.h
REM seed -375212978 -534451264 -696209129 -569592203 -1285659635 -1420153032 -1607359896 350601789 -413969708 984430144 -1836504938 2138594324 414192804 -1474185673 -903819768 -1057683027 -695993636 581166143 -983611892 -2099093728 1761274276 1971469545 365137365 2111568539 -1594847099 -209391434 1463533199 -1647698524 -324668785 712297169 -1871610409 -50199798 -638126133
REM
CELL 1.54180   50.00000   50.00000   50.00000   90.00000   90.00000   90.00000
LATT -1
SFAC C  
C      1  0.4249750000000  0.4879750000000  0.5932640000000 1.0
C      1  0.5577670000000  0.4789080000000  0.4257240000000 1.0
C      1  0.4720750000000  0.5127480000000  0.6061080000000 1.0
C      1  0.4686420000000  0.5951740000000  0.4725430000000 1.0
C      1  0.5377540000000  0.5317430000000  0.4643190000000 1.0
C      1  0.5034810000000  0.5859190000000  0.4958770000000 1.0
C      1  0.4178510000000  0.5616050000000  0.5160040000000 1.0
C      1  0.4605510000000  0.5352250000000  0.5900960000000 1.0
C      1  0.4936630000000  0.5608940000000  0.4859200000000 1.0
C      1  0.5889680000000  0.4830860000000  0.4666820000000 1.0
C      1  0.4926830000000  0.5245940000000  0.5481290000000 1.0
C      1  0.5726150000000  0.4184580000000  0.4511380000000 1.0
C      1  0.5473910000000  0.5801170000000  0.4974150000000 1.0
C      1  0.4923740000000  0.4215790000000  0.5198850000000 1.0
C      1  0.5592680000000  0.5521760000000  0.4552750000000 1.0
C      1  0.5205980000000  0.5068950000000  0.5987300000000 1.0
C      1  0.4491920000000  0.4196720000000  0.4917410000000 1.0
C      1  0.4847430000000  0.5381570000000  0.4768730000000 1.0
C      1  0.5487250000000  0.4334000000000  0.4961810000000 1.0
C      1  0.5691060000000  0.5677180000000  0.4814010000000 1.0
C      1  0.5323800000000  0.4668330000000  0.4126890000000 1.0
C      1  0.5930020000000  0.5622860000000  0.4976280000000 1.0
C      1  0.4621310000000  0.5019010000000  0.4590460000000 1.0
C      1  0.5135000000000  0.4835150000000  0.4027520000000 1.0
C      1  0.5374850000000  0.4225950000000  0.5535810000000 1.0
C      1  0.4386490000000  0.4249240000000  0.5164450000000 1.0
C      1  0.5869620000000  0.5122220000000  0.4670160000000 1.0
C      1  0.4665620000000  0.4835130000000  0.6033870000000 1.0
C      1  0.5949730000000  0.4696200000000  0.4922370000000 1.0
C      1  0.4315190000000  0.4635610000000  0.5470650000000 1.0
C      1  0.4149760000000  0.5080990000000  0.5248430000000 1.0
C      1  0.5656800000000  0.5044790000000  0.4309400000000 1.0
C      1  0.4911280000000  0.5867690000000  0.4496230000000 1.0
C      1  0.4126410000000  0.5340520000000  0.5198600000000 1.0
C      1  0.4679480000000  0.4472290000000  0.4316380000000 1.0
C      1  0.5463330000000  0.4678550000000  0.4990270000000 1.0
C      1  0.5207410000000  0.5880080000000  0.4528420000000 1.0
C      1  0.4905110000000  0.5165330000000  0.4977330000000 1.0
C      1  0.5104550000000  0.5848810000000  0.5256700000000 1.0
C      1  0.4354970000000  0.5763670000000  0.5364300000000 1.0
C      1  0.4929570000000  0.4509070000000  0.5167090000000 1.0
C      1  0.5256240000000  0.4225290000000  0.4925100000000 1.0
C      1  0.4804170000000  0.5317580000000  0.5218720000000 1.0
C      1  0.5783220000000  0.4819700000000  0.5384550000000 1.0
C      1  0.5720250000000  0.4281180000000  0.5128630000000 1.0
C      1  0.4658080000000  0.6011880000000  0.5025950000000 1.0
C      1  0.4335910000000  0.5331820000000  0.4758530000000 1.0
C      1  0.4989840000000  0.5234960000000  0.6019380000000 1.0
C      1  0.4636240000000  0.4270780000000  0.5586190000000 1.0
C      1  0.4921580000000  0.4231610000000  0.5661500000000 1.0
C      1  0.5445030000000  0.5214000000000  0.4901870000000 1.0
C      1  0.5196330000000  0.5323810000000  0.4177130000000 1.0
C      1  0.5195640000000  0.4417940000000  0.4249670000000 1.0
C      1  0.5018550000000  0.4128490000000  0.4887480000000 1.0
C      1  0.5734080000000  0.5205250000000  0.4926450000000 1.0
C      1  0.4832870000000  0.5676880000000  0.4318640000000 1.0
C      1  0.4964500000000  0.4434800000000  0.4449320000000 1.0
C      1  0.5413130000000  0.5718370000000  0.4386850000000 1.0
C      1  0.4159960000000  0.5112380000000  0.4726600000000 1.0
C      1  0.4953200000000  0.5289710000000  0.4024020000000 1.0
C      1  0.4619590000000  0.5895550000000  0.5297280000000 1.0
C      1  0.4630390000000  0.4181010000000  0.5313880000000 1.0
C      1  0.4461360000000  0.5780510000000  0.4739870000000 1.0
C      1  0.5874380000000  0.5364480000000  0.5133480000000 1.0
C      1  0.4280900000000  0.4752430000000  0.4347780000000 1.0
C      1  0.5124800000000  0.4690440000000  0.4633150000000 1.0
C      1  0.5730690000000  0.4776450000000  0.5095660000000 1.0
C      1  0.4754370000000  0.4797090000000  0.5383150000000 1.0
C      1  0.4533170000000  0.4693570000000  0.4197370000000 1.0
C      1  0.4154420000000  0.4682980000000  0.5002380000000 1.0
C      1  0.4235900000000  0.4516940000000  0.5226400000000 1.0
C      1  0.4562610000000  0.5438450000000  0.5212680000000 1.0
C      1  0.4449890000000  0.5512600000000  0.5476520000000 1.0
C      1  0.4091620000000  0.4975230000000  0.4984670000000 1.0
C      1  0.5197480000000  0.5257530000000  0.5363540000000 1.0
C      1  0.4282530000000  0.5230170000000  0.4249550000000 1.0
C      1  0.5222190000000  0.5125350000000  0.5102400000000 1.0
C      1  0.4455860000000  0.4654040000000  0.5928510000000 1.0
C      1  0.5363610000000  0.4370620000000  0.5793810000000 1.0
C      1  0.5080310000000  0.4439060000000  0.5801270000000 1.0
C      1  0.5645190000000  0.4599170000000  0.5530470000000 1.0
C      1  0.4702320000000  0.4923640000000  0.4144860000000 1.0
C      1  0.5471490000000  0.5506200000000  0.5707540000000 1.0
C      1  0.5751820000000  0.5095790000000  0.5424610000000 1.0
C      1  0.5443260000000  0.4969170000000  0.5900250000000 1.0
C      1  0.4891540000000  0.4210960000000  0.4640250000000 1.0
C      1  0.5223240000000  0.5181370000000  0.4437120000000 1.0
C      1  0.5378340000000  0.4212030000000  0.4294790000000 1.0
C      1  0.4272660000000  0.4530620000000  0.4532880000000 1.0
C      1  0.5341960000000  0.5590060000000  0.4133690000000 1.0
C      1  0.4515070000000  0.5398510000000  0.4299190000000 1.0
C      1  0.5415610000000  0.5470870000000  0.5396210000000 1.0
C      1  0.4990540000000  0.4699620000000  0.4949180000000 1.0
C      1  0.4457870000000  0.4489240000000  0.5675940000000 1.0
C      1  0.5365380000000  0.5731940000000  0.5235540000000 1.0
C      1  0.5905760000000  0.4398540000000  0.4930190000000 1.0
C      1  0.4752000000000  0.5480070000000  0.4135480000000 1.0
C      1  0.5544660000000  0.5235030000000  0.5825690000000 1.0
C      1  0.5618990000000  0.4343930000000  0.5401640000000 1.0
C      1  0.5103030000000  0.4160860000000  0.5449460000000 1.0
C      1  0.4265810000000  0.5080800000000  0.5713400000000 1.0
C      1  0.4599990000000  0.4156770000000  0.4662670000000 1.0
C      1  0.4354390000000  0.4641600000000  0.4793030000000 1.0
C      1  0.4880490000000  0.5833190000000  0.5437180000000 1.0
C      1  0.5040170000000  0.4687590000000  0.5358270000000 1.0
C      1  0.5209640000000  0.4812830000000  0.5115730000000 1.0
C      1  0.4381670000000  0.5544000000000  0.4944310000000 1.0
C      1  0.5830920000000  0.4399380000000  0.4644550000000 1.0
C      1  0.5069760000000  0.4939800000000  0.4483420000000 1.0
C      1  0.5568070000000  0.4066260000000  0.4364770000000 1.0
C      1  0.4471960000000  0.4330250000000  0.4449340000000 1.0
C      1  0.4792480000000  0.4898920000000  0.4931670000000 1.0
C      1  0.4918270000000  0.5001080000000  0.3956870000000 1.0
C      1  0.5407570000000  0.4694900000000  0.4699030000000 1.0
C      1  0.5222610000000  0.5634780000000  0.5735500000000 1.0
C      1  0.5758230000000  0.5269540000000  0.4440230000000 1.0
C      1  0.4689330000000  0.5001460000000  0.5473980000000 1.0
C      1  0.5722920000000  0.5364140000000  0.5393040000000 1.0
C      1  0.4804110000000  0.4965010000000  0.4402140000000 1.0
C      1  0.4576340000000  0.5307160000000  0.4606120000000 1.0
C      1  0.4186230000000  0.5016560000000  0.4444190000000 1.0
C      1  0.4563780000000  0.4845950000000  0.4795700000000 1.0
C      1  0.4369630000000  0.4942730000000  0.5459120000000 1.0
C      1  0.5660440000000  0.4675750000000  0.4535570000000 1.0
C      1  0.4957070000000  0.5705990000000  0.5694790000000 1.0
C      1  0.4872490000000  0.5417210000000  0.5771940000000 1.0
C      1  0.5139000000000  0.4677200000000  0.5647870000000 1.0
C      1  0.5431100000000  0.4675370000000  0.5731310000000 1.0
C      1  0.4380090000000  0.5351440000000  0.5721860000000 1.0
C      1  0.5275320000000  0.5931860000000  0.4802780000000 1.0
END
