TITL C-883741-3679-239 3.61166950260231 125000 -11321.0601747275 0 0 78 (C1) n - 1
REM
REM in /home/nfs/bkarasulu/CARBON/AIRSS/Generating-Clusters/ReaxFF-fromJPCA2015/Units_Real/with-SteepDescent/Only-C1/SD-CG/Try1-3A/FIRE-CG
REM
REM
REM
REM
REM
REM ./C.cell (11c1c37f851c82e70ff6c80c92926a4b)
REM
REM compiler GCC version 9.2.1 20190827 (Red Hat 9.2.1-1)
REM options -cpp -mtune=generic -march=x86-64 -g -O0 -fpre-include=/usr/include/finclude/math-vector-fortran.h
REM seed 1130180893 959615109 686041006 -1492498712 -1172335997 -1089534845 -1529953143 1183406140 -1406677915 -873561614 699021138 -1429388946 -371019425 987371804 -910544133 1700025337 -1357130054 164711659 411921794 -1908863843 -367298322 1891021651 -1527002240 -1898773825 -1212353645 1558929590 970666772 1498953368 150526248 1163157189 670730808 -1077274598 269142987
REM
CELL 1.54180   50.00000   50.00000   50.00000   90.00000   90.00000   90.00000
LATT -1
SFAC C  
C      1  0.5569660000000  0.5103040000000  0.5477050000000 1.0
C      1  0.4132490000000  0.5007610000000  0.5049210000000 1.0
C      1  0.4783790000000  0.4596870000000  0.5599210000000 1.0
C      1  0.4810420000000  0.4789410000000  0.4811110000000 1.0
C      1  0.5523140000000  0.5614740000000  0.5229870000000 1.0
C      1  0.4518890000000  0.5088760000000  0.5679690000000 1.0
C      1  0.4449020000000  0.5272280000000  0.5491480000000 1.0
C      1  0.4621790000000  0.4597930000000  0.4695410000000 1.0
C      1  0.5275880000000  0.5078820000000  0.4993370000000 1.0
C      1  0.5515180000000  0.5428200000000  0.4640540000000 1.0
C      1  0.5082610000000  0.5361290000000  0.4338250000000 1.0
C      1  0.5478870000000  0.5282080000000  0.4892700000000 1.0
C      1  0.4792620000000  0.4474020000000  0.5319010000000 1.0
C      1  0.5433600000000  0.5768990000000  0.4989040000000 1.0
C      1  0.5330380000000  0.5305370000000  0.5796680000000 1.0
C      1  0.4647060000000  0.5304830000000  0.4555310000000 1.0
C      1  0.5070300000000  0.4878240000000  0.4239550000000 1.0
C      1  0.3985180000000  0.4752480000000  0.4985750000000 1.0
C      1  0.5331370000000  0.5167910000000  0.5314380000000 1.0
C      1  0.5287760000000  0.4785500000000  0.4888570000000 1.0
C      1  0.5685390000000  0.4499720000000  0.5164050000000 1.0
C      1  0.4876440000000  0.5542910000000  0.4502890000000 1.0
C      1  0.4740850000000  0.4210760000000  0.4801990000000 1.0
C      1  0.5516350000000  0.4270980000000  0.5229230000000 1.0
C      1  0.4917640000000  0.5495680000000  0.5340180000000 1.0
C      1  0.5268540000000  0.5497710000000  0.5349180000000 1.0
C      1  0.4906440000000  0.5075460000000  0.5558960000000 1.0
C      1  0.4629110000000  0.4643300000000  0.4402220000000 1.0
C      1  0.4925830000000  0.5763100000000  0.4705240000000 1.0
C      1  0.4901140000000  0.4624710000000  0.4287010000000 1.0
C      1  0.5889140000000  0.5116210000000  0.4831270000000 1.0
C      1  0.5100360000000  0.5071220000000  0.4034310000000 1.0
C      1  0.5021620000000  0.4428220000000  0.5142560000000 1.0
C      1  0.4980740000000  0.5162360000000  0.4950650000000 1.0
C      1  0.4828020000000  0.5359940000000  0.5622590000000 1.0
C      1  0.4738160000000  0.5697900000000  0.5211150000000 1.0
C      1  0.5721100000000  0.4593460000000  0.4870390000000 1.0
C      1  0.4725350000000  0.5742190000000  0.4920220000000 1.0
C      1  0.5851790000000  0.5163140000000  0.5122770000000 1.0
C      1  0.4966270000000  0.4121640000000  0.4738610000000 1.0
C      1  0.4830930000000  0.5259830000000  0.5172650000000 1.0
C      1  0.4537170000000  0.4378590000000  0.4882840000000 1.0
C      1  0.4484080000000  0.4566050000000  0.5610750000000 1.0
C      1  0.4147500000000  0.4782060000000  0.5235860000000 1.0
C      1  0.5174790000000  0.5026300000000  0.5508670000000 1.0
C      1  0.4866500000000  0.5065310000000  0.4693160000000 1.0
C      1  0.5319960000000  0.5673850000000  0.4733950000000 1.0
C      1  0.5063150000000  0.5382960000000  0.5782270000000 1.0
C      1  0.5775320000000  0.4963610000000  0.5334290000000 1.0
C      1  0.5404430000000  0.4986090000000  0.5692440000000 1.0
C      1  0.5064650000000  0.5089200000000  0.4443160000000 1.0
C      1  0.5047730000000  0.5560170000000  0.4753490000000 1.0
C      1  0.4540360000000  0.4448300000000  0.5172300000000 1.0
C      1  0.5106780000000  0.5303480000000  0.4073830000000 1.0
C      1  0.5396340000000  0.5500430000000  0.5604300000000 1.0
C      1  0.5033560000000  0.4664440000000  0.4953800000000 1.0
C      1  0.4237100000000  0.4919310000000  0.4581660000000 1.0
C      1  0.4472070000000  0.5565520000000  0.5204360000000 1.0
C      1  0.5233920000000  0.4339850000000  0.5328580000000 1.0
C      1  0.5107660000000  0.4503590000000  0.4424830000000 1.0
C      1  0.4073000000000  0.4758140000000  0.4722770000000 1.0
C      1  0.5675020000000  0.5394520000000  0.5086360000000 1.0
C      1  0.5238780000000  0.4111650000000  0.4662390000000 1.0
C      1  0.4343360000000  0.4585190000000  0.5337490000000 1.0
C      1  0.5788700000000  0.5340370000000  0.4619150000000 1.0
C      1  0.4425400000000  0.5357670000000  0.4749740000000 1.0
C      1  0.5634830000000  0.4706860000000  0.5367650000000 1.0
C      1  0.5160740000000  0.4550720000000  0.5509780000000 1.0
C      1  0.4463310000000  0.5600520000000  0.4908990000000 1.0
C      1  0.4449470000000  0.4872150000000  0.4354750000000 1.0
C      1  0.5404260000000  0.4693770000000  0.5554880000000 1.0
C      1  0.4729310000000  0.4894730000000  0.5697290000000 1.0
C      1  0.5461340000000  0.4617210000000  0.4728230000000 1.0
C      1  0.4266240000000  0.5117620000000  0.4805110000000 1.0
C      1  0.5809480000000  0.4851840000000  0.4833240000000 1.0
C      1  0.5314120000000  0.4408000000000  0.4565350000000 1.0
C      1  0.4537630000000  0.5278810000000  0.5224460000000 1.0
C      1  0.4550730000000  0.5142320000000  0.4313570000000 1.0
END
