TITL C-883741-3679-470 4.16574267784915 125000 -13317.3338542052 0 0 90 (C1) n - 1
REM
REM in /home/nfs/bkarasulu/CARBON/AIRSS/Generating-Clusters/ReaxFF-fromJPCA2015/Units_Real/with-SteepDescent/Only-C1/SD-CG/Try1-3A/FIRE-CG
REM
REM
REM
REM
REM
REM ./C.cell (11c1c37f851c82e70ff6c80c92926a4b)
REM
REM compiler GCC version 9.2.1 20190827 (Red Hat 9.2.1-1)
REM options -cpp -mtune=generic -march=x86-64 -g -O0 -fpre-include=/usr/include/finclude/math-vector-fortran.h
REM seed 1526787742 -1858030227 220548658 -1099724380 -1185433104 -1845592615 1616090584 -1293959580 -1078117976 -1685365942 1602206605 261184964 -1224719818 -1938667091 -2010322948 1637705405 860804718 -2125125781 -442309491 -102497159 -209596362 -865206487 667130928 -1174719182 110625708 -1479569512 1711821719 1618671915 -1455479018 1947794339 -155417978 -427101118 -12875670
REM
CELL 1.54180   50.00000   50.00000   50.00000   90.00000   90.00000   90.00000
LATT -1
SFAC C  
C      1  0.5014530000000  0.5347000000000  0.4390460000000 1.0
C      1  0.5624110000000  0.4588760000000  0.4671430000000 1.0
C      1  0.4775510000000  0.4481600000000  0.5666040000000 1.0
C      1  0.4468880000000  0.4749840000000  0.5766080000000 1.0
C      1  0.4292960000000  0.5286100000000  0.5073740000000 1.0
C      1  0.4349580000000  0.5131430000000  0.5660850000000 1.0
C      1  0.4302580000000  0.4742850000000  0.4575590000000 1.0
C      1  0.4895210000000  0.4312620000000  0.5192620000000 1.0
C      1  0.5766680000000  0.4654580000000  0.4897090000000 1.0
C      1  0.4274460000000  0.4715040000000  0.5100880000000 1.0
C      1  0.5611670000000  0.5554810000000  0.5224490000000 1.0
C      1  0.4932450000000  0.5114720000000  0.4582050000000 1.0
C      1  0.5182470000000  0.5878360000000  0.4882100000000 1.0
C      1  0.5116690000000  0.5304480000000  0.5014970000000 1.0
C      1  0.5372200000000  0.4300820000000  0.4980090000000 1.0
C      1  0.5410410000000  0.4739510000000  0.5615140000000 1.0
C      1  0.4333320000000  0.4605040000000  0.4838430000000 1.0
C      1  0.4920320000000  0.4701330000000  0.4123960000000 1.0
C      1  0.4481350000000  0.4130420000000  0.4958860000000 1.0
C      1  0.5268720000000  0.5660090000000  0.4729640000000 1.0
C      1  0.5597070000000  0.5384100000000  0.4845390000000 1.0
C      1  0.5056640000000  0.4932710000000  0.5829600000000 1.0
C      1  0.4753180000000  0.4587790000000  0.4322120000000 1.0
C      1  0.5407430000000  0.4490630000000  0.5474090000000 1.0
C      1  0.5421610000000  0.5720200000000  0.5340980000000 1.0
C      1  0.4558420000000  0.4793090000000  0.4419260000000 1.0
C      1  0.4888910000000  0.5970580000000  0.4792900000000 1.0
C      1  0.4866930000000  0.5641900000000  0.5457460000000 1.0
C      1  0.4920960000000  0.5186520000000  0.4865450000000 1.0
C      1  0.4784410000000  0.4501640000000  0.4993610000000 1.0
C      1  0.5740700000000  0.4914120000000  0.5000200000000 1.0
C      1  0.4918390000000  0.5813390000000  0.5230930000000 1.0
C      1  0.5656270000000  0.5071180000000  0.5269730000000 1.0
C      1  0.5202500000000  0.5847850000000  0.5166330000000 1.0
C      1  0.4945420000000  0.5355650000000  0.4109480000000 1.0
C      1  0.5039540000000  0.4892360000000  0.4063620000000 1.0
C      1  0.5393290000000  0.4210480000000  0.4512900000000 1.0
C      1  0.4928850000000  0.4697580000000  0.5754150000000 1.0
C      1  0.4727180000000  0.5825110000000  0.5004060000000 1.0
C      1  0.4245640000000  0.5018900000000  0.4571530000000 1.0
C      1  0.4476340000000  0.4532300000000  0.5595790000000 1.0
C      1  0.4989710000000  0.4538150000000  0.4492580000000 1.0
C      1  0.5344850000000  0.4989230000000  0.5728350000000 1.0
C      1  0.4230810000000  0.5003530000000  0.5161520000000 1.0
C      1  0.5729260000000  0.5330970000000  0.5102780000000 1.0
C      1  0.4382370000000  0.4271960000000  0.5183870000000 1.0
C      1  0.4786040000000  0.4980550000000  0.5001370000000 1.0
C      1  0.5225480000000  0.4267020000000  0.5577420000000 1.0
C      1  0.5135430000000  0.4163370000000  0.4864390000000 1.0
C      1  0.5497520000000  0.5409630000000  0.4353200000000 1.0
C      1  0.5323350000000  0.5439460000000  0.4879410000000 1.0
C      1  0.4947930000000  0.4306760000000  0.5488010000000 1.0
C      1  0.4417100000000  0.5239310000000  0.4576590000000 1.0
C      1  0.4575310000000  0.5563110000000  0.5472840000000 1.0
C      1  0.4552020000000  0.4402480000000  0.4836080000000 1.0
C      1  0.4333380000000  0.4505130000000  0.5323380000000 1.0
C      1  0.4494210000000  0.5647410000000  0.4978420000000 1.0
C      1  0.4404440000000  0.4992530000000  0.5390410000000 1.0
C      1  0.5115240000000  0.4266010000000  0.4575820000000 1.0
C      1  0.4646940000000  0.5060200000000  0.4493650000000 1.0
C      1  0.5746970000000  0.5180180000000  0.5558730000000 1.0
C      1  0.4678920000000  0.4995270000000  0.5278840000000 1.0
C      1  0.5090580000000  0.5463410000000  0.5517180000000 1.0
C      1  0.4730320000000  0.5913470000000  0.4588110000000 1.0
C      1  0.5465070000000  0.4926990000000  0.4886080000000 1.0
C      1  0.5372420000000  0.4518130000000  0.5178870000000 1.0
C      1  0.5365370000000  0.5530280000000  0.5569590000000 1.0
C      1  0.5243930000000  0.5586490000000  0.4432950000000 1.0
C      1  0.5419210000000  0.5167090000000  0.4214300000000 1.0
C      1  0.5064710000000  0.4785470000000  0.4637710000000 1.0
C      1  0.5493170000000  0.5265240000000  0.5661520000000 1.0
C      1  0.5360090000000  0.5006440000000  0.5315420000000 1.0
C      1  0.4506350000000  0.5364230000000  0.5652350000000 1.0
C      1  0.5749170000000  0.5106670000000  0.4457070000000 1.0
C      1  0.5210410000000  0.5821410000000  0.4256650000000 1.0
C      1  0.5699440000000  0.5365660000000  0.4561200000000 1.0
C      1  0.4551960000000  0.5011530000000  0.5849990000000 1.0
C      1  0.5324510000000  0.4799800000000  0.5114480000000 1.0
C      1  0.5167300000000  0.5137220000000  0.4052230000000 1.0
C      1  0.4945940000000  0.4077390000000  0.5044220000000 1.0
C      1  0.5558350000000  0.4319110000000  0.4755100000000 1.0
C      1  0.4383570000000  0.5404300000000  0.4826080000000 1.0
C      1  0.5537540000000  0.4943130000000  0.4372640000000 1.0
C      1  0.4910340000000  0.4746610000000  0.4894440000000 1.0
C      1  0.5401130000000  0.4805640000000  0.4618080000000 1.0
C      1  0.4825730000000  0.5103600000000  0.5748530000000 1.0
C      1  0.5123040000000  0.5220300000000  0.5312770000000 1.0
C      1  0.4869860000000  0.5107060000000  0.5454020000000 1.0
C      1  0.4401240000000  0.5525830000000  0.5224230000000 1.0
C      1  0.4748170000000  0.4037780000000  0.4922450000000 1.0
END
