TITL C-884136-4169-149 -9.32523003951413 125000 -9438.84176341046 0 0 64 (C1) n - 1
REM
REM in /home/nfs/bkarasulu/CARBON/AIRSS/Generating-Clusters/ReaxFF-fromJPCA2015/Units_Real/with-SteepDescent/Only-C1/SD-CG/Try1-3A/FIRE-CG
REM
REM
REM
REM
REM
REM ./C.cell (11c1c37f851c82e70ff6c80c92926a4b)
REM
REM compiler GCC version 9.2.1 20190827 (Red Hat 9.2.1-1)
REM options -cpp -mtune=generic -march=x86-64 -g -O0 -fpre-include=/usr/include/finclude/math-vector-fortran.h
REM seed 1055457090 24570252 -1064535933 -1333565967 -389145781 1712272207 -1225047091 629239665 382258469 1912825781 -124370261 312762065 1383967752 201119399 27554633 -742572728 -235492132 -1840283378 -645452255 -1176250891 1022680990 943990684 678628179 -1505435616 448418697 -1708882722 57088611 -324415929 -1968675495 1796901619 228735551 -419106283 1830249363
REM
CELL 1.54180   50.00000   50.00000   50.00000   90.00000   90.00000   90.00000
LATT -1
SFAC C  
C      1  0.4472560000000  0.4956080000000  0.5491390000000 1.0
C      1  0.5173740000000  0.4469720000000  0.4883430000000 1.0
C      1  0.4759410000000  0.4361960000000  0.4575290000000 1.0
C      1  0.5750580000000  0.5526250000000  0.4728100000000 1.0
C      1  0.5166080000000  0.5017140000000  0.5284830000000 1.0
C      1  0.4195460000000  0.4818640000000  0.5068800000000 1.0
C      1  0.4696370000000  0.5467350000000  0.5143550000000 1.0
C      1  0.5666250000000  0.4682810000000  0.4836770000000 1.0
C      1  0.4419560000000  0.4431940000000  0.4909560000000 1.0
C      1  0.5055630000000  0.4582900000000  0.5449560000000 1.0
C      1  0.5460690000000  0.4952180000000  0.5323270000000 1.0
C      1  0.4425190000000  0.4789790000000  0.4546810000000 1.0
C      1  0.4609970000000  0.5636910000000  0.4586470000000 1.0
C      1  0.5896770000000  0.5233300000000  0.5170710000000 1.0
C      1  0.5218800000000  0.5115430000000  0.4370240000000 1.0
C      1  0.4558670000000  0.4961580000000  0.4347120000000 1.0
C      1  0.4338840000000  0.5234860000000  0.4847320000000 1.0
C      1  0.5410120000000  0.5366270000000  0.5121380000000 1.0
C      1  0.4796620000000  0.4140200000000  0.5311540000000 1.0
C      1  0.4846130000000  0.5068160000000  0.5659940000000 1.0
C      1  0.5364900000000  0.4387730000000  0.5095440000000 1.0
C      1  0.4737120000000  0.4751460000000  0.5105110000000 1.0
C      1  0.4499900000000  0.4489790000000  0.4628530000000 1.0
C      1  0.4912290000000  0.4776280000000  0.4398650000000 1.0
C      1  0.5602410000000  0.5187760000000  0.5247630000000 1.0
C      1  0.4324080000000  0.4756930000000  0.5312080000000 1.0
C      1  0.4391300000000  0.4928740000000  0.4817440000000 1.0
C      1  0.4953010000000  0.4292720000000  0.4800460000000 1.0
C      1  0.4894980000000  0.4840790000000  0.4679360000000 1.0
C      1  0.5088390000000  0.5492720000000  0.4496300000000 1.0
C      1  0.4680960000000  0.4847020000000  0.5668190000000 1.0
C      1  0.5548780000000  0.4673040000000  0.5340600000000 1.0
C      1  0.5151510000000  0.4759150000000  0.4806350000000 1.0
C      1  0.4742070000000  0.4311560000000  0.5566450000000 1.0
C      1  0.4875030000000  0.4209460000000  0.5049920000000 1.0
C      1  0.5069550000000  0.5430950000000  0.5661900000000 1.0
C      1  0.4917460000000  0.5420930000000  0.4962450000000 1.0
C      1  0.4894640000000  0.5540700000000  0.4708150000000 1.0
C      1  0.4678390000000  0.4875120000000  0.4858000000000 1.0
C      1  0.5169680000000  0.5218090000000  0.5014080000000 1.0
C      1  0.5437580000000  0.5650510000000  0.5063260000000 1.0
C      1  0.5582370000000  0.5379980000000  0.4537550000000 1.0
C      1  0.4831120000000  0.4574290000000  0.5640690000000 1.0
C      1  0.5288990000000  0.5015640000000  0.4821080000000 1.0
C      1  0.5353230000000  0.5798480000000  0.5320070000000 1.0
C      1  0.5077040000000  0.5157200000000  0.5562130000000 1.0
C      1  0.5232450000000  0.5637540000000  0.5529870000000 1.0
C      1  0.5326820000000  0.4479330000000  0.5376840000000 1.0
C      1  0.4441920000000  0.5323880000000  0.5105330000000 1.0
C      1  0.4832530000000  0.4558470000000  0.4389790000000 1.0
C      1  0.5623420000000  0.4531030000000  0.5087230000000 1.0
C      1  0.5514550000000  0.5702060000000  0.4787310000000 1.0
C      1  0.5929800000000  0.5401640000000  0.4933630000000 1.0
C      1  0.5367550000000  0.5573390000000  0.4555150000000 1.0
C      1  0.4830510000000  0.5025160000000  0.4251640000000 1.0
C      1  0.4781010000000  0.5531730000000  0.5701180000000 1.0
C      1  0.4513100000000  0.4562570000000  0.5159020000000 1.0
C      1  0.4453380000000  0.5432400000000  0.4700620000000 1.0
C      1  0.4982820000000  0.4780460000000  0.5245300000000 1.0
C      1  0.5013930000000  0.5268020000000  0.4293590000000 1.0
C      1  0.5629900000000  0.4833300000000  0.4672770000000 1.0
C      1  0.4640210000000  0.5453940000000  0.5454510000000 1.0
C      1  0.5451990000000  0.5093100000000  0.4546680000000 1.0
C      1  0.4449900000000  0.5231450000000  0.5391600000000 1.0
END
