TITL C-884127-5181-104 10.1322990950436 125000 -7796.51999673412 0 0 54 (C1) n - 1
REM
REM in /home/nfs/bkarasulu/CARBON/AIRSS/Generating-Clusters/ReaxFF-fromJPCA2015/Units_Real/with-SteepDescent/Only-C1/SD-CG/Try1-3A/FIRE-CG
REM
REM
REM
REM
REM
REM ./C.cell (11c1c37f851c82e70ff6c80c92926a4b)
REM
REM compiler GCC version 9.2.1 20190827 (Red Hat 9.2.1-1)
REM options -cpp -mtune=generic -march=x86-64 -g -O0 -fpre-include=/usr/include/finclude/math-vector-fortran.h
REM seed -141134419 1618396998 -1783252179 -622358960 -1302679375 2023088956 250535195 616414628 161365625 -913834989 -1127304598 -408612864 -98267564 -1745240878 -425473238 618024303 -1571670680 -780940949 -1421680093 -2099200949 -433496400 -197839779 1934916738 1382243391 -1518740099 21015669 -1286618398 929083498 703557852 -515480879 -918859266 -25078632 22317466
REM
CELL 1.54180   50.00000   50.00000   50.00000   90.00000   90.00000   90.00000
LATT -1
SFAC C  
C      1  0.5320720000000  0.4666670000000  0.4501890000000 1.0
C      1  0.5674960000000  0.5183700000000  0.5308210000000 1.0
C      1  0.4354390000000  0.4635950000000  0.4763230000000 1.0
C      1  0.5320320000000  0.4849170000000  0.5169850000000 1.0
C      1  0.5094600000000  0.5567580000000  0.4552970000000 1.0
C      1  0.5225070000000  0.4884080000000  0.4634750000000 1.0
C      1  0.5331540000000  0.5389520000000  0.4541720000000 1.0
C      1  0.4314610000000  0.4901530000000  0.4693740000000 1.0
C      1  0.4926380000000  0.4253750000000  0.5047200000000 1.0
C      1  0.5283530000000  0.5763370000000  0.4981500000000 1.0
C      1  0.5325020000000  0.4453180000000  0.4709570000000 1.0
C      1  0.5611310000000  0.5465320000000  0.5230990000000 1.0
C      1  0.5122460000000  0.5025040000000  0.5041860000000 1.0
C      1  0.5425740000000  0.5365870000000  0.4820770000000 1.0
C      1  0.4570240000000  0.5343820000000  0.5447120000000 1.0
C      1  0.4356720000000  0.5137920000000  0.5398600000000 1.0
C      1  0.4748660000000  0.4605710000000  0.5083210000000 1.0
C      1  0.5051240000000  0.4562140000000  0.5455250000000 1.0
C      1  0.5516300000000  0.4456630000000  0.4951450000000 1.0
C      1  0.4933340000000  0.5366050000000  0.4416460000000 1.0
C      1  0.4391410000000  0.4902300000000  0.5230380000000 1.0
C      1  0.5176610000000  0.5577980000000  0.5510080000000 1.0
C      1  0.4644140000000  0.4364310000000  0.5057520000000 1.0
C      1  0.4527910000000  0.5019570000000  0.4493210000000 1.0
C      1  0.5172970000000  0.5196620000000  0.4381980000000 1.0
C      1  0.4739860000000  0.4550890000000  0.4623020000000 1.0
C      1  0.5333610000000  0.5419340000000  0.5299650000000 1.0
C      1  0.4360320000000  0.5384840000000  0.5244620000000 1.0
C      1  0.5248500000000  0.4983720000000  0.5604360000000 1.0
C      1  0.4874910000000  0.4680590000000  0.4854610000000 1.0
C      1  0.5531970000000  0.5590880000000  0.4973360000000 1.0
C      1  0.5105110000000  0.4325700000000  0.5277800000000 1.0
C      1  0.5600220000000  0.4937950000000  0.5122770000000 1.0
C      1  0.5055510000000  0.5733450000000  0.4797140000000 1.0
C      1  0.5018280000000  0.5704400000000  0.5084580000000 1.0
C      1  0.4837820000000  0.4759030000000  0.5470050000000 1.0
C      1  0.4990520000000  0.4925810000000  0.4796940000000 1.0
C      1  0.4604620000000  0.4701940000000  0.5289440000000 1.0
C      1  0.5707240000000  0.4689530000000  0.5009520000000 1.0
C      1  0.5285250000000  0.4735210000000  0.5447540000000 1.0
C      1  0.4936010000000  0.5539450000000  0.5338380000000 1.0
C      1  0.4845730000000  0.5259600000000  0.5400510000000 1.0
C      1  0.4358580000000  0.5303970000000  0.4958110000000 1.0
C      1  0.5241190000000  0.5291830000000  0.5039980000000 1.0
C      1  0.4307080000000  0.5001320000000  0.4968280000000 1.0
C      1  0.4721970000000  0.4813760000000  0.4509550000000 1.0
C      1  0.4521540000000  0.4414350000000  0.4788010000000 1.0
C      1  0.4523360000000  0.5351250000000  0.4741010000000 1.0
C      1  0.5390480000000  0.4318680000000  0.5184620000000 1.0
C      1  0.4958280000000  0.5017970000000  0.5521050000000 1.0
C      1  0.5493730000000  0.5090910000000  0.5506510000000 1.0
C      1  0.4649980000000  0.5300500000000  0.4508060000000 1.0
C      1  0.5221640000000  0.4907230000000  0.4366690000000 1.0
C      1  0.5116500000000  0.4328100000000  0.4850350000000 1.0
END
