TITL C-884134-5972-428 7.55203210662278 125000 -8433.50157473005 0 0 59 (C1) n - 1
REM
REM in /home/nfs/bkarasulu/CARBON/AIRSS/Generating-Clusters/ReaxFF-fromJPCA2015/Units_Real/with-SteepDescent/Only-C1/SD-CG/Try1-3A/FIRE-CG
REM
REM
REM
REM
REM
REM ./C.cell (11c1c37f851c82e70ff6c80c92926a4b)
REM
REM compiler GCC version 9.2.1 20190827 (Red Hat 9.2.1-1)
REM options -cpp -mtune=generic -march=x86-64 -g -O0 -fpre-include=/usr/include/finclude/math-vector-fortran.h
REM seed 1103123970 -1256342949 -314843055 1672317941 538579961 1728412252 -1061407120 248631073 1797391010 -1269579602 -661605327 -610056828 -2040932405 1704053752 -1856715520 -2048625951 -1525212775 -538644224 -73049537 -452888543 1292741136 1387584174 -1863573826 -292557767 1659539305 1356131955 1201721098 1566953934 776867393 1211509161 -2072338857 -2136061785 798442156
REM
CELL 1.54180   50.00000   50.00000   50.00000   90.00000   90.00000   90.00000
LATT -1
SFAC C  
C      1  0.5166640000000  0.5165580000000  0.4266160000000 1.0
C      1  0.4832240000000  0.4858560000000  0.4769820000000 1.0
C      1  0.4571220000000  0.4717710000000  0.5573370000000 1.0
C      1  0.5355910000000  0.5562510000000  0.4736680000000 1.0
C      1  0.4448370000000  0.5289090000000  0.5355900000000 1.0
C      1  0.4729900000000  0.4429440000000  0.4453410000000 1.0
C      1  0.5130690000000  0.5251130000000  0.4507830000000 1.0
C      1  0.5364070000000  0.5133480000000  0.5409640000000 1.0
C      1  0.4882200000000  0.4164460000000  0.4944640000000 1.0
C      1  0.5602280000000  0.4708710000000  0.4757530000000 1.0
C      1  0.4607920000000  0.4504460000000  0.5400830000000 1.0
C      1  0.5175900000000  0.5320080000000  0.5542230000000 1.0
C      1  0.5109400000000  0.5386270000000  0.4752700000000 1.0
C      1  0.5643400000000  0.4940830000000  0.4625420000000 1.0
C      1  0.5048580000000  0.4456260000000  0.5331720000000 1.0
C      1  0.5227710000000  0.4656820000000  0.4343710000000 1.0
C      1  0.5351040000000  0.4632930000000  0.4621840000000 1.0
C      1  0.4823400000000  0.4589730000000  0.5187400000000 1.0
C      1  0.5174840000000  0.4508050000000  0.4819890000000 1.0
C      1  0.5616440000000  0.4768040000000  0.5058170000000 1.0
C      1  0.4960260000000  0.5416820000000  0.5284320000000 1.0
C      1  0.4176360000000  0.4644600000000  0.5124660000000 1.0
C      1  0.5331710000000  0.4876510000000  0.5411330000000 1.0
C      1  0.4619850000000  0.4956360000000  0.5495280000000 1.0
C      1  0.5407240000000  0.5790810000000  0.4926900000000 1.0
C      1  0.4639470000000  0.4946620000000  0.4558450000000 1.0
C      1  0.5232280000000  0.5726330000000  0.5360960000000 1.0
C      1  0.4187980000000  0.5217410000000  0.4957090000000 1.0
C      1  0.5572300000000  0.5384390000000  0.4832470000000 1.0
C      1  0.4236730000000  0.5144710000000  0.5225630000000 1.0
C      1  0.4661500000000  0.4897560000000  0.5206340000000 1.0
C      1  0.4822540000000  0.5731520000000  0.5005070000000 1.0
C      1  0.5510890000000  0.5317550000000  0.5111150000000 1.0
C      1  0.5888870000000  0.5088460000000  0.4931650000000 1.0
C      1  0.4334660000000  0.4523350000000  0.5333450000000 1.0
C      1  0.4495560000000  0.5228580000000  0.4540860000000 1.0
C      1  0.4893350000000  0.4590010000000  0.4882880000000 1.0
C      1  0.4843870000000  0.4990840000000  0.5656050000000 1.0
C      1  0.5677400000000  0.5050910000000  0.5143830000000 1.0
C      1  0.4842660000000  0.5044820000000  0.5000480000000 1.0
C      1  0.4283740000000  0.5261660000000  0.4717580000000 1.0
C      1  0.5099180000000  0.4232490000000  0.5152970000000 1.0
C      1  0.4933460000000  0.5718250000000  0.5260280000000 1.0
C      1  0.4607490000000  0.5475030000000  0.4618430000000 1.0
C      1  0.4985620000000  0.5277460000000  0.4997640000000 1.0
C      1  0.5490880000000  0.4546030000000  0.5194150000000 1.0
C      1  0.4740160000000  0.4247540000000  0.4711840000000 1.0
C      1  0.4615010000000  0.4695900000000  0.4452390000000 1.0
C      1  0.5262590000000  0.5630920000000  0.5625460000000 1.0
C      1  0.5328150000000  0.4359230000000  0.5025520000000 1.0
C      1  0.5297110000000  0.4601780000000  0.5413140000000 1.0
C      1  0.4678540000000  0.5412050000000  0.5344490000000 1.0
C      1  0.5031210000000  0.5123410000000  0.5656500000000 1.0
C      1  0.5745270000000  0.5193260000000  0.4675380000000 1.0
C      1  0.5446570000000  0.5613320000000  0.5167630000000 1.0
C      1  0.4976550000000  0.4527980000000  0.4367500000000 1.0
C      1  0.5199610000000  0.4933140000000  0.4257380000000 1.0
C      1  0.4715550000000  0.5642520000000  0.4788440000000 1.0
C      1  0.4365680000000  0.4895730000000  0.5125520000000 1.0
END
