TITL C-883738-3659-382 21.0402504834608 125000 -21858.8693260009 0 0 146 (C1) n - 1
REM
REM in /home/nfs/bkarasulu/CARBON/AIRSS/Generating-Clusters/ReaxFF-fromJPCA2015/Units_Real/with-SteepDescent/Only-C1/SD-CG/Try1-3A/FIRE-CG
REM
REM
REM
REM
REM
REM ./C.cell (11c1c37f851c82e70ff6c80c92926a4b)
REM
REM compiler GCC version 9.2.1 20190827 (Red Hat 9.2.1-1)
REM options -cpp -mtune=generic -march=x86-64 -g -O0 -fpre-include=/usr/include/finclude/math-vector-fortran.h
REM seed -2116024058 1686010592 1908571986 -290656266 1712674513 1778841448 1401566652 -1271525297 -855303439 1558335715 322459555 265767532 -1022345324 995878286 -828251969 1570464248 193355491 1588741754 -788863266 634696143 -1555638557 -1815055716 -1953166105 -466666171 -482874873 151713079 -262797064 -1365890526 39680959 -2033141398 1150928155 -88463026 832268834
REM
CELL 1.54180   50.00000   50.00000   50.00000   90.00000   90.00000   90.00000
LATT -1
SFAC C  
C      1  0.5453430000000  0.4580210000000  0.5044240000000 1.0
C      1  0.4490240000000  0.4140050000000  0.4914970000000 1.0
C      1  0.5398050000000  0.5315280000000  0.5916440000000 1.0
C      1  0.4859460000000  0.5821020000000  0.4902860000000 1.0
C      1  0.5350140000000  0.4708780000000  0.5284270000000 1.0
C      1  0.5420290000000  0.4290040000000  0.5489680000000 1.0
C      1  0.4007750000000  0.5101900000000  0.5070400000000 1.0
C      1  0.5864170000000  0.5309160000000  0.4449700000000 1.0
C      1  0.5836220000000  0.5513350000000  0.4634860000000 1.0
C      1  0.5418210000000  0.5116450000000  0.5311570000000 1.0
C      1  0.5802730000000  0.4652390000000  0.5337870000000 1.0
C      1  0.4642230000000  0.5743750000000  0.4469810000000 1.0
C      1  0.6008500000000  0.5085010000000  0.5159540000000 1.0
C      1  0.4721580000000  0.5608380000000  0.5046740000000 1.0
C      1  0.5088570000000  0.5190320000000  0.4242860000000 1.0
C      1  0.5570360000000  0.4140030000000  0.5041170000000 1.0
C      1  0.4963440000000  0.4492240000000  0.4931520000000 1.0
C      1  0.4929140000000  0.4770800000000  0.5024590000000 1.0
C      1  0.4441230000000  0.5105910000000  0.5718900000000 1.0
C      1  0.4974510000000  0.5733660000000  0.5590460000000 1.0
C      1  0.5115460000000  0.4948820000000  0.5746340000000 1.0
C      1  0.4031470000000  0.4913730000000  0.4849760000000 1.0
C      1  0.4370450000000  0.4752980000000  0.4202410000000 1.0
C      1  0.4739180000000  0.5592730000000  0.5697930000000 1.0
C      1  0.4250830000000  0.5171360000000  0.4546580000000 1.0
C      1  0.5561480000000  0.5076200000000  0.5044520000000 1.0
C      1  0.4085020000000  0.4928190000000  0.4562530000000 1.0
C      1  0.4967600000000  0.4181130000000  0.5660810000000 1.0
C      1  0.5626800000000  0.4605360000000  0.4377690000000 1.0
C      1  0.5215730000000  0.4329080000000  0.5694510000000 1.0
C      1  0.4418840000000  0.5089960000000  0.4779320000000 1.0
C      1  0.5973970000000  0.5129890000000  0.4671990000000 1.0
C      1  0.4629670000000  0.5132830000000  0.5130420000000 1.0
C      1  0.5822860000000  0.4873980000000  0.5066240000000 1.0
C      1  0.5483470000000  0.5563980000000  0.4239370000000 1.0
C      1  0.4914960000000  0.5095910000000  0.4454650000000 1.0
C      1  0.4933620000000  0.4019200000000  0.5394770000000 1.0
C      1  0.5309990000000  0.4716630000000  0.4020590000000 1.0
C      1  0.4829010000000  0.5205320000000  0.5343100000000 1.0
C      1  0.5589940000000  0.5809890000000  0.4956930000000 1.0
C      1  0.5984620000000  0.5278310000000  0.4933410000000 1.0
C      1  0.5492550000000  0.4051880000000  0.4772320000000 1.0
C      1  0.4765010000000  0.5492690000000  0.4087810000000 1.0
C      1  0.5138440000000  0.5884360000000  0.4829940000000 1.0
C      1  0.4191800000000  0.4688930000000  0.4416590000000 1.0
C      1  0.4605360000000  0.5257180000000  0.4861090000000 1.0
C      1  0.5239730000000  0.4546110000000  0.4839880000000 1.0
C      1  0.4714000000000  0.4691580000000  0.4596610000000 1.0
C      1  0.5099000000000  0.5485890000000  0.5005600000000 1.0
C      1  0.4378790000000  0.4326730000000  0.5402560000000 1.0
C      1  0.4641190000000  0.4417470000000  0.4554340000000 1.0
C      1  0.4261680000000  0.4664530000000  0.4815720000000 1.0
C      1  0.5345660000000  0.5937960000000  0.5036040000000 1.0
C      1  0.5415570000000  0.5122830000000  0.4280540000000 1.0
C      1  0.5011280000000  0.4076800000000  0.4870530000000 1.0
C      1  0.5267720000000  0.5639350000000  0.4054630000000 1.0
C      1  0.4395880000000  0.5268970000000  0.4312320000000 1.0
C      1  0.5220370000000  0.5315240000000  0.5401240000000 1.0
C      1  0.4806750000000  0.4897700000000  0.6075670000000 1.0
C      1  0.5035100000000  0.4649950000000  0.4164570000000 1.0
C      1  0.5347100000000  0.5012710000000  0.4766870000000 1.0
C      1  0.4583180000000  0.4534450000000  0.5396860000000 1.0
C      1  0.5645600000000  0.5319080000000  0.4244130000000 1.0
C      1  0.4589040000000  0.4564070000000  0.4123060000000 1.0
C      1  0.4505480000000  0.4815000000000  0.4730150000000 1.0
C      1  0.4326920000000  0.5914890000000  0.4857560000000 1.0
C      1  0.4362590000000  0.5452170000000  0.5332990000000 1.0
C      1  0.4166750000000  0.4488060000000  0.5288420000000 1.0
C      1  0.4691080000000  0.4726480000000  0.5586140000000 1.0
C      1  0.4452760000000  0.5032870000000  0.4144220000000 1.0
C      1  0.5698740000000  0.4410570000000  0.5033610000000 1.0
C      1  0.4291710000000  0.5812670000000  0.5117710000000 1.0
C      1  0.5882860000000  0.4862590000000  0.5515050000000 1.0
C      1  0.4164610000000  0.5141580000000  0.5595110000000 1.0
C      1  0.5601970000000  0.5560210000000  0.5140540000000 1.0
C      1  0.5254170000000  0.4565230000000  0.5871950000000 1.0
C      1  0.5946800000000  0.5137010000000  0.5436080000000 1.0
C      1  0.5454140000000  0.4895990000000  0.5479870000000 1.0
C      1  0.4600970000000  0.4528330000000  0.5854410000000 1.0
C      1  0.5812770000000  0.4398180000000  0.4757830000000 1.0
C      1  0.4325440000000  0.4513000000000  0.5048290000000 1.0
C      1  0.5510160000000  0.4336520000000  0.4390390000000 1.0
C      1  0.5257010000000  0.5920260000000  0.5317720000000 1.0
C      1  0.5620870000000  0.4502020000000  0.5521900000000 1.0
C      1  0.4743550000000  0.5187660000000  0.6066810000000 1.0
C      1  0.4767900000000  0.4333390000000  0.5769000000000 1.0
C      1  0.4501080000000  0.5640380000000  0.5528010000000 1.0
C      1  0.5102050000000  0.4998400000000  0.4941780000000 1.0
C      1  0.4979510000000  0.5688970000000  0.4126430000000 1.0
C      1  0.5637190000000  0.5214480000000  0.5789600000000 1.0
C      1  0.4154240000000  0.5250470000000  0.5326520000000 1.0
C      1  0.4788470000000  0.4732320000000  0.4006890000000 1.0
C      1  0.4570550000000  0.4660430000000  0.5134610000000 1.0
C      1  0.4689400000000  0.6050230000000  0.4943780000000 1.0
C      1  0.4976630000000  0.4785170000000  0.5544720000000 1.0
C      1  0.5013080000000  0.4362250000000  0.4257810000000 1.0
C      1  0.4657240000000  0.5056620000000  0.5535540000000 1.0
C      1  0.4972330000000  0.5939910000000  0.5380060000000 1.0
C      1  0.4429340000000  0.5550760000000  0.5058890000000 1.0
C      1  0.5892420000000  0.4867630000000  0.4769440000000 1.0
C      1  0.4481960000000  0.5869810000000  0.5347960000000 1.0
C      1  0.3995490000000  0.4916100000000  0.5530620000000 1.0
C      1  0.5060590000000  0.4780980000000  0.5974000000000 1.0
C      1  0.4926390000000  0.5778980000000  0.4400980000000 1.0
C      1  0.5526060000000  0.4623960000000  0.5777550000000 1.0
C      1  0.5221700000000  0.5563610000000  0.5592370000000 1.0
C      1  0.5702380000000  0.5322450000000  0.4990610000000 1.0
C      1  0.5430230000000  0.5744330000000  0.5500240000000 1.0
C      1  0.5776880000000  0.5351920000000  0.5569800000000 1.0
C      1  0.4542570000000  0.5001470000000  0.5978990000000 1.0
C      1  0.5219810000000  0.4086720000000  0.4666850000000 1.0
C      1  0.5298570000000  0.5482570000000  0.5183290000000 1.0
C      1  0.4272130000000  0.4188720000000  0.4731140000000 1.0
C      1  0.4854180000000  0.5383170000000  0.5875550000000 1.0
C      1  0.4714190000000  0.6008700000000  0.5239320000000 1.0
C      1  0.5652190000000  0.4897780000000  0.5718280000000 1.0
C      1  0.5670900000000  0.5590910000000  0.5446620000000 1.0
C      1  0.4559590000000  0.5518800000000  0.4293580000000 1.0
C      1  0.5228760000000  0.4248280000000  0.4415960000000 1.0
C      1  0.5372710000000  0.5230070000000  0.4552920000000 1.0
C      1  0.4432920000000  0.4922460000000  0.5139340000000 1.0
C      1  0.5105800000000  0.4039550000000  0.5156540000000 1.0
C      1  0.4897770000000  0.5466020000000  0.5206490000000 1.0
C      1  0.3900320000000  0.4910980000000  0.5252190000000 1.0
C      1  0.5235110000000  0.4757570000000  0.4640930000000 1.0
C      1  0.4439750000000  0.4095850000000  0.5211120000000 1.0
C      1  0.5391930000000  0.5565030000000  0.4537700000000 1.0
C      1  0.4184570000000  0.4783170000000  0.5333440000000 1.0
C      1  0.4812540000000  0.5267080000000  0.4669290000000 1.0
C      1  0.4784370000000  0.4270240000000  0.4824420000000 1.0
C      1  0.4307760000000  0.4452950000000  0.4569390000000 1.0
C      1  0.4696090000000  0.4024720000000  0.5262780000000 1.0
C      1  0.5071740000000  0.4761320000000  0.5283490000000 1.0
C      1  0.5635150000000  0.5700870000000  0.4694110000000 1.0
C      1  0.5372300000000  0.4123180000000  0.5249570000000 1.0
C      1  0.5502490000000  0.4809510000000  0.4209760000000 1.0
C      1  0.4726170000000  0.4364380000000  0.4288310000000 1.0
C      1  0.5033440000000  0.5260640000000  0.4849490000000 1.0
C      1  0.4975250000000  0.4797280000000  0.4482920000000 1.0
C      1  0.4701410000000  0.5010860000000  0.3994440000000 1.0
C      1  0.4532750000000  0.5930050000000  0.4678730000000 1.0
C      1  0.5162680000000  0.5758540000000  0.4573330000000 1.0
C      1  0.5668860000000  0.4201530000000  0.4595000000000 1.0
C      1  0.4895490000000  0.5233110000000  0.4027720000000 1.0
C      1  0.5114170000000  0.5249020000000  0.5817610000000 1.0
C      1  0.5823110000000  0.4641380000000  0.4600170000000 1.0
END
