TITL C-884136-4169-402 10.0688753770096 125000 -6573.91679257159 0 0 46 (C1) n - 1
REM
REM in /home/nfs/bkarasulu/CARBON/AIRSS/Generating-Clusters/ReaxFF-fromJPCA2015/Units_Real/with-SteepDescent/Only-C1/SD-CG/Try1-3A/FIRE-CG
REM
REM
REM
REM
REM
REM ./C.cell (11c1c37f851c82e70ff6c80c92926a4b)
REM
REM compiler GCC version 9.2.1 20190827 (Red Hat 9.2.1-1)
REM options -cpp -mtune=generic -march=x86-64 -g -O0 -fpre-include=/usr/include/finclude/math-vector-fortran.h
REM seed 922981358 885186556 -1554454509 1863148705 658618776 553354180 -589816218 1068801646 769026526 1516157168 1150417186 -1396735200 1488351127 502622916 -2139560276 -642155529 1267671975 979474870 -1722808743 -312035267 934601917 1028253799 -372281355 -1430413157 1448757537 237462554 -889327226 -1851148771 -1454629091 -2038708407 658464560 1856465101 210668035
REM
CELL 1.54180   50.00000   50.00000   50.00000   90.00000   90.00000   90.00000
LATT -1
SFAC C  
C      1  0.5462690000000  0.5317750000000  0.5242580000000 1.0
C      1  0.5392830000000  0.5356180000000  0.4592150000000 1.0
C      1  0.4860690000000  0.4875430000000  0.4295390000000 1.0
C      1  0.5375580000000  0.4489500000000  0.4888990000000 1.0
C      1  0.5012290000000  0.5511790000000  0.5328910000000 1.0
C      1  0.5102890000000  0.4556820000000  0.4798310000000 1.0
C      1  0.5449280000000  0.4845190000000  0.5435290000000 1.0
C      1  0.4698190000000  0.4825110000000  0.5603390000000 1.0
C      1  0.5513110000000  0.4561660000000  0.5137960000000 1.0
C      1  0.4663280000000  0.4885670000000  0.4664380000000 1.0
C      1  0.4857990000000  0.5066910000000  0.5655780000000 1.0
C      1  0.4645230000000  0.4357990000000  0.5085920000000 1.0
C      1  0.5538870000000  0.5128530000000  0.4534410000000 1.0
C      1  0.5091080000000  0.4466690000000  0.5450980000000 1.0
C      1  0.5510670000000  0.4753180000000  0.4904560000000 1.0
C      1  0.5198280000000  0.5535850000000  0.4660800000000 1.0
C      1  0.4733270000000  0.5327170000000  0.5684190000000 1.0
C      1  0.5567700000000  0.5217200000000  0.5016790000000 1.0
C      1  0.4359720000000  0.4715000000000  0.5250970000000 1.0
C      1  0.4808300000000  0.5331600000000  0.4920630000000 1.0
C      1  0.5046240000000  0.4932070000000  0.5193510000000 1.0
C      1  0.4810710000000  0.5769010000000  0.4423200000000 1.0
C      1  0.4397200000000  0.5036160000000  0.5003090000000 1.0
C      1  0.4856660000000  0.4464040000000  0.5270240000000 1.0
C      1  0.5063950000000  0.5069450000000  0.4322330000000 1.0
C      1  0.4841350000000  0.4573860000000  0.5550440000000 1.0
C      1  0.5232380000000  0.5507370000000  0.5169970000000 1.0
C      1  0.4646300000000  0.5323140000000  0.5160680000000 1.0
C      1  0.5063340000000  0.5485480000000  0.4919940000000 1.0
C      1  0.4462870000000  0.4891520000000  0.5443220000000 1.0
C      1  0.4968950000000  0.5565820000000  0.4440700000000 1.0
C      1  0.5385520000000  0.5116300000000  0.5451230000000 1.0
C      1  0.4751830000000  0.5169150000000  0.4676490000000 1.0
C      1  0.4873880000000  0.5266010000000  0.4429990000000 1.0
C      1  0.5277750000000  0.4924420000000  0.4497350000000 1.0
C      1  0.4442700000000  0.5108680000000  0.5217850000000 1.0
C      1  0.5120580000000  0.4653600000000  0.4526360000000 1.0
C      1  0.4427750000000  0.4554430000000  0.5023580000000 1.0
C      1  0.4754650000000  0.5463700000000  0.5403520000000 1.0
C      1  0.4446680000000  0.4806470000000  0.4843840000000 1.0
C      1  0.4825690000000  0.4681040000000  0.4501780000000 1.0
C      1  0.5084410000000  0.5048110000000  0.5435570000000 1.0
C      1  0.5050570000000  0.4828450000000  0.4939680000000 1.0
C      1  0.5662590000000  0.5122080000000  0.4797940000000 1.0
C      1  0.5295400000000  0.4935730000000  0.4805790000000 1.0
C      1  0.5368080000000  0.4578690000000  0.5399300000000 1.0
END
