TITL C-884130-5973-95 193.575538150554 125000 -21758.8636797806 0 0 149 (C1) n - 1
REM
REM in /home/nfs/bkarasulu/CARBON/AIRSS/Generating-Clusters/ReaxFF-fromJPCA2015/Units_Real/with-SteepDescent/Only-C1/SD-CG/Try1-3A/FIRE-CG
REM
REM
REM
REM
REM
REM ./C.cell (11c1c37f851c82e70ff6c80c92926a4b)
REM
REM compiler GCC version 9.2.1 20190827 (Red Hat 9.2.1-1)
REM options -cpp -mtune=generic -march=x86-64 -g -O0 -fpre-include=/usr/include/finclude/math-vector-fortran.h
REM seed 974061961 349168231 738506835 -1896773566 294032076 -1733956833 -172732832 -1693784686 516519623 -735297108 -644450440 -449582699 1749026184 -1773343835 1812500604 667522090 -1895101368 264656374 -1812275071 54618077 -363661462 -405919492 1013081401 -1027807630 1656052323 149712323 786081493 2001937167 2040329807 1961179836 1078027887 1327391078 -884675406
REM
CELL 1.54180   50.00000   50.00000   50.00000   90.00000   90.00000   90.00000
LATT -1
SFAC C  
C      1  0.4819540000000  0.4070410000000  0.5446670000000 1.0
C      1  0.4844460000000  0.4837720000000  0.5714650000000 1.0
C      1  0.5998610000000  0.4963480000000  0.5226260000000 1.0
C      1  0.5313330000000  0.4528490000000  0.5213980000000 1.0
C      1  0.5416980000000  0.5012850000000  0.5220570000000 1.0
C      1  0.5849280000000  0.4528540000000  0.5374570000000 1.0
C      1  0.4939100000000  0.5542870000000  0.4949000000000 1.0
C      1  0.5365280000000  0.4912120000000  0.4770750000000 1.0
C      1  0.5424860000000  0.4631990000000  0.5872480000000 1.0
C      1  0.5243460000000  0.5059790000000  0.5009260000000 1.0
C      1  0.5867150000000  0.4714580000000  0.5602210000000 1.0
C      1  0.5987790000000  0.4965640000000  0.5517700000000 1.0
C      1  0.4538700000000  0.4063800000000  0.4835330000000 1.0
C      1  0.5933440000000  0.5482360000000  0.5220030000000 1.0
C      1  0.5155200000000  0.5289680000000  0.4561040000000 1.0
C      1  0.5390440000000  0.5891200000000  0.4821480000000 1.0
C      1  0.4742110000000  0.3932320000000  0.5185130000000 1.0
C      1  0.4600230000000  0.5595820000000  0.4728170000000 1.0
C      1  0.5859160000000  0.4617670000000  0.4868580000000 1.0
C      1  0.4119460000000  0.5126780000000  0.4553040000000 1.0
C      1  0.5064190000000  0.5772540000000  0.4460440000000 1.0
C      1  0.4388470000000  0.5541800000000  0.5248180000000 1.0
C      1  0.5659890000000  0.5084410000000  0.5811480000000 1.0
C      1  0.4493750000000  0.4260090000000  0.5268100000000 1.0
C      1  0.4741520000000  0.4663080000000  0.5299160000000 1.0
C      1  0.5450640000000  0.4174400000000  0.4472060000000 1.0
C      1  0.4953410000000  0.5832250000000  0.4763450000000 1.0
C      1  0.4736180000000  0.6008180000000  0.4843260000000 1.0
C      1  0.4490660000000  0.4477600000000  0.5616060000000 1.0
C      1  0.4003090000000  0.4804020000000  0.4942820000000 1.0
C      1  0.5024350000000  0.4784620000000  0.3925020000000 1.0
C      1  0.4289420000000  0.5114060000000  0.5773100000000 1.0
C      1  0.5188530000000  0.4843630000000  0.5503580000000 1.0
C      1  0.4287340000000  0.4386990000000  0.5433240000000 1.0
C      1  0.5617000000000  0.5318480000000  0.4691360000000 1.0
C      1  0.5679830000000  0.4291990000000  0.5345980000000 1.0
C      1  0.5001140000000  0.4547640000000  0.6023930000000 1.0
C      1  0.5292450000000  0.4650260000000  0.3979830000000 1.0
C      1  0.5453860000000  0.4247690000000  0.5529560000000 1.0
C      1  0.4071260000000  0.5236600000000  0.5333390000000 1.0
C      1  0.5411720000000  0.5220400000000  0.5925420000000 1.0
C      1  0.5093860000000  0.4122330000000  0.4846930000000 1.0
C      1  0.5336030000000  0.4116110000000  0.5052680000000 1.0
C      1  0.4962260000000  0.4695830000000  0.4193940000000 1.0
C      1  0.5191380000000  0.4750950000000  0.4606000000000 1.0
C      1  0.4260440000000  0.4476530000000  0.4964210000000 1.0
C      1  0.4815560000000  0.4953010000000  0.4609350000000 1.0
C      1  0.5123620000000  0.4865310000000  0.4355680000000 1.0
C      1  0.4162640000000  0.5499160000000  0.5446810000000 1.0
C      1  0.5609320000000  0.4209120000000  0.5062170000000 1.0
C      1  0.4464000000000  0.5823110000000  0.5560740000000 1.0
C      1  0.4797240000000  0.4975050000000  0.3966780000000 1.0
C      1  0.5132420000000  0.4586330000000  0.5011670000000 1.0
C      1  0.6062360000000  0.5291100000000  0.4670280000000 1.0
C      1  0.5347980000000  0.5567830000000  0.5503580000000 1.0
C      1  0.4970130000000  0.5156870000000  0.4730900000000 1.0
C      1  0.4281110000000  0.5855140000000  0.5023730000000 1.0
C      1  0.5656670000000  0.4796360000000  0.5789750000000 1.0
C      1  0.4903990000000  0.4694780000000  0.4674030000000 1.0
C      1  0.4367860000000  0.5454250000000  0.4829320000000 1.0
C      1  0.4468330000000  0.4957960000000  0.5885130000000 1.0
C      1  0.5193120000000  0.5404690000000  0.5001370000000 1.0
C      1  0.5449140000000  0.5522830000000  0.4245800000000 1.0
C      1  0.4819760000000  0.4902780000000  0.5183600000000 1.0
C      1  0.5184380000000  0.4157610000000  0.4555100000000 1.0
C      1  0.4572160000000  0.4825970000000  0.4094340000000 1.0
C      1  0.4431030000000  0.4696390000000  0.4887800000000 1.0
C      1  0.4250850000000  0.5187870000000  0.4302870000000 1.0
C      1  0.4767090000000  0.4284640000000  0.5626440000000 1.0
C      1  0.4756090000000  0.5859320000000  0.5563650000000 1.0
C      1  0.4452040000000  0.5348840000000  0.5764440000000 1.0
C      1  0.4428540000000  0.4972630000000  0.4953000000000 1.0
C      1  0.5514660000000  0.4763320000000  0.4106090000000 1.0
C      1  0.5032730000000  0.4858510000000  0.5013410000000 1.0
C      1  0.5907320000000  0.5042770000000  0.4257820000000 1.0
C      1  0.4412020000000  0.5434250000000  0.4231290000000 1.0
C      1  0.5812920000000  0.5638980000000  0.5007640000000 1.0
C      1  0.5567380000000  0.5401000000000  0.5483830000000 1.0
C      1  0.5535280000000  0.4414500000000  0.4326370000000 1.0
C      1  0.4232230000000  0.4737300000000  0.4466880000000 1.0
C      1  0.4143760000000  0.5595800000000  0.4931250000000 1.0
C      1  0.5094180000000  0.5492670000000  0.5370080000000 1.0
C      1  0.4372200000000  0.4297100000000  0.4766510000000 1.0
C      1  0.4368230000000  0.5161560000000  0.4748780000000 1.0
C      1  0.4451630000000  0.5830530000000  0.5257900000000 1.0
C      1  0.5017890000000  0.4362560000000  0.5795780000000 1.0
C      1  0.4791340000000  0.4362910000000  0.4323340000000 1.0
C      1  0.4331730000000  0.5691770000000  0.4353310000000 1.0
C      1  0.4463800000000  0.4005880000000  0.5115390000000 1.0
C      1  0.5633620000000  0.5022580000000  0.4144380000000 1.0
C      1  0.4008860000000  0.4772170000000  0.5227030000000 1.0
C      1  0.4817560000000  0.3976000000000  0.4902060000000 1.0
C      1  0.4579100000000  0.5339090000000  0.5298720000000 1.0
C      1  0.5269370000000  0.4251770000000  0.5300640000000 1.0
C      1  0.5203900000000  0.5053890000000  0.6067280000000 1.0
C      1  0.6028770000000  0.5025080000000  0.4527520000000 1.0
C      1  0.5150400000000  0.5997390000000  0.4932350000000 1.0
C      1  0.5833600000000  0.5457380000000  0.5499380000000 1.0
C      1  0.4633860000000  0.5109570000000  0.5113190000000 1.0
C      1  0.4981730000000  0.5774200000000  0.5382470000000 1.0
C      1  0.5198200000000  0.5365430000000  0.5803470000000 1.0
C      1  0.4317640000000  0.5589930000000  0.5674910000000 1.0
C      1  0.4334820000000  0.4907370000000  0.4253480000000 1.0
C      1  0.4680250000000  0.4666340000000  0.5559710000000 1.0
C      1  0.4725370000000  0.4513340000000  0.4549560000000 1.0
C      1  0.5921690000000  0.4691540000000  0.5142160000000 1.0
C      1  0.4752000000000  0.5027260000000  0.5901950000000 1.0
C      1  0.5617930000000  0.5018740000000  0.4676790000000 1.0
C      1  0.5430670000000  0.5254390000000  0.4180930000000 1.0
C      1  0.5171200000000  0.5946740000000  0.5229120000000 1.0
C      1  0.5071800000000  0.4282320000000  0.4328730000000 1.0
C      1  0.5671400000000  0.4289770000000  0.4560650000000 1.0
C      1  0.4052950000000  0.5364090000000  0.5076130000000 1.0
C      1  0.5222530000000  0.4758410000000  0.6036260000000 1.0
C      1  0.5844270000000  0.4833150000000  0.4664340000000 1.0
C      1  0.4489100000000  0.5829410000000  0.4568690000000 1.0
C      1  0.5854520000000  0.5480740000000  0.4752830000000 1.0
C      1  0.5154850000000  0.5161850000000  0.4289900000000 1.0
C      1  0.4987420000000  0.5221460000000  0.5950430000000 1.0
C      1  0.4110800000000  0.4495150000000  0.5219650000000 1.0
C      1  0.4445850000000  0.4550920000000  0.4610290000000 1.0
C      1  0.4735580000000  0.5416770000000  0.4551510000000 1.0
C      1  0.4710070000000  0.5440970000000  0.4150510000000 1.0
C      1  0.4902510000000  0.5555490000000  0.4348570000000 1.0
C      1  0.5554510000000  0.5782920000000  0.5036640000000 1.0
C      1  0.4315510000000  0.4852480000000  0.5641880000000 1.0
C      1  0.4621370000000  0.5149980000000  0.4555540000000 1.0
C      1  0.4037910000000  0.4858780000000  0.4652060000000 1.0
C      1  0.4879190000000  0.5219330000000  0.4099100000000 1.0
C      1  0.5013840000000  0.5015850000000  0.5565850000000 1.0
C      1  0.5400260000000  0.5789940000000  0.5295580000000 1.0
C      1  0.4931550000000  0.5285830000000  0.5498000000000 1.0
C      1  0.5341180000000  0.5409700000000  0.4742140000000 1.0
C      1  0.5873000000000  0.5203460000000  0.5651900000000 1.0
C      1  0.5861370000000  0.5208650000000  0.5146230000000 1.0
C      1  0.5290460000000  0.4429870000000  0.4181020000000 1.0
C      1  0.4702800000000  0.4572670000000  0.4146880000000 1.0
C      1  0.5313800000000  0.4391290000000  0.5743310000000 1.0
C      1  0.4812230000000  0.5288240000000  0.4926640000000 1.0
C      1  0.4145410000000  0.4954600000000  0.5429700000000 1.0
C      1  0.4941320000000  0.4370270000000  0.4970410000000 1.0
C      1  0.5593680000000  0.5219550000000  0.5274880000000 1.0
C      1  0.5444950000000  0.5746720000000  0.4313550000000 1.0
C      1  0.5730290000000  0.4358470000000  0.4836240000000 1.0
C      1  0.4663060000000  0.5349050000000  0.5562600000000 1.0
C      1  0.5324480000000  0.5795120000000  0.4517130000000 1.0
C      1  0.4735740000000  0.4406320000000  0.5165720000000 1.0
C      1  0.4454570000000  0.6001120000000  0.4821170000000 1.0
C      1  0.5405380000000  0.4768170000000  0.5352230000000 1.0
END
