TITL C-883732-77-261 14.2982385451898 125000 -18590.6178418856 0 0 123 (C1) n - 1
REM
REM in /home/nfs/bkarasulu/CARBON/AIRSS/Generating-Clusters/ReaxFF-fromJPCA2015/Units_Real/with-SteepDescent/Only-C1/SD-CG/Try1-3A/FIRE-CG
REM
REM
REM
REM
REM
REM ./C.cell (11c1c37f851c82e70ff6c80c92926a4b)
REM
REM compiler GCC version 9.2.1 20190827 (Red Hat 9.2.1-1)
REM options -cpp -mtune=generic -march=x86-64 -g -O0 -fpre-include=/usr/include/finclude/math-vector-fortran.h
REM seed 1391352087 -1676415904 2019607263 1868939626 914736750 2073416721 -375805891 454451977 -1498552786 -2138456060 1818476214 -1826238007 -356514706 -1234047805 -1624510317 -1606840301 -1024675748 -691654437 146590506 715596422 1682388998 1420423303 -1524401096 -1439717890 633550968 -973491901 -2138242641 1097340344 695525425 -809401180 527894300 -160473313 773548638
REM
CELL 1.54180   50.00000   50.00000   50.00000   90.00000   90.00000   90.00000
LATT -1
SFAC C  
C      1  0.4896570000000  0.4634080000000  0.4789080000000 1.0
C      1  0.5282050000000  0.5056490000000  0.4917610000000 1.0
C      1  0.5613520000000  0.4695880000000  0.5659910000000 1.0
C      1  0.5122530000000  0.4857730000000  0.5852110000000 1.0
C      1  0.4440380000000  0.5397730000000  0.4229500000000 1.0
C      1  0.4608690000000  0.5637780000000  0.4283190000000 1.0
C      1  0.5445540000000  0.4091120000000  0.4543740000000 1.0
C      1  0.5358530000000  0.5711510000000  0.4872870000000 1.0
C      1  0.4053580000000  0.5193380000000  0.4560460000000 1.0
C      1  0.5265370000000  0.4418930000000  0.4844080000000 1.0
C      1  0.4075020000000  0.4937220000000  0.4384760000000 1.0
C      1  0.4239400000000  0.5319830000000  0.4401290000000 1.0
C      1  0.5724350000000  0.4782840000000  0.5395340000000 1.0
C      1  0.4627690000000  0.5061020000000  0.5212870000000 1.0
C      1  0.4987670000000  0.5285970000000  0.5719830000000 1.0
C      1  0.5199210000000  0.4582510000000  0.5505860000000 1.0
C      1  0.5055220000000  0.4459680000000  0.5301030000000 1.0
C      1  0.4351090000000  0.4660810000000  0.5620780000000 1.0
C      1  0.4860460000000  0.5224980000000  0.5106340000000 1.0
C      1  0.4768160000000  0.4128570000000  0.5337700000000 1.0
C      1  0.4616200000000  0.5164370000000  0.4133100000000 1.0
C      1  0.5988740000000  0.5030800000000  0.4780550000000 1.0
C      1  0.5060560000000  0.4839020000000  0.5546120000000 1.0
C      1  0.4327430000000  0.5650460000000  0.4853710000000 1.0
C      1  0.5001520000000  0.5839460000000  0.4509930000000 1.0
C      1  0.5314380000000  0.4727710000000  0.4401350000000 1.0
C      1  0.4221120000000  0.5047180000000  0.5500370000000 1.0
C      1  0.5628910000000  0.5387670000000  0.5097750000000 1.0
C      1  0.5826030000000  0.5203610000000  0.5214410000000 1.0
C      1  0.5176750000000  0.5747480000000  0.5614200000000 1.0
C      1  0.4092770000000  0.4863480000000  0.5295580000000 1.0
C      1  0.5636690000000  0.4775800000000  0.4417590000000 1.0
C      1  0.4705410000000  0.5867670000000  0.5106580000000 1.0
C      1  0.4904650000000  0.5285140000000  0.4581090000000 1.0
C      1  0.4254070000000  0.5451130000000  0.5260300000000 1.0
C      1  0.4361760000000  0.4270750000000  0.4964040000000 1.0
C      1  0.4867900000000  0.4103030000000  0.5069590000000 1.0
C      1  0.5153180000000  0.5642970000000  0.5066380000000 1.0
C      1  0.4737640000000  0.4207510000000  0.4458950000000 1.0
C      1  0.5486520000000  0.5754200000000  0.5580200000000 1.0
C      1  0.4882650000000  0.5260850000000  0.4078170000000 1.0
C      1  0.5862730000000  0.4387800000000  0.4709750000000 1.0
C      1  0.5416160000000  0.4561680000000  0.5040660000000 1.0
C      1  0.4922100000000  0.4670580000000  0.5146840000000 1.0
C      1  0.5460550000000  0.4468450000000  0.5555300000000 1.0
C      1  0.4436510000000  0.4187710000000  0.4477900000000 1.0
C      1  0.4286150000000  0.4345880000000  0.4687140000000 1.0
C      1  0.4542780000000  0.4312720000000  0.5391230000000 1.0
C      1  0.4535130000000  0.5786220000000  0.5539180000000 1.0
C      1  0.5114340000000  0.5396940000000  0.5231530000000 1.0
C      1  0.4902510000000  0.5081300000000  0.5875500000000 1.0
C      1  0.5853820000000  0.4605070000000  0.4505540000000 1.0
C      1  0.4336630000000  0.5724380000000  0.5328530000000 1.0
C      1  0.4760050000000  0.5918300000000  0.5389830000000 1.0
C      1  0.4335250000000  0.4791480000000  0.4389020000000 1.0
C      1  0.5489710000000  0.4917340000000  0.5275850000000 1.0
C      1  0.4607110000000  0.4573410000000  0.5509840000000 1.0
C      1  0.5867100000000  0.4681400000000  0.5156780000000 1.0
C      1  0.4056830000000  0.5195780000000  0.4864870000000 1.0
C      1  0.5577220000000  0.5112480000000  0.5689570000000 1.0
C      1  0.4868400000000  0.5477730000000  0.4291950000000 1.0
C      1  0.5410660000000  0.4136120000000  0.5132000000000 1.0
C      1  0.5757210000000  0.5261910000000  0.5514970000000 1.0
C      1  0.4591550000000  0.5355130000000  0.5844590000000 1.0
C      1  0.4304400000000  0.4369440000000  0.5231760000000 1.0
C      1  0.4751960000000  0.5031100000000  0.4547490000000 1.0
C      1  0.4374950000000  0.4933740000000  0.5724800000000 1.0
C      1  0.4187040000000  0.4603100000000  0.5375320000000 1.0
C      1  0.5099010000000  0.5676540000000  0.4293550000000 1.0
C      1  0.5288070000000  0.5458430000000  0.4244540000000 1.0
C      1  0.5202830000000  0.5005520000000  0.4359940000000 1.0
C      1  0.4706420000000  0.5774660000000  0.4518970000000 1.0
C      1  0.5387870000000  0.4257350000000  0.4301040000000 1.0
C      1  0.5085490000000  0.5477680000000  0.5547250000000 1.0
C      1  0.4415330000000  0.5827960000000  0.5068370000000 1.0
C      1  0.4981690000000  0.4249760000000  0.5499900000000 1.0
C      1  0.5026890000000  0.4570210000000  0.5948540000000 1.0
C      1  0.5458500000000  0.4385730000000  0.5273420000000 1.0
C      1  0.5158230000000  0.4122170000000  0.4951970000000 1.0
C      1  0.4593200000000  0.5074470000000  0.5866620000000 1.0
C      1  0.5678910000000  0.4152090000000  0.4713280000000 1.0
C      1  0.5052400000000  0.4988600000000  0.5106130000000 1.0
C      1  0.5833870000000  0.4430220000000  0.4998690000000 1.0
C      1  0.4402670000000  0.5217790000000  0.5352180000000 1.0
C      1  0.5036940000000  0.5957370000000  0.5463040000000 1.0
C      1  0.5622840000000  0.5583570000000  0.4874960000000 1.0
C      1  0.4566740000000  0.5583340000000  0.4697370000000 1.0
C      1  0.4563740000000  0.5564550000000  0.5703770000000 1.0
C      1  0.5184190000000  0.6069230000000  0.4964130000000 1.0
C      1  0.4300190000000  0.4801450000000  0.4887830000000 1.0
C      1  0.5817590000000  0.5008700000000  0.4393640000000 1.0
C      1  0.4585680000000  0.4951480000000  0.4327250000000 1.0
C      1  0.5288230000000  0.4496580000000  0.4177620000000 1.0
C      1  0.5405760000000  0.5387590000000  0.4498010000000 1.0
C      1  0.4978900000000  0.4366460000000  0.5761310000000 1.0
C      1  0.5674720000000  0.4163510000000  0.5006190000000 1.0
C      1  0.4746560000000  0.4376820000000  0.4698040000000 1.0
C      1  0.4290450000000  0.4636740000000  0.4641640000000 1.0
C      1  0.5442550000000  0.5957860000000  0.5383540000000 1.0
C      1  0.5227950000000  0.6088650000000  0.5251370000000 1.0
C      1  0.4886660000000  0.5685960000000  0.4967340000000 1.0
C      1  0.5666140000000  0.5452450000000  0.4619390000000 1.0
C      1  0.5462680000000  0.4841940000000  0.5003710000000 1.0
C      1  0.5920130000000  0.4966880000000  0.5065170000000 1.0
C      1  0.4546710000000  0.4922140000000  0.4952830000000 1.0
C      1  0.5444990000000  0.4898110000000  0.5796080000000 1.0
C      1  0.5208030000000  0.5178740000000  0.4602620000000 1.0
C      1  0.5219790000000  0.4988760000000  0.5350590000000 1.0
C      1  0.5160060000000  0.5200040000000  0.4147980000000 1.0
C      1  0.5199680000000  0.5931620000000  0.4721120000000 1.0
C      1  0.4162820000000  0.5438490000000  0.4978200000000 1.0
C      1  0.4793360000000  0.5425070000000  0.4835450000000 1.0
C      1  0.4071240000000  0.4941670000000  0.5012700000000 1.0
C      1  0.5626950000000  0.5503140000000  0.5563170000000 1.0
C      1  0.5848410000000  0.5223290000000  0.4603120000000 1.0
C      1  0.5166080000000  0.4606070000000  0.4653780000000 1.0
C      1  0.4647240000000  0.4200320000000  0.4913050000000 1.0
C      1  0.4740380000000  0.4870350000000  0.4765530000000 1.0
C      1  0.4766180000000  0.4785060000000  0.5371480000000 1.0
C      1  0.5191480000000  0.4003460000000  0.4664630000000 1.0
C      1  0.5355060000000  0.5280350000000  0.5101030000000 1.0
C      1  0.4956300000000  0.3998480000000  0.4494280000000 1.0
C      1  0.6026410000000  0.4849010000000  0.4546650000000 1.0
END
