TITL C-884132-5695-330 12.9040464096729 125000 -25970.1778491719 0 0 176 (C1) n - 1
REM
REM in /home/nfs/bkarasulu/CARBON/AIRSS/Generating-Clusters/ReaxFF-fromJPCA2015/Units_Real/with-SteepDescent/Only-C1/SD-CG/Try1-3A/FIRE-CG
REM
REM
REM
REM
REM
REM ./C.cell (11c1c37f851c82e70ff6c80c92926a4b)
REM
REM compiler GCC version 9.2.1 20190827 (Red Hat 9.2.1-1)
REM options -cpp -mtune=generic -march=x86-64 -g -O0 -fpre-include=/usr/include/finclude/math-vector-fortran.h
REM seed -1116494372 2071487864 1553402761 2047064094 -47126035 -98168861 -1092332337 -1161528021 -1910331311 510345769 1819027877 -1030230173 -891968249 -611565834 1285801950 1922692087 -413399302 -1179999376 917023110 108004161 -1888912817 -1383881161 -551426513 1044607638 363466119 -25164637 432901346 -1447834321 1025280503 540063222 2113969132 1657268656 1353013228
REM
CELL 1.54180   50.00000   50.00000   50.00000   90.00000   90.00000   90.00000
LATT -1
SFAC C  
C      1  0.4662470000000  0.4027710000000  0.5272090000000 1.0
C      1  0.5514810000000  0.5375050000000  0.4696270000000 1.0
C      1  0.5471810000000  0.4661780000000  0.5883290000000 1.0
C      1  0.4905220000000  0.5118490000000  0.5379410000000 1.0
C      1  0.5799930000000  0.4298930000000  0.5361260000000 1.0
C      1  0.5211300000000  0.5986470000000  0.5544800000000 1.0
C      1  0.4579050000000  0.4776760000000  0.4268070000000 1.0
C      1  0.4720880000000  0.5897170000000  0.4622220000000 1.0
C      1  0.4916730000000  0.4838890000000  0.5088790000000 1.0
C      1  0.4483880000000  0.4695280000000  0.5208920000000 1.0
C      1  0.4506780000000  0.6009190000000  0.5172530000000 1.0
C      1  0.5688140000000  0.5432940000000  0.4109310000000 1.0
C      1  0.4529010000000  0.4854140000000  0.5905250000000 1.0
C      1  0.4687010000000  0.4187480000000  0.4719490000000 1.0
C      1  0.4773740000000  0.5242400000000  0.4310800000000 1.0
C      1  0.4385650000000  0.4238460000000  0.5072580000000 1.0
C      1  0.5171700000000  0.4250370000000  0.5790270000000 1.0
C      1  0.4380540000000  0.5408120000000  0.4755360000000 1.0
C      1  0.5906330000000  0.4566600000000  0.4870550000000 1.0
C      1  0.3963350000000  0.5083090000000  0.5440140000000 1.0
C      1  0.4864280000000  0.5483040000000  0.5830100000000 1.0
C      1  0.5962750000000  0.5142270000000  0.4725590000000 1.0
C      1  0.5543720000000  0.5815870000000  0.4981480000000 1.0
C      1  0.4668280000000  0.4262840000000  0.5742500000000 1.0
C      1  0.5126540000000  0.5086630000000  0.5853870000000 1.0
C      1  0.5094540000000  0.5299340000000  0.4742140000000 1.0
C      1  0.4879770000000  0.4221100000000  0.4230860000000 1.0
C      1  0.4679930000000  0.5251170000000  0.5261820000000 1.0
C      1  0.5071930000000  0.4108310000000  0.5556420000000 1.0
C      1  0.4963710000000  0.4626240000000  0.5991210000000 1.0
C      1  0.5622700000000  0.4961290000000  0.4316880000000 1.0
C      1  0.4838970000000  0.4886490000000  0.4647510000000 1.0
C      1  0.5523260000000  0.5686120000000  0.5447740000000 1.0
C      1  0.5505320000000  0.5166980000000  0.5504420000000 1.0
C      1  0.5872220000000  0.4549960000000  0.5180740000000 1.0
C      1  0.5198590000000  0.5055400000000  0.4642830000000 1.0
C      1  0.4216840000000  0.5548670000000  0.5471280000000 1.0
C      1  0.4916910000000  0.4395310000000  0.5221130000000 1.0
C      1  0.5924420000000  0.5447140000000  0.5266530000000 1.0
C      1  0.5403300000000  0.4055670000000  0.4487410000000 1.0
C      1  0.5730060000000  0.5420650000000  0.5498720000000 1.0
C      1  0.5755720000000  0.5389240000000  0.5794340000000 1.0
C      1  0.4425070000000  0.4402040000000  0.5701760000000 1.0
C      1  0.4620960000000  0.4322220000000  0.4122730000000 1.0
C      1  0.4902170000000  0.4582630000000  0.5443520000000 1.0
C      1  0.4586270000000  0.5272070000000  0.3950880000000 1.0
C      1  0.4000150000000  0.4709090000000  0.5108060000000 1.0
C      1  0.4338030000000  0.5481110000000  0.5746510000000 1.0
C      1  0.4433350000000  0.5857750000000  0.4681270000000 1.0
C      1  0.5369880000000  0.4514870000000  0.5369730000000 1.0
C      1  0.5740690000000  0.5741130000000  0.4807950000000 1.0
C      1  0.5591990000000  0.4909680000000  0.4987210000000 1.0
C      1  0.5589080000000  0.4718510000000  0.5223340000000 1.0
C      1  0.5645340000000  0.5737060000000  0.4520090000000 1.0
C      1  0.4702970000000  0.4003740000000  0.4994330000000 1.0
C      1  0.5214940000000  0.5767730000000  0.4645250000000 1.0
C      1  0.5305950000000  0.5693130000000  0.5853350000000 1.0
C      1  0.4707180000000  0.6013470000000  0.5392270000000 1.0
C      1  0.5517540000000  0.5160410000000  0.5081550000000 1.0
C      1  0.5681160000000  0.4141760000000  0.5179440000000 1.0
C      1  0.4400940000000  0.4283580000000  0.4310460000000 1.0
C      1  0.5500980000000  0.5511410000000  0.5878370000000 1.0
C      1  0.4614520000000  0.5605920000000  0.5775310000000 1.0
C      1  0.4634720000000  0.5351490000000  0.4832100000000 1.0
C      1  0.4836640000000  0.5868800000000  0.4885500000000 1.0
C      1  0.4649510000000  0.4480480000000  0.4765790000000 1.0
C      1  0.4854590000000  0.5763330000000  0.4382170000000 1.0
C      1  0.4342480000000  0.5027190000000  0.4355080000000 1.0
C      1  0.3946420000000  0.5003160000000  0.5126220000000 1.0
C      1  0.5260340000000  0.5909260000000  0.4893520000000 1.0
C      1  0.5442510000000  0.4383660000000  0.5800550000000 1.0
C      1  0.4148680000000  0.5652330000000  0.5084570000000 1.0
C      1  0.5878190000000  0.4846120000000  0.5594390000000 1.0
C      1  0.4897410000000  0.5101120000000  0.5663370000000 1.0
C      1  0.5232550000000  0.5589270000000  0.5424140000000 1.0
C      1  0.5400610000000  0.4528380000000  0.4463860000000 1.0
C      1  0.4874290000000  0.4093740000000  0.4492640000000 1.0
C      1  0.4201150000000  0.4282810000000  0.4862790000000 1.0
C      1  0.4696940000000  0.5525320000000  0.4316560000000 1.0
C      1  0.5766500000000  0.5291870000000  0.4576370000000 1.0
C      1  0.4582180000000  0.5812370000000  0.5566750000000 1.0
C      1  0.4200720000000  0.4674350000000  0.5323210000000 1.0
C      1  0.5377200000000  0.4852610000000  0.4769540000000 1.0
C      1  0.5259340000000  0.4412500000000  0.4692820000000 1.0
C      1  0.4739470000000  0.4790600000000  0.6107400000000 1.0
C      1  0.4473940000000  0.5100640000000  0.5133880000000 1.0
C      1  0.5262610000000  0.4062040000000  0.5062140000000 1.0
C      1  0.4290800000000  0.5229230000000  0.5823340000000 1.0
C      1  0.4066010000000  0.4801120000000  0.5719610000000 1.0
C      1  0.5376330000000  0.4197990000000  0.4221090000000 1.0
C      1  0.4436410000000  0.4931800000000  0.4903940000000 1.0
C      1  0.4369500000000  0.4219360000000  0.4612340000000 1.0
C      1  0.5219580000000  0.5432940000000  0.5185910000000 1.0
C      1  0.5006100000000  0.6039890000000  0.5351210000000 1.0
C      1  0.3951970000000  0.5177860000000  0.4634210000000 1.0
C      1  0.4666120000000  0.4932280000000  0.5658510000000 1.0
C      1  0.4467830000000  0.5028180000000  0.4636060000000 1.0
C      1  0.5440170000000  0.5033640000000  0.3860600000000 1.0
C      1  0.5207950000000  0.5283990000000  0.4265510000000 1.0
C      1  0.5910340000000  0.4881220000000  0.4885750000000 1.0
C      1  0.5494040000000  0.5191350000000  0.4126440000000 1.0
C      1  0.5857650000000  0.4855500000000  0.4351250000000 1.0
C      1  0.4039080000000  0.4541510000000  0.4875190000000 1.0
C      1  0.5325090000000  0.4770510000000  0.3891020000000 1.0
C      1  0.5597680000000  0.4121450000000  0.4699680000000 1.0
C      1  0.4104340000000  0.5466820000000  0.4655050000000 1.0
C      1  0.6108320000000  0.5236510000000  0.5169740000000 1.0
C      1  0.4416720000000  0.4560300000000  0.4362030000000 1.0
C      1  0.5118990000000  0.5756500000000  0.4249860000000 1.0
C      1  0.5076100000000  0.4600020000000  0.5089310000000 1.0
C      1  0.5387680000000  0.5211590000000  0.5788060000000 1.0
C      1  0.5180320000000  0.4222490000000  0.5298500000000 1.0
C      1  0.5101260000000  0.4601800000000  0.3995850000000 1.0
C      1  0.4732990000000  0.5149690000000  0.4597810000000 1.0
C      1  0.4275350000000  0.5707530000000  0.4491730000000 1.0
C      1  0.6020680000000  0.4753720000000  0.5352160000000 1.0
C      1  0.5711880000000  0.4839290000000  0.5846530000000 1.0
C      1  0.4937390000000  0.5271500000000  0.6034580000000 1.0
C      1  0.5061240000000  0.5502490000000  0.4098040000000 1.0
C      1  0.5840640000000  0.4396720000000  0.4409180000000 1.0
C      1  0.4336010000000  0.5853050000000  0.4985050000000 1.0
C      1  0.4785870000000  0.4716860000000  0.4850240000000 1.0
C      1  0.5260900000000  0.5450840000000  0.4559300000000 1.0
C      1  0.5781410000000  0.5521900000000  0.4370150000000 1.0
C      1  0.6085860000000  0.5348640000000  0.4892270000000 1.0
C      1  0.4826020000000  0.5466510000000  0.3919590000000 1.0
C      1  0.5189250000000  0.4763160000000  0.5845870000000 1.0
C      1  0.4876600000000  0.4826790000000  0.4378800000000 1.0
C      1  0.5114480000000  0.4940450000000  0.5285810000000 1.0
C      1  0.4165500000000  0.4913170000000  0.5514410000000 1.0
C      1  0.4392990000000  0.4531430000000  0.4625190000000 1.0
C      1  0.5558180000000  0.4352830000000  0.5530770000000 1.0
C      1  0.5490180000000  0.5422400000000  0.4981930000000 1.0
C      1  0.4437900000000  0.5675820000000  0.5370620000000 1.0
C      1  0.5624800000000  0.5784020000000  0.5198530000000 1.0
C      1  0.5915170000000  0.5572000000000  0.4992950000000 1.0
C      1  0.5579130000000  0.4397390000000  0.4269260000000 1.0
C      1  0.5167970000000  0.4692730000000  0.5508370000000 1.0
C      1  0.4195190000000  0.4537930000000  0.5643070000000 1.0
C      1  0.5093020000000  0.5606970000000  0.5679600000000 1.0
C      1  0.4402910000000  0.5547390000000  0.4281180000000 1.0
C      1  0.5433230000000  0.5877030000000  0.5692180000000 1.0
C      1  0.5325470000000  0.5164670000000  0.5278560000000 1.0
C      1  0.5804470000000  0.4343650000000  0.4697950000000 1.0
C      1  0.5545410000000  0.4013830000000  0.4973700000000 1.0
C      1  0.4077040000000  0.5338820000000  0.5331250000000 1.0
C      1  0.4116420000000  0.4696620000000  0.4647700000000 1.0
C      1  0.5038640000000  0.5999730000000  0.5047510000000 1.0
C      1  0.5641300000000  0.4910980000000  0.5444760000000 1.0
C      1  0.4860630000000  0.4770670000000  0.3972340000000 1.0
C      1  0.4243160000000  0.4973960000000  0.5900440000000 1.0
C      1  0.4918970000000  0.4361100000000  0.5890180000000 1.0
C      1  0.4633520000000  0.4607870000000  0.4032990000000 1.0
C      1  0.3958550000000  0.5497780000000  0.4929950000000 1.0
C      1  0.5378580000000  0.5819200000000  0.4418220000000 1.0
C      1  0.4776530000000  0.5567110000000  0.5003720000000 1.0
C      1  0.5240900000000  0.4609990000000  0.4868010000000 1.0
C      1  0.5109830000000  0.5011850000000  0.4364930000000 1.0
C      1  0.4658670000000  0.5535510000000  0.5273570000000 1.0
C      1  0.4085570000000  0.4947570000000  0.4516960000000 1.0
C      1  0.5006870000000  0.5398250000000  0.4996180000000 1.0
C      1  0.4780970000000  0.5081510000000  0.4062540000000 1.0
C      1  0.4668060000000  0.4740440000000  0.5437490000000 1.0
C      1  0.4780040000000  0.4082200000000  0.5536310000000 1.0
C      1  0.5127320000000  0.4334270000000  0.4125780000000 1.0
C      1  0.4202930000000  0.5175550000000  0.5126860000000 1.0
C      1  0.5128170000000  0.3982080000000  0.4575780000000 1.0
C      1  0.4573470000000  0.4417640000000  0.5179460000000 1.0
C      1  0.5660350000000  0.5126040000000  0.5896760000000 1.0
C      1  0.3865340000000  0.5219100000000  0.4899140000000 1.0
C      1  0.5468640000000  0.4793260000000  0.4501800000000 1.0
C      1  0.5156390000000  0.4159360000000  0.4807890000000 1.0
C      1  0.4383950000000  0.5273590000000  0.4176910000000 1.0
C      1  0.6063900000000  0.4947100000000  0.5145900000000 1.0
C      1  0.5963700000000  0.4643380000000  0.4473500000000 1.0
C      1  0.4776870000000  0.5067370000000  0.6134010000000 1.0
END
