TITL C-884136-4169-264 1.91595516146413 125000 -12364.8529107939 0 0 84 (C1) n - 1
REM
REM in /home/nfs/bkarasulu/CARBON/AIRSS/Generating-Clusters/ReaxFF-fromJPCA2015/Units_Real/with-SteepDescent/Only-C1/SD-CG/Try1-3A/FIRE-CG
REM
REM
REM
REM
REM
REM ./C.cell (11c1c37f851c82e70ff6c80c92926a4b)
REM
REM compiler GCC version 9.2.1 20190827 (Red Hat 9.2.1-1)
REM options -cpp -mtune=generic -march=x86-64 -g -O0 -fpre-include=/usr/include/finclude/math-vector-fortran.h
REM seed -795858974 -1330297875 -434372927 -20870429 1267218216 -11770734 249048383 1086162038 -632736692 907417068 1535112795 683653727 2053986633 -2122940903 1909832974 604713050 -1145524187 -2001290007 236738563 -1863378018 -1899557001 -687179518 -1138833971 -1145352782 -1228112079 442539019 1499681278 513293247 1495010578 -1086606990 1218259083 -426176006 577276410
REM
CELL 1.54180   50.00000   50.00000   50.00000   90.00000   90.00000   90.00000
LATT -1
SFAC C  
C      1  0.5358470000000  0.4585350000000  0.4447710000000 1.0
C      1  0.5762780000000  0.5111550000000  0.4791650000000 1.0
C      1  0.5348210000000  0.4326030000000  0.5026090000000 1.0
C      1  0.4642210000000  0.4716190000000  0.5765350000000 1.0
C      1  0.4917980000000  0.5842490000000  0.4999510000000 1.0
C      1  0.4679390000000  0.4134950000000  0.5060090000000 1.0
C      1  0.5675300000000  0.5173590000000  0.5507710000000 1.0
C      1  0.4207010000000  0.5027830000000  0.4922960000000 1.0
C      1  0.5281550000000  0.4348380000000  0.5308070000000 1.0
C      1  0.5540090000000  0.5230440000000  0.5247090000000 1.0
C      1  0.5241200000000  0.5176940000000  0.4651710000000 1.0
C      1  0.4947470000000  0.4679090000000  0.5699400000000 1.0
C      1  0.4798910000000  0.5228600000000  0.5122720000000 1.0
C      1  0.4398890000000  0.5389040000000  0.4830840000000 1.0
C      1  0.4386800000000  0.4747320000000  0.5622640000000 1.0
C      1  0.4846320000000  0.5510270000000  0.4614660000000 1.0
C      1  0.4454840000000  0.5380210000000  0.5561680000000 1.0
C      1  0.4258770000000  0.5279890000000  0.5096430000000 1.0
C      1  0.4918980000000  0.4061770000000  0.4865280000000 1.0
C      1  0.5275990000000  0.4838890000000  0.5009550000000 1.0
C      1  0.4965210000000  0.4717420000000  0.5401640000000 1.0
C      1  0.5017430000000  0.4374840000000  0.5701340000000 1.0
C      1  0.5089510000000  0.4942630000000  0.4124350000000 1.0
C      1  0.5672700000000  0.4981660000000  0.4547550000000 1.0
C      1  0.4782560000000  0.4567400000000  0.5225340000000 1.0
C      1  0.5265210000000  0.5177100000000  0.4168530000000 1.0
C      1  0.5200860000000  0.4928670000000  0.5676750000000 1.0
C      1  0.5152250000000  0.4431280000000  0.4598230000000 1.0
C      1  0.5710420000000  0.5410890000000  0.4820960000000 1.0
C      1  0.4490870000000  0.4641780000000  0.4458630000000 1.0
C      1  0.5573080000000  0.5409160000000  0.5639140000000 1.0
C      1  0.5184540000000  0.5449860000000  0.4243560000000 1.0
C      1  0.5072950000000  0.5262800000000  0.5018110000000 1.0
C      1  0.5387110000000  0.5775990000000  0.4885140000000 1.0
C      1  0.4596070000000  0.5237460000000  0.5754620000000 1.0
C      1  0.5420850000000  0.5482460000000  0.4420910000000 1.0
C      1  0.4495980000000  0.4952150000000  0.5808240000000 1.0
C      1  0.5295530000000  0.5099020000000  0.5109610000000 1.0
C      1  0.4402910000000  0.5120980000000  0.4729930000000 1.0
C      1  0.4886060000000  0.4852990000000  0.4659430000000 1.0
C      1  0.4898880000000  0.5531960000000  0.5456550000000 1.0
C      1  0.5465960000000  0.4598310000000  0.5018640000000 1.0
C      1  0.5615840000000  0.4707490000000  0.4565690000000 1.0
C      1  0.4877180000000  0.4564190000000  0.4597460000000 1.0
C      1  0.4774480000000  0.4996950000000  0.4134000000000 1.0
C      1  0.4932120000000  0.3931180000000  0.4650510000000 1.0
C      1  0.4254760000000  0.4509430000000  0.4978900000000 1.0
C      1  0.4406610000000  0.5480900000000  0.5303310000000 1.0
C      1  0.4866740000000  0.5328560000000  0.5671400000000 1.0
C      1  0.4637750000000  0.4990770000000  0.5107200000000 1.0
C      1  0.5149720000000  0.5648380000000  0.5368810000000 1.0
C      1  0.5498380000000  0.5576630000000  0.4686290000000 1.0
C      1  0.5707090000000  0.5465250000000  0.5101440000000 1.0
C      1  0.4894950000000  0.5498570000000  0.4320840000000 1.0
C      1  0.4272800000000  0.4843620000000  0.5368200000000 1.0
C      1  0.5119900000000  0.5197860000000  0.5757170000000 1.0
C      1  0.5222750000000  0.4763320000000  0.4284570000000 1.0
C      1  0.4426170000000  0.4262650000000  0.4974100000000 1.0
C      1  0.4698200000000  0.5481720000000  0.5243140000000 1.0
C      1  0.4804020000000  0.5258670000000  0.4209200000000 1.0
C      1  0.4649730000000  0.5859850000000  0.4895070000000 1.0
C      1  0.4570670000000  0.4909950000000  0.4326890000000 1.0
C      1  0.4651590000000  0.5013380000000  0.4587570000000 1.0
C      1  0.5571970000000  0.5709920000000  0.5078710000000 1.0
C      1  0.4203260000000  0.4779960000000  0.5085330000000 1.0
C      1  0.4602680000000  0.4560140000000  0.4748880000000 1.0
C      1  0.4667720000000  0.4450260000000  0.4345550000000 1.0
C      1  0.5038890000000  0.4236810000000  0.5448760000000 1.0
C      1  0.5131820000000  0.4939530000000  0.4767490000000 1.0
C      1  0.5654590000000  0.4966550000000  0.5316720000000 1.0
C      1  0.5701850000000  0.4675280000000  0.4850420000000 1.0
C      1  0.5167700000000  0.5801160000000  0.5101290000000 1.0
C      1  0.5320450000000  0.5415380000000  0.5778580000000 1.0
C      1  0.5441650000000  0.5175060000000  0.4424700000000 1.0
C      1  0.4789370000000  0.4280830000000  0.5277820000000 1.0
C      1  0.5748710000000  0.4917300000000  0.5003840000000 1.0
C      1  0.4598820000000  0.5584390000000  0.4753680000000 1.0
C      1  0.5417180000000  0.4848290000000  0.5504050000000 1.0
C      1  0.4673160000000  0.4709860000000  0.4993280000000 1.0
C      1  0.5060870000000  0.5370380000000  0.4749640000000 1.0
C      1  0.5362780000000  0.5610030000000  0.5561480000000 1.0
C      1  0.5181950000000  0.4230070000000  0.4801970000000 1.0
C      1  0.4414120000000  0.5077050000000  0.5272570000000 1.0
C      1  0.5250920000000  0.4636760000000  0.5385110000000 1.0
END
