TITL C-883729-9652-329 -8.29059333398291 125000 -6534.56407639966 0 0 45 (C1) n - 1
REM
REM in /home/nfs/bkarasulu/CARBON/AIRSS/Generating-Clusters/ReaxFF-fromJPCA2015/Units_Real/with-SteepDescent/Only-C1/SD-CG/Try1-3A/FIRE-CG
REM
REM
REM
REM
REM
REM ./C.cell (11c1c37f851c82e70ff6c80c92926a4b)
REM
REM compiler GCC version 9.2.1 20190827 (Red Hat 9.2.1-1)
REM options -cpp -mtune=generic -march=x86-64 -g -O0 -fpre-include=/usr/include/finclude/math-vector-fortran.h
REM seed 1199641284 -1894969837 1453945152 1146860285 -505367640 714296198 -1361750759 -928227389 1348106655 414532887 1791111931 1881619847 -566467199 1052771994 -1732248777 -1390905598 1956429819 -1946459134 -761842657 -556752670 428086858 -68902984 1374153255 1386583585 199145367 375996780 -787717642 344353624 -525026501 -700317234 -1938080956 -1359200628 -1794518441
REM
CELL 1.54180   50.00000   50.00000   50.00000   90.00000   90.00000   90.00000
LATT -1
SFAC C  
C      1  0.4373420000000  0.4700250000000  0.5346400000000 1.0
C      1  0.4637640000000  0.5106360000000  0.5412670000000 1.0
C      1  0.4418750000000  0.4806480000000  0.4817430000000 1.0
C      1  0.4788580000000  0.4365300000000  0.5550580000000 1.0
C      1  0.4984160000000  0.5489740000000  0.5399570000000 1.0
C      1  0.5347160000000  0.5041530000000  0.5470700000000 1.0
C      1  0.5456640000000  0.5125440000000  0.4597690000000 1.0
C      1  0.5146250000000  0.4418870000000  0.5185240000000 1.0
C      1  0.4671180000000  0.4779390000000  0.4497370000000 1.0
C      1  0.4969720000000  0.5172640000000  0.4405580000000 1.0
C      1  0.5332670000000  0.5516490000000  0.4602680000000 1.0
C      1  0.5397010000000  0.4889290000000  0.5216810000000 1.0
C      1  0.5563450000000  0.5370840000000  0.4714980000000 1.0
C      1  0.4579420000000  0.5310700000000  0.4925530000000 1.0
C      1  0.4778870000000  0.4620900000000  0.4734340000000 1.0
C      1  0.4539420000000  0.4581590000000  0.5543490000000 1.0
C      1  0.5432780000000  0.5583460000000  0.4869130000000 1.0
C      1  0.4901150000000  0.4759810000000  0.4956400000000 1.0
C      1  0.4534390000000  0.5237020000000  0.4648610000000 1.0
C      1  0.5023870000000  0.4333090000000  0.5360760000000 1.0
C      1  0.5398260000000  0.4697590000000  0.4403420000000 1.0
C      1  0.5556200000000  0.4872360000000  0.4539050000000 1.0
C      1  0.4517690000000  0.4866680000000  0.5545980000000 1.0
C      1  0.4390400000000  0.4866460000000  0.5091490000000 1.0
C      1  0.5642350000000  0.4934030000000  0.5193900000000 1.0
C      1  0.5429970000000  0.5321040000000  0.5548990000000 1.0
C      1  0.5201510000000  0.4670250000000  0.5039560000000 1.0
C      1  0.5280410000000  0.5525140000000  0.5393100000000 1.0
C      1  0.5046500000000  0.4526560000000  0.4642340000000 1.0
C      1  0.4913510000000  0.4888910000000  0.4373080000000 1.0
C      1  0.4811870000000  0.5611480000000  0.4627930000000 1.0
C      1  0.5500440000000  0.4611530000000  0.4655180000000 1.0
C      1  0.4450880000000  0.4956890000000  0.4581300000000 1.0
C      1  0.4763690000000  0.5544780000000  0.4917710000000 1.0
C      1  0.4842780000000  0.4141330000000  0.5658950000000 1.0
C      1  0.4881600000000  0.5234710000000  0.5503860000000 1.0
C      1  0.5101060000000  0.5087030000000  0.5643160000000 1.0
C      1  0.5269500000000  0.5282060000000  0.5808870000000 1.0
C      1  0.4747770000000  0.5355670000000  0.4483050000000 1.0
C      1  0.4524420000000  0.5128180000000  0.5146850000000 1.0
C      1  0.4965480000000  0.5600640000000  0.5125690000000 1.0
C      1  0.5114610000000  0.4681080000000  0.4405450000000 1.0
C      1  0.5263710000000  0.5607520000000  0.5107600000000 1.0
C      1  0.5279560000000  0.4516860000000  0.4815600000000 1.0
C      1  0.5229270000000  0.5262040000000  0.4491950000000 1.0
END
