TITL C-883741-3679-365 27.7123225078767 125000 -18297.3371403944 0 0 121 (C1) n - 1
REM
REM in /home/nfs/bkarasulu/CARBON/AIRSS/Generating-Clusters/ReaxFF-fromJPCA2015/Units_Real/with-SteepDescent/Only-C1/SD-CG/Try1-3A/FIRE-CG
REM
REM
REM
REM
REM
REM ./C.cell (11c1c37f851c82e70ff6c80c92926a4b)
REM
REM compiler GCC version 9.2.1 20190827 (Red Hat 9.2.1-1)
REM options -cpp -mtune=generic -march=x86-64 -g -O0 -fpre-include=/usr/include/finclude/math-vector-fortran.h
REM seed -1719716432 648345831 1204753981 -224744234 747623805 -1788788968 1656189004 316989894 -877954457 -225564836 2042417491 -1341279416 1905102338 1047519565 1846692557 -308280304 -6798711 1928438364 -980483296 1364974953 -451307900 -2111618468 -1915054420 -253295044 408392320 1239153059 1309343051 -673463327 -460217625 1596864978 -965922797 1343916528 -908398633
REM
CELL 1.54180   50.00000   50.00000   50.00000   90.00000   90.00000   90.00000
LATT -1
SFAC C  
C      1  0.5441330000000  0.4673690000000  0.5267700000000 1.0
C      1  0.4351890000000  0.5448990000000  0.5694800000000 1.0
C      1  0.4797160000000  0.5659460000000  0.4292560000000 1.0
C      1  0.5835040000000  0.5217570000000  0.4515600000000 1.0
C      1  0.4264650000000  0.4647810000000  0.4381760000000 1.0
C      1  0.4789550000000  0.5703350000000  0.4594390000000 1.0
C      1  0.4703090000000  0.5783670000000  0.5562330000000 1.0
C      1  0.4822640000000  0.5276670000000  0.5127360000000 1.0
C      1  0.5253470000000  0.5494520000000  0.5090100000000 1.0
C      1  0.4933860000000  0.4772790000000  0.5121040000000 1.0
C      1  0.4481850000000  0.4995860000000  0.5870590000000 1.0
C      1  0.5222170000000  0.4974910000000  0.5493680000000 1.0
C      1  0.5501780000000  0.4976910000000  0.4165640000000 1.0
C      1  0.4790680000000  0.5858520000000  0.5046610000000 1.0
C      1  0.4261580000000  0.4933470000000  0.4765610000000 1.0
C      1  0.5766530000000  0.5389880000000  0.5298150000000 1.0
C      1  0.5878280000000  0.5261870000000  0.4806540000000 1.0
C      1  0.4128040000000  0.5409890000000  0.5509650000000 1.0
C      1  0.4826820000000  0.5078130000000  0.4340970000000 1.0
C      1  0.4836310000000  0.4266710000000  0.5137820000000 1.0
C      1  0.4949040000000  0.5234540000000  0.5991320000000 1.0
C      1  0.5625890000000  0.4547300000000  0.4434440000000 1.0
C      1  0.5849180000000  0.4882980000000  0.5173010000000 1.0
C      1  0.5525230000000  0.4237920000000  0.4865500000000 1.0
C      1  0.4339010000000  0.5177480000000  0.4281990000000 1.0
C      1  0.5087210000000  0.4153130000000  0.4495590000000 1.0
C      1  0.4514420000000  0.4531060000000  0.4265110000000 1.0
C      1  0.4810060000000  0.4880970000000  0.5394670000000 1.0
C      1  0.5066720000000  0.4538930000000  0.4755680000000 1.0
C      1  0.5178030000000  0.5092520000000  0.6015350000000 1.0
C      1  0.4759010000000  0.4841080000000  0.4905030000000 1.0
C      1  0.5436320000000  0.5870170000000  0.4937420000000 1.0
C      1  0.4942050000000  0.5866340000000  0.4779650000000 1.0
C      1  0.4905930000000  0.5423760000000  0.5363510000000 1.0
C      1  0.4634310000000  0.4319990000000  0.4418480000000 1.0
C      1  0.4323430000000  0.4930270000000  0.5421420000000 1.0
C      1  0.5882660000000  0.4993380000000  0.4912230000000 1.0
C      1  0.4550640000000  0.5208850000000  0.4060390000000 1.0
C      1  0.5715410000000  0.4622020000000  0.5182220000000 1.0
C      1  0.4906180000000  0.4762370000000  0.4665980000000 1.0
C      1  0.3938510000000  0.5130550000000  0.5130140000000 1.0
C      1  0.5327070000000  0.5755470000000  0.5192080000000 1.0
C      1  0.5220080000000  0.4666180000000  0.4091670000000 1.0
C      1  0.5203670000000  0.5394450000000  0.4176720000000 1.0
C      1  0.5586600000000  0.4335790000000  0.5581370000000 1.0
C      1  0.5808060000000  0.5473680000000  0.5010010000000 1.0
C      1  0.5035580000000  0.4981490000000  0.4523490000000 1.0
C      1  0.5285770000000  0.4084090000000  0.4942360000000 1.0
C      1  0.4087210000000  0.5147260000000  0.5384120000000 1.0
C      1  0.4577970000000  0.5281710000000  0.4971680000000 1.0
C      1  0.4664700000000  0.5245630000000  0.4701920000000 1.0
C      1  0.5191460000000  0.5719650000000  0.5662940000000 1.0
C      1  0.4576180000000  0.4265630000000  0.4707190000000 1.0
C      1  0.5378510000000  0.5130800000000  0.5388680000000 1.0
C      1  0.4908530000000  0.5658650000000  0.5738780000000 1.0
C      1  0.4845110000000  0.5717860000000  0.5317370000000 1.0
C      1  0.4581990000000  0.5243860000000  0.5693300000000 1.0
C      1  0.4605980000000  0.5073490000000  0.5422630000000 1.0
C      1  0.5216160000000  0.4386210000000  0.4557030000000 1.0
C      1  0.4119240000000  0.5169550000000  0.4888350000000 1.0
C      1  0.4858590000000  0.5452850000000  0.4717760000000 1.0
C      1  0.4531210000000  0.5779480000000  0.5050290000000 1.0
C      1  0.5203250000000  0.5362360000000  0.5345450000000 1.0
C      1  0.4380540000000  0.4462020000000  0.5134330000000 1.0
C      1  0.5416190000000  0.5709600000000  0.5483400000000 1.0
C      1  0.4346130000000  0.4745920000000  0.5181510000000 1.0
C      1  0.5140630000000  0.4554930000000  0.5651500000000 1.0
C      1  0.4222780000000  0.4928400000000  0.4356480000000 1.0
C      1  0.4356660000000  0.4793010000000  0.5706910000000 1.0
C      1  0.4966720000000  0.4533990000000  0.4145610000000 1.0
C      1  0.4995520000000  0.4509150000000  0.5032930000000 1.0
C      1  0.4782580000000  0.4131500000000  0.4862620000000 1.0
C      1  0.5194120000000  0.5199690000000  0.4011210000000 1.0
C      1  0.5685180000000  0.4339140000000  0.5089200000000 1.0
C      1  0.5647000000000  0.5690730000000  0.4941310000000 1.0
C      1  0.5380100000000  0.4937580000000  0.4846160000000 1.0
C      1  0.4586430000000  0.4348740000000  0.5305790000000 1.0
C      1  0.5365440000000  0.5358160000000  0.4487950000000 1.0
C      1  0.4843960000000  0.5372130000000  0.5770020000000 1.0
C      1  0.4692490000000  0.4816290000000  0.5954610000000 1.0
C      1  0.4206170000000  0.5666390000000  0.5377270000000 1.0
C      1  0.5762500000000  0.5040700000000  0.5652830000000 1.0
C      1  0.4683270000000  0.4409670000000  0.5567390000000 1.0
C      1  0.5721690000000  0.5097040000000  0.5350120000000 1.0
C      1  0.5223650000000  0.5835630000000  0.4721310000000 1.0
C      1  0.5491050000000  0.4357390000000  0.4602160000000 1.0
C      1  0.5656980000000  0.4840570000000  0.4775810000000 1.0
C      1  0.5095310000000  0.5650510000000  0.4265140000000 1.0
C      1  0.5620050000000  0.5487490000000  0.5523820000000 1.0
C      1  0.4732890000000  0.4970790000000  0.4086950000000 1.0
C      1  0.4302440000000  0.5381370000000  0.4969200000000 1.0
C      1  0.5039130000000  0.4159850000000  0.5352840000000 1.0
C      1  0.5269750000000  0.4814670000000  0.5083690000000 1.0
C      1  0.4572590000000  0.4604170000000  0.5762880000000 1.0
C      1  0.5582550000000  0.5213210000000  0.4349350000000 1.0
C      1  0.5021510000000  0.4820500000000  0.5600970000000 1.0
C      1  0.5429670000000  0.4608350000000  0.5587830000000 1.0
C      1  0.5561340000000  0.4205450000000  0.5324870000000 1.0
C      1  0.5041900000000  0.4054790000000  0.4768340000000 1.0
C      1  0.4236620000000  0.4647600000000  0.4677990000000 1.0
C      1  0.4416670000000  0.5711260000000  0.5584440000000 1.0
C      1  0.4713920000000  0.4677850000000  0.4105370000000 1.0
C      1  0.4565760000000  0.5121880000000  0.4468270000000 1.0
C      1  0.5406460000000  0.5088340000000  0.5851030000000 1.0
C      1  0.5049880000000  0.5349890000000  0.4919790000000 1.0
C      1  0.4279930000000  0.5656600000000  0.5089400000000 1.0
C      1  0.5612760000000  0.5277170000000  0.5740080000000 1.0
C      1  0.4975510000000  0.4329740000000  0.5579150000000 1.0
C      1  0.4906410000000  0.4294120000000  0.4315070000000 1.0
C      1  0.4480850000000  0.4876230000000  0.4955680000000 1.0
C      1  0.5865290000000  0.4951450000000  0.4445630000000 1.0
C      1  0.4661990000000  0.5443470000000  0.4170400000000 1.0
C      1  0.4374280000000  0.4436780000000  0.4835090000000 1.0
C      1  0.4930520000000  0.4955530000000  0.6049440000000 1.0
C      1  0.5279410000000  0.4943070000000  0.3964260000000 1.0
C      1  0.5777830000000  0.4739260000000  0.4550720000000 1.0
C      1  0.5220520000000  0.5143550000000  0.4693170000000 1.0
C      1  0.5286090000000  0.4091060000000  0.5231750000000 1.0
C      1  0.5557430000000  0.4864650000000  0.5755480000000 1.0
C      1  0.5467800000000  0.4694750000000  0.4242150000000 1.0
C      1  0.5278290000000  0.5659810000000  0.4494080000000 1.0
END
