TITL C-883741-3679-38 2436229.00674245 125000 -20990.8208081472 0 0 141 (C1) n - 1
REM
REM in /home/nfs/bkarasulu/CARBON/AIRSS/Generating-Clusters/ReaxFF-fromJPCA2015/Units_Real/with-SteepDescent/Only-C1/SD-CG/Try1-3A/FIRE-CG
REM
REM
REM
REM
REM
REM ./C.cell (11c1c37f851c82e70ff6c80c92926a4b)
REM
REM compiler GCC version 9.2.1 20190827 (Red Hat 9.2.1-1)
REM options -cpp -mtune=generic -march=x86-64 -g -O0 -fpre-include=/usr/include/finclude/math-vector-fortran.h
REM seed -1506188942 -1556462862 -1937234233 1320827950 -1608780623 -1018543104 779037045 -1061280080 -986203250 -835045007 818305901 -1936535502 1473958748 1752546574 -1466781057 -1450067266 -1451563194 -1011141462 -1682210339 1322641102 10227415 -514239967 1807389693 -580893212 1509468285 523330806 2098259019 1610423208 2139383924 1424335578 1324160444 -1769953289 -847013810
REM
CELL 1.54180   50.00000   50.00000   50.00000   90.00000   90.00000   90.00000
LATT -1
SFAC C  
C      1  0.4446560000000  0.4586400000000  0.4211450000000 1.0
C      1  0.5259830000000  0.5257860000000  0.5458190000000 1.0
C      1  0.3998000000000  0.5131190000000  0.5343160000000 1.0
C      1  0.5093340000000  0.4788230000000  0.4693300000000 1.0
C      1  0.4845530000000  0.5059280000000  0.5613170000000 1.0
C      1  0.4907050000000  0.4105470000000  0.4400220000000 1.0
C      1  0.5360310000000  0.4568100000000  0.4181330000000 1.0
C      1  0.4099320000000  0.5565890000000  0.4660820000000 1.0
C      1  0.4776230000000  0.5235630000000  0.5867400000000 1.0
C      1  0.4763570000000  0.5091260000000  0.5071770000000 1.0
C      1  0.5355720000000  0.4817870000000  0.4596660000000 1.0
C      1  0.5908120000000  0.5365360000000  0.4823430000000 1.0
C      1  0.5500050000000  0.4745870000000  0.4374230000000 1.0
C      1  0.4787490000000  0.5401880000000  0.5226180000000 1.0
C      1  0.5202160000000  0.5480450000000  0.5711080000000 1.0
C      1  0.4686050000000  0.6019700000000  0.5537820000000 1.0
C      1  0.5529600000000  0.5308620000000  0.5091490000000 1.0
C      1  0.4895050000000  0.6121920000000  0.4837960000000 1.0
C      1  0.5024670000000  0.4591170000000  0.5926790000000 1.0
C      1  0.4236820000000  0.4749430000000  0.5331840000000 1.0
C      1  0.5888910000000  0.4456500000000  0.5153700000000 1.0
C      1  0.3905560000000  0.4995900000000  0.5084300000000 1.0
C      1  0.5018580000000  0.4419230000000  0.5687620000000 1.0
C      1  0.4595040000000  0.4092590000000  0.5135450000000 1.0
C      1  0.4781550000000  0.5264180000000  0.5442450000000 1.0
C      1  0.5292900000000  0.3854840000000  0.4567370000000 1.0
C      1  0.4137120000000  0.4531180000000  0.4827150000000 1.0
C      1  0.5145690000000  0.4604060000000  0.4972510000000 1.0
C      1  0.5113640000000  0.4149750000000  0.5579730000000 1.0
C      1  0.4879520000000  0.4956570000000  0.3948620000000 1.0
C      1  0.4834980000000  0.5243260000000  0.3927590000000 1.0
C      1  0.5771840000000  0.5399490000000  0.5231070000000 1.0
C      1  0.4624040000000  0.5169970000000  0.4427570000000 1.0
C      1  0.5651910000000  0.5112390000000  0.5767530000000 1.0
C      1  0.4793470000000  0.4832170000000  0.5207730000000 1.0
C      1  0.4411670000000  0.5957840000000  0.4932520000000 1.0
C      1  0.4478460000000  0.4243430000000  0.4551950000000 1.0
C      1  0.4423250000000  0.4285510000000  0.5457900000000 1.0
C      1  0.5044210000000  0.4079580000000  0.5058040000000 1.0
C      1  0.5212390000000  0.5282450000000  0.5944040000000 1.0
C      1  0.4829260000000  0.4648320000000  0.4989340000000 1.0
C      1  0.4623630000000  0.5849030000000  0.5344560000000 1.0
C      1  0.5286370000000  0.4796600000000  0.5448070000000 1.0
C      1  0.5622230000000  0.5818390000000  0.5342710000000 1.0
C      1  0.4137150000000  0.4939120000000  0.5527000000000 1.0
C      1  0.5532550000000  0.5210450000000  0.4819540000000 1.0
C      1  0.5062400000000  0.5745260000000  0.4495980000000 1.0
C      1  0.4615640000000  0.4709570000000  0.4689330000000 1.0
C      1  0.5576230000000  0.4833260000000  0.5047010000000 1.0
C      1  0.5639630000000  0.4287110000000  0.4464100000000 1.0
C      1  0.4398710000000  0.4492130000000  0.4685430000000 1.0
C      1  0.4933190000000  0.5980420000000  0.5679900000000 1.0
C      1  0.4150620000000  0.5370910000000  0.5383570000000 1.0
C      1  0.5107120000000  0.4632640000000  0.4113870000000 1.0
C      1  0.4847720000000  0.5263500000000  0.4593430000000 1.0
C      1  0.4893030000000  0.4549460000000  0.4281880000000 1.0
C      1  0.5144280000000  0.5307510000000  0.4885740000000 1.0
C      1  0.5196710000000  0.4088130000000  0.4383120000000 1.0
C      1  0.5207790000000  0.4538770000000  0.5505970000000 1.0
C      1  0.5702550000000  0.4296160000000  0.4748080000000 1.0
C      1  0.4966260000000  0.5086550000000  0.4812450000000 1.0
C      1  0.4648860000000  0.5980610000000  0.4753870000000 1.0
C      1  0.4428920000000  0.4845930000000  0.4260610000000 1.0
C      1  0.5281430000000  0.5818450000000  0.4666330000000 1.0
C      1  0.4780000000000  0.4288310000000  0.4214710000000 1.0
C      1  0.5532440000000  0.5158010000000  0.5517780000000 1.0
C      1  0.5505460000000  0.5294560000000  0.5936130000000 1.0
C      1  0.5916410000000  0.5196370000000  0.4583130000000 1.0
C      1  0.5645840000000  0.5618960000000  0.5533850000000 1.0
C      1  0.4234220000000  0.5538040000000  0.5160000000000 1.0
C      1  0.4482560000000  0.5104900000000  0.4999880000000 1.0
C      1  0.4487810000000  0.4313340000000  0.4258720000000 1.0
C      1  0.4718610000000  0.4098790000000  0.4634070000000 1.0
C      1  0.4871420000000  0.4663980000000  0.4544620000000 1.0
C      1  0.4959020000000  0.4101680000000  0.5340960000000 1.0
C      1  0.5435770000000  0.5248340000000  0.4361880000000 1.0
C      1  0.4452870000000  0.5602610000000  0.4227660000000 1.0
C      1  0.5517340000000  0.5646920000000  0.4694530000000 1.0
C      1  0.4299670000000  0.5312220000000  0.5645830000000 1.0
C      1  0.4989260000000  0.5098010000000  0.6011840000000 1.0
C      1  0.5252310000000  0.5350400000000  0.5144500000000 1.0
C      1  0.4489940000000  0.4622620000000  0.5681250000000 1.0
C      1  0.4711140000000  0.4562070000000  0.5206800000000 1.0
C      1  0.4559470000000  0.4829070000000  0.5814370000000 1.0
C      1  0.5519750000000  0.4939910000000  0.4785750000000 1.0
C      1  0.5622320000000  0.4361590000000  0.5600940000000 1.0
C      1  0.4970780000000  0.5629930000000  0.4247160000000 1.0
C      1  0.4346030000000  0.5013010000000  0.5718940000000 1.0
C      1  0.5337110000000  0.4741730000000  0.5157990000000 1.0
C      1  0.4696590000000  0.5718380000000  0.4305310000000 1.0
C      1  0.4741190000000  0.5532860000000  0.5819270000000 1.0
C      1  0.5508600000000  0.4467380000000  0.5825770000000 1.0
C      1  0.4312740000000  0.4871060000000  0.5072090000000 1.0
C      1  0.5476580000000  0.4186040000000  0.4913060000000 1.0
C      1  0.4451540000000  0.5277490000000  0.4780790000000 1.0
C      1  0.5218770000000  0.4306880000000  0.4963430000000 1.0
C      1  0.4316640000000  0.4167510000000  0.5198090000000 1.0
C      1  0.4735170000000  0.5721930000000  0.4596710000000 1.0
C      1  0.5341610000000  0.5955740000000  0.5321640000000 1.0
C      1  0.4675330000000  0.5456810000000  0.4720800000000 1.0
C      1  0.4952260000000  0.5670000000000  0.5645380000000 1.0
C      1  0.5951780000000  0.4901230000000  0.4602610000000 1.0
C      1  0.4486320000000  0.5491810000000  0.5731340000000 1.0
C      1  0.5224900000000  0.5172230000000  0.4179370000000 1.0
C      1  0.4586020000000  0.4920530000000  0.4011960000000 1.0
C      1  0.5608640000000  0.4895290000000  0.5554190000000 1.0
C      1  0.5966700000000  0.4758790000000  0.4855510000000 1.0
C      1  0.5831330000000  0.4509750000000  0.5417520000000 1.0
C      1  0.4886060000000  0.5672010000000  0.5306360000000 1.0
C      1  0.5325880000000  0.4568330000000  0.6017990000000 1.0
C      1  0.5173960000000  0.6012230000000  0.5535920000000 1.0
C      1  0.5133710000000  0.5946890000000  0.4900200000000 1.0
C      1  0.4862470000000  0.4830830000000  0.5953260000000 1.0
C      1  0.5113320000000  0.5015050000000  0.5516570000000 1.0
C      1  0.5348310000000  0.3943140000000  0.4835000000000 1.0
C      1  0.5780220000000  0.5668530000000  0.5146910000000 1.0
C      1  0.4371780000000  0.5800160000000  0.5179580000000 1.0
C      1  0.5031550000000  0.5374800000000  0.4106680000000 1.0
C      1  0.4229550000000  0.5413470000000  0.4893790000000 1.0
C      1  0.4483480000000  0.4952260000000  0.4550470000000 1.0
C      1  0.4072840000000  0.4827950000000  0.4908690000000 1.0
C      1  0.5496150000000  0.5547680000000  0.5767110000000 1.0
C      1  0.5765320000000  0.4870880000000  0.4367100000000 1.0
C      1  0.5388980000000  0.4292140000000  0.4298730000000 1.0
C      1  0.5758940000000  0.5621530000000  0.4850800000000 1.0
C      1  0.4470320000000  0.5318840000000  0.4216070000000 1.0
C      1  0.4249890000000  0.5597500000000  0.4416680000000 1.0
C      1  0.5141820000000  0.4899890000000  0.4062260000000 1.0
C      1  0.4327320000000  0.4534690000000  0.5505700000000 1.0
C      1  0.5373190000000  0.5380240000000  0.4641300000000 1.0
C      1  0.4196290000000  0.4339320000000  0.5013250000000 1.0
C      1  0.5363980000000  0.4286610000000  0.5481100000000 1.0
C      1  0.5867780000000  0.4923000000000  0.5109440000000 1.0
C      1  0.5925590000000  0.4471120000000  0.4877720000000 1.0
C      1  0.5824640000000  0.4798410000000  0.5381060000000 1.0
C      1  0.4700530000000  0.4294920000000  0.5338070000000 1.0
C      1  0.5929420000000  0.5226680000000  0.5077370000000 1.0
C      1  0.5714750000000  0.5161510000000  0.4360220000000 1.0
C      1  0.4556310000000  0.5201560000000  0.3978190000000 1.0
C      1  0.5125260000000  0.5826240000000  0.5167170000000 1.0
C      1  0.4777630000000  0.4053720000000  0.4916130000000 1.0
END
