TITL C-884134-5972-431 17.4625307697518 125000 -2675.75864605709 0 0 20 (C1) n - 1
REM
REM in /home/nfs/bkarasulu/CARBON/AIRSS/Generating-Clusters/ReaxFF-fromJPCA2015/Units_Real/with-SteepDescent/Only-C1/SD-CG/Try1-3A/FIRE-CG
REM
REM
REM
REM
REM
REM ./C.cell (11c1c37f851c82e70ff6c80c92926a4b)
REM
REM compiler GCC version 9.2.1 20190827 (Red Hat 9.2.1-1)
REM options -cpp -mtune=generic -march=x86-64 -g -O0 -fpre-include=/usr/include/finclude/math-vector-fortran.h
REM seed 1231911143 -259684899 -460514658 -849750936 -123710720 554828704 -286411185 -389968098 480542642 1852522858 745317536 1995159207 -1492535415 406348982 -82449503 1421749589 758676168 1545653541 -206168327 218544607 -1768326838 -2089624014 -523011040 1002478657 -1363427275 1297117040 889343441 -544586892 800768952 -647383052 -1425355523 2094326530 -700274641
REM
CELL 1.54180   50.00000   50.00000   50.00000   90.00000   90.00000   90.00000
LATT -1
SFAC C  
C      1  0.4665440000000  0.4947260000000  0.4580790000000 1.0
C      1  0.5104160000000  0.4720860000000  0.4973220000000 1.0
C      1  0.5014270000000  0.5183240000000  0.5221640000000 1.0
C      1  0.4533880000000  0.5113060000000  0.5402390000000 1.0
C      1  0.5182890000000  0.4802480000000  0.5467800000000 1.0
C      1  0.4844750000000  0.4744400000000  0.4965450000000 1.0
C      1  0.5625670000000  0.5153380000000  0.4907330000000 1.0
C      1  0.5203070000000  0.5456580000000  0.4819400000000 1.0
C      1  0.5532150000000  0.4991330000000  0.5103470000000 1.0
C      1  0.4913680000000  0.5042660000000  0.4485710000000 1.0
C      1  0.4991940000000  0.4934700000000  0.5551960000000 1.0
C      1  0.4836480000000  0.5144770000000  0.5447520000000 1.0
C      1  0.5195570000000  0.4909390000000  0.4481980000000 1.0
C      1  0.5446000000000  0.5307360000000  0.4844570000000 1.0
C      1  0.5241900000000  0.4724540000000  0.4701710000000 1.0
C      1  0.4974230000000  0.5379330000000  0.5017320000000 1.0
C      1  0.4475030000000  0.4917440000000  0.5192210000000 1.0
C      1  0.4578090000000  0.4768600000000  0.4957460000000 1.0
C      1  0.5217170000000  0.4915210000000  0.5200320000000 1.0
C      1  0.4423630000000  0.4843420000000  0.4677770000000 1.0
END
