TITL C-883734-4173-408 68.8621083119011 125000 -20922.8108929797 0 0 140 (C1) n - 1
REM
REM in /home/nfs/bkarasulu/CARBON/AIRSS/Generating-Clusters/ReaxFF-fromJPCA2015/Units_Real/with-SteepDescent/Only-C1/SD-CG/Try1-3A/FIRE-CG
REM
REM
REM
REM
REM
REM ./C.cell (11c1c37f851c82e70ff6c80c92926a4b)
REM
REM compiler GCC version 9.2.1 20190827 (Red Hat 9.2.1-1)
REM options -cpp -mtune=generic -march=x86-64 -g -O0 -fpre-include=/usr/include/finclude/math-vector-fortran.h
REM seed 94452355 1175180639 -1166555240 2042515130 -37483426 -1526698363 -774364274 1777064484 1202991947 1828968732 462546235 48303486 1620229568 1734791696 1596316826 -339672200 474344404 2110151043 1753155935 1318349984 -818693817 470237643 1195737927 -474829515 -1805510842 -1611112717 1455925421 742146414 -406134693 618514961 -1526028909 -1146392257 1651459073
REM
CELL 1.54180   50.00000   50.00000   50.00000   90.00000   90.00000   90.00000
LATT -1
SFAC C  
C      1  0.5385140000000  0.5768510000000  0.4680450000000 1.0
C      1  0.4738730000000  0.4516080000000  0.5788350000000 1.0
C      1  0.5463560000000  0.4415860000000  0.4312310000000 1.0
C      1  0.5668600000000  0.4806190000000  0.5720420000000 1.0
C      1  0.4292240000000  0.5698880000000  0.5297160000000 1.0
C      1  0.4609020000000  0.5272460000000  0.3905340000000 1.0
C      1  0.4975080000000  0.5669180000000  0.5749010000000 1.0
C      1  0.4433700000000  0.5436940000000  0.4072400000000 1.0
C      1  0.5463820000000  0.4637390000000  0.5864020000000 1.0
C      1  0.4871110000000  0.4412830000000  0.5166080000000 1.0
C      1  0.5927580000000  0.4964120000000  0.4574010000000 1.0
C      1  0.4298160000000  0.5660390000000  0.4817100000000 1.0
C      1  0.5248520000000  0.4822140000000  0.5824460000000 1.0
C      1  0.4999060000000  0.5278120000000  0.5643170000000 1.0
C      1  0.5642240000000  0.5103190000000  0.5736960000000 1.0
C      1  0.4595260000000  0.5259810000000  0.5839810000000 1.0
C      1  0.5458050000000  0.4626270000000  0.4757690000000 1.0
C      1  0.5790730000000  0.4655210000000  0.5497340000000 1.0
C      1  0.5231540000000  0.4126600000000  0.5424340000000 1.0
C      1  0.5427550000000  0.5045860000000  0.4071360000000 1.0
C      1  0.5791550000000  0.4301880000000  0.4927070000000 1.0
C      1  0.5309080000000  0.3957340000000  0.4933530000000 1.0
C      1  0.5229730000000  0.4449680000000  0.4782640000000 1.0
C      1  0.5799840000000  0.4822170000000  0.4347550000000 1.0
C      1  0.4767370000000  0.5753810000000  0.4336420000000 1.0
C      1  0.5443850000000  0.5799110000000  0.5582230000000 1.0
C      1  0.5059570000000  0.5799290000000  0.4772760000000 1.0
C      1  0.4870590000000  0.4926380000000  0.5896230000000 1.0
C      1  0.5186230000000  0.5938650000000  0.5165580000000 1.0
C      1  0.5478840000000  0.4819980000000  0.5199960000000 1.0
C      1  0.5331770000000  0.5108360000000  0.5423180000000 1.0
C      1  0.4759010000000  0.4645270000000  0.4145800000000 1.0
C      1  0.4091560000000  0.5456660000000  0.4865760000000 1.0
C      1  0.4321130000000  0.4330030000000  0.5186930000000 1.0
C      1  0.4546800000000  0.4521000000000  0.5557260000000 1.0
C      1  0.4997610000000  0.5087740000000  0.5125800000000 1.0
C      1  0.4868430000000  0.5648150000000  0.4584000000000 1.0
C      1  0.4157200000000  0.5027900000000  0.5145090000000 1.0
C      1  0.5759000000000  0.5430940000000  0.5272170000000 1.0
C      1  0.4757410000000  0.5257180000000  0.5180380000000 1.0
C      1  0.5312750000000  0.5708920000000  0.4411070000000 1.0
C      1  0.4446460000000  0.5025680000000  0.3953640000000 1.0
C      1  0.5050960000000  0.5561030000000  0.4940570000000 1.0
C      1  0.4930800000000  0.4764670000000  0.4908790000000 1.0
C      1  0.4955960000000  0.4469160000000  0.4571740000000 1.0
C      1  0.4717210000000  0.4097880000000  0.5379950000000 1.0
C      1  0.4982930000000  0.4557920000000  0.4271700000000 1.0
C      1  0.4582900000000  0.5251050000000  0.4655590000000 1.0
C      1  0.4187610000000  0.4817230000000  0.5345540000000 1.0
C      1  0.4986610000000  0.4365850000000  0.5745950000000 1.0
C      1  0.5686120000000  0.5046140000000  0.4199510000000 1.0
C      1  0.4010700000000  0.4834340000000  0.4730670000000 1.0
C      1  0.4690900000000  0.4584930000000  0.5299220000000 1.0
C      1  0.5047550000000  0.4081300000000  0.4443640000000 1.0
C      1  0.5887660000000  0.5277180000000  0.5068150000000 1.0
C      1  0.5743000000000  0.4563760000000  0.4718580000000 1.0
C      1  0.5781790000000  0.5229900000000  0.4638570000000 1.0
C      1  0.4952270000000  0.5972080000000  0.5019580000000 1.0
C      1  0.4428070000000  0.5782270000000  0.5046360000000 1.0
C      1  0.5449760000000  0.4867660000000  0.4907130000000 1.0
C      1  0.4168730000000  0.4580360000000  0.5171290000000 1.0
C      1  0.5946220000000  0.4107150000000  0.4919100000000 1.0
C      1  0.4795490000000  0.4661650000000  0.4694290000000 1.0
C      1  0.5336710000000  0.4174110000000  0.4434660000000 1.0
C      1  0.5723070000000  0.5337900000000  0.5555780000000 1.0
C      1  0.4680680000000  0.5911670000000  0.5125140000000 1.0
C      1  0.5822630000000  0.5454440000000  0.4845530000000 1.0
C      1  0.5610490000000  0.5670880000000  0.4856670000000 1.0
C      1  0.4472710000000  0.4256000000000  0.5424530000000 1.0
C      1  0.5677330000000  0.4392630000000  0.5429250000000 1.0
C      1  0.5695500000000  0.4557150000000  0.4417040000000 1.0
C      1  0.4238020000000  0.4393520000000  0.4721140000000 1.0
C      1  0.5061900000000  0.5768260000000  0.4229430000000 1.0
C      1  0.5922480000000  0.4970570000000  0.5056640000000 1.0
C      1  0.4999680000000  0.5579180000000  0.4031720000000 1.0
C      1  0.5545750000000  0.5119400000000  0.4817100000000 1.0
C      1  0.4380210000000  0.5508660000000  0.4559300000000 1.0
C      1  0.4659860000000  0.4131130000000  0.4845150000000 1.0
C      1  0.5418510000000  0.5221110000000  0.5901700000000 1.0
C      1  0.4522680000000  0.4724730000000  0.4036810000000 1.0
C      1  0.4973440000000  0.5497970000000  0.5219230000000 1.0
C      1  0.5225770000000  0.5396090000000  0.4782740000000 1.0
C      1  0.5617380000000  0.5672680000000  0.5145900000000 1.0
C      1  0.4802340000000  0.4135400000000  0.5099960000000 1.0
C      1  0.5223080000000  0.5239100000000  0.5205670000000 1.0
C      1  0.5768260000000  0.4829620000000  0.5262230000000 1.0
C      1  0.4489800000000  0.4983620000000  0.5820930000000 1.0
C      1  0.4895390000000  0.5005080000000  0.5615520000000 1.0
C      1  0.5687160000000  0.5332790000000  0.4340790000000 1.0
C      1  0.5279060000000  0.4418020000000  0.5785520000000 1.0
C      1  0.4150060000000  0.5047680000000  0.4577080000000 1.0
C      1  0.4902830000000  0.5378400000000  0.5897160000000 1.0
C      1  0.5215480000000  0.5840620000000  0.5775800000000 1.0
C      1  0.4125490000000  0.5343880000000  0.4601700000000 1.0
C      1  0.4868420000000  0.5331810000000  0.4516340000000 1.0
C      1  0.5256290000000  0.4557790000000  0.4151310000000 1.0
C      1  0.5185060000000  0.4866850000000  0.5521670000000 1.0
C      1  0.5377920000000  0.4383460000000  0.5498430000000 1.0
C      1  0.4415150000000  0.4852060000000  0.5552760000000 1.0
C      1  0.5029050000000  0.4999400000000  0.4872840000000 1.0
C      1  0.5923530000000  0.4814110000000  0.4812420000000 1.0
C      1  0.4230700000000  0.5189460000000  0.4070800000000 1.0
C      1  0.4965940000000  0.4155870000000  0.5537490000000 1.0
C      1  0.5664210000000  0.4227410000000  0.5196010000000 1.0
C      1  0.5100310000000  0.4947640000000  0.6041160000000 1.0
C      1  0.5392150000000  0.5294300000000  0.4978300000000 1.0
C      1  0.4441600000000  0.5005450000000  0.4556400000000 1.0
C      1  0.5321930000000  0.4784170000000  0.3971240000000 1.0
C      1  0.4926030000000  0.5678450000000  0.5456080000000 1.0
C      1  0.5428790000000  0.5856060000000  0.5287720000000 1.0
C      1  0.5292170000000  0.5302200000000  0.5626690000000 1.0
C      1  0.4052260000000  0.5302640000000  0.5115810000000 1.0
C      1  0.5534110000000  0.5531050000000  0.5649440000000 1.0
C      1  0.4545840000000  0.4741500000000  0.4577960000000 1.0
C      1  0.4895650000000  0.5320290000000  0.3968740000000 1.0
C      1  0.4573740000000  0.5219530000000  0.4954770000000 1.0
C      1  0.4968820000000  0.5221950000000  0.4236830000000 1.0
C      1  0.4149460000000  0.5371740000000  0.5620210000000 1.0
C      1  0.5263820000000  0.4646740000000  0.5311860000000 1.0
C      1  0.4513200000000  0.5602690000000  0.4296760000000 1.0
C      1  0.4635320000000  0.4843560000000  0.5202700000000 1.0
C      1  0.5402350000000  0.4060850000000  0.5197400000000 1.0
C      1  0.5072670000000  0.5188350000000  0.4675670000000 1.0
C      1  0.5257220000000  0.5232670000000  0.4237200000000 1.0
C      1  0.4085520000000  0.4591970000000  0.4880040000000 1.0
C      1  0.4422750000000  0.5455590000000  0.5711620000000 1.0
C      1  0.4096880000000  0.5478160000000  0.5343870000000 1.0
C      1  0.4373270000000  0.4513950000000  0.4483910000000 1.0
C      1  0.4821020000000  0.4194100000000  0.4597690000000 1.0
C      1  0.4397020000000  0.4244210000000  0.4909470000000 1.0
C      1  0.4647620000000  0.5014900000000  0.5433040000000 1.0
C      1  0.5352030000000  0.4175740000000  0.4729280000000 1.0
C      1  0.4666370000000  0.4763560000000  0.5921230000000 1.0
C      1  0.5085450000000  0.4565990000000  0.5058710000000 1.0
C      1  0.5154940000000  0.5228340000000  0.6022640000000 1.0
C      1  0.4689570000000  0.5840800000000  0.5409520000000 1.0
C      1  0.5385670000000  0.5423470000000  0.4427200000000 1.0
C      1  0.4460950000000  0.5699730000000  0.5525370000000 1.0
C      1  0.4429700000000  0.4978110000000  0.5033400000000 1.0
C      1  0.4335030000000  0.4543340000000  0.4189370000000 1.0
END
