TITL C-884139-6216-143 12.7660754209175 125000 -25007.6593570538 0 0 167 (C1) n - 1
REM
REM in /home/nfs/bkarasulu/CARBON/AIRSS/Generating-Clusters/ReaxFF-fromJPCA2015/Units_Real/with-SteepDescent/Only-C1/SD-CG/Try1-3A/FIRE-CG
REM
REM
REM
REM
REM
REM ./C.cell (11c1c37f851c82e70ff6c80c92926a4b)
REM
REM compiler GCC version 9.2.1 20190827 (Red Hat 9.2.1-1)
REM options -cpp -mtune=generic -march=x86-64 -g -O0 -fpre-include=/usr/include/finclude/math-vector-fortran.h
REM seed -456999276 1444346846 -1810548598 1274030574 -968701304 1657777920 -485446461 -1158904876 493551181 11130900 1547170629 1974510248 944901008 1349627507 -617861339 251785446 100976087 1699719881 195289735 -1179926730 1668522190 1759377179 -1927968247 -1992927955 -14471491 2003098361 -595920575 1064523196 971925562 -1034953619 824833758 -1608350568 744534115
REM
CELL 1.54180   50.00000   50.00000   50.00000   90.00000   90.00000   90.00000
LATT -1
SFAC C  
C      1  0.5980680000000  0.5150850000000  0.4461620000000 1.0
C      1  0.5218980000000  0.4543910000000  0.4616020000000 1.0
C      1  0.4964360000000  0.4855200000000  0.4906110000000 1.0
C      1  0.5239990000000  0.5230510000000  0.4749140000000 1.0
C      1  0.4094350000000  0.4804360000000  0.4283370000000 1.0
C      1  0.5417540000000  0.5121200000000  0.6029440000000 1.0
C      1  0.5485110000000  0.5362480000000  0.4761770000000 1.0
C      1  0.4759470000000  0.4713850000000  0.5947560000000 1.0
C      1  0.4830190000000  0.4795530000000  0.5386470000000 1.0
C      1  0.5463100000000  0.4828420000000  0.4920230000000 1.0
C      1  0.4280470000000  0.5376240000000  0.5893670000000 1.0
C      1  0.3985650000000  0.4625990000000  0.4494550000000 1.0
C      1  0.4942700000000  0.4214040000000  0.4215640000000 1.0
C      1  0.4216960000000  0.4440920000000  0.4525720000000 1.0
C      1  0.5170750000000  0.3995070000000  0.4591200000000 1.0
C      1  0.5869210000000  0.4690360000000  0.5592420000000 1.0
C      1  0.4858150000000  0.3883610000000  0.4968190000000 1.0
C      1  0.4355000000000  0.4081450000000  0.5168320000000 1.0
C      1  0.4769960000000  0.5544060000000  0.4925310000000 1.0
C      1  0.4567940000000  0.5702720000000  0.5668790000000 1.0
C      1  0.5040370000000  0.5609180000000  0.5725940000000 1.0
C      1  0.5335350000000  0.4004460000000  0.4827530000000 1.0
C      1  0.6028690000000  0.4897890000000  0.5036300000000 1.0
C      1  0.5574290000000  0.5463100000000  0.4236340000000 1.0
C      1  0.4588840000000  0.5186600000000  0.5395480000000 1.0
C      1  0.4389230000000  0.4772940000000  0.4220850000000 1.0
C      1  0.4321310000000  0.5441750000000  0.4626530000000 1.0
C      1  0.5681690000000  0.5097960000000  0.4095830000000 1.0
C      1  0.4386880000000  0.4545020000000  0.5514760000000 1.0
C      1  0.4796570000000  0.5359350000000  0.5982820000000 1.0
C      1  0.4624670000000  0.5697900000000  0.4283900000000 1.0
C      1  0.6026810000000  0.4730800000000  0.4824490000000 1.0
C      1  0.4088870000000  0.4896560000000  0.5431280000000 1.0
C      1  0.6030510000000  0.5071070000000  0.5255560000000 1.0
C      1  0.4878840000000  0.4104810000000  0.5540230000000 1.0
C      1  0.4439910000000  0.5904530000000  0.4752860000000 1.0
C      1  0.4893500000000  0.3948470000000  0.4687250000000 1.0
C      1  0.4137680000000  0.4667570000000  0.5623250000000 1.0
C      1  0.4386460000000  0.5241660000000  0.4247860000000 1.0
C      1  0.3938530000000  0.4784030000000  0.5198370000000 1.0
C      1  0.5185610000000  0.5027370000000  0.4488180000000 1.0
C      1  0.5334530000000  0.5940090000000  0.4897470000000 1.0
C      1  0.5066930000000  0.4632620000000  0.5378230000000 1.0
C      1  0.4745860000000  0.5872390000000  0.4489840000000 1.0
C      1  0.4757760000000  0.5505300000000  0.4098630000000 1.0
C      1  0.5265910000000  0.4892590000000  0.6045870000000 1.0
C      1  0.5617950000000  0.4901080000000  0.4652300000000 1.0
C      1  0.4548570000000  0.5022890000000  0.4173580000000 1.0
C      1  0.4552070000000  0.5490520000000  0.5870840000000 1.0
C      1  0.5012080000000  0.4385660000000  0.5828490000000 1.0
C      1  0.4346260000000  0.5765300000000  0.5473690000000 1.0
C      1  0.5145380000000  0.4609040000000  0.5663590000000 1.0
C      1  0.4278950000000  0.4932450000000  0.4997010000000 1.0
C      1  0.4153920000000  0.4274280000000  0.5031400000000 1.0
C      1  0.5332460000000  0.5393470000000  0.5945400000000 1.0
C      1  0.4733900000000  0.4372020000000  0.5115920000000 1.0
C      1  0.4551900000000  0.4724050000000  0.5312510000000 1.0
C      1  0.4462440000000  0.4762570000000  0.4851230000000 1.0
C      1  0.4004880000000  0.5034580000000  0.4441250000000 1.0
C      1  0.4551070000000  0.4340710000000  0.5637920000000 1.0
C      1  0.5272890000000  0.5780090000000  0.4401540000000 1.0
C      1  0.4839490000000  0.5167620000000  0.4139420000000 1.0
C      1  0.4590430000000  0.4888140000000  0.5822600000000 1.0
C      1  0.5233040000000  0.5659900000000  0.4906660000000 1.0
C      1  0.4681800000000  0.4644660000000  0.5020070000000 1.0
C      1  0.4126940000000  0.5569320000000  0.5452100000000 1.0
C      1  0.5102640000000  0.5199820000000  0.4291660000000 1.0
C      1  0.4977310000000  0.6038030000000  0.5495940000000 1.0
C      1  0.5897450000000  0.4969410000000  0.5504710000000 1.0
C      1  0.5187500000000  0.5321510000000  0.3883720000000 1.0
C      1  0.4712450000000  0.4334790000000  0.4386110000000 1.0
C      1  0.5696250000000  0.5778840000000  0.4620980000000 1.0
C      1  0.5711140000000  0.5520390000000  0.4769160000000 1.0
C      1  0.4177030000000  0.5151970000000  0.5737420000000 1.0
C      1  0.5484460000000  0.4829360000000  0.5227790000000 1.0
C      1  0.5438190000000  0.5780070000000  0.5551420000000 1.0
C      1  0.5102620000000  0.4821650000000  0.4032770000000 1.0
C      1  0.5022820000000  0.5741170000000  0.4506060000000 1.0
C      1  0.5712660000000  0.5786540000000  0.5359020000000 1.0
C      1  0.4239720000000  0.4253690000000  0.4751660000000 1.0
C      1  0.5933480000000  0.4454300000000  0.4862240000000 1.0
C      1  0.4971680000000  0.5499580000000  0.3934140000000 1.0
C      1  0.5053910000000  0.5507220000000  0.6000160000000 1.0
C      1  0.5548580000000  0.5737060000000  0.4367040000000 1.0
C      1  0.5005820000000  0.4415990000000  0.4016730000000 1.0
C      1  0.4784420000000  0.5988820000000  0.5021160000000 1.0
C      1  0.4405560000000  0.5520240000000  0.4337000000000 1.0
C      1  0.5783740000000  0.4666320000000  0.4335400000000 1.0
C      1  0.5130030000000  0.3995580000000  0.5060020000000 1.0
C      1  0.5447880000000  0.4927340000000  0.4439270000000 1.0
C      1  0.5098210000000  0.4116000000000  0.5720400000000 1.0
C      1  0.5230530000000  0.5992740000000  0.5166330000000 1.0
C      1  0.4404800000000  0.5829280000000  0.5189380000000 1.0
C      1  0.5534810000000  0.4860800000000  0.5960190000000 1.0
C      1  0.4689950000000  0.6018230000000  0.4745880000000 1.0
C      1  0.5610330000000  0.4100370000000  0.4830090000000 1.0
C      1  0.5043080000000  0.5538630000000  0.4728940000000 1.0
C      1  0.5851440000000  0.5533970000000  0.5395820000000 1.0
C      1  0.4930620000000  0.5357550000000  0.5088110000000 1.0
C      1  0.5248600000000  0.5730460000000  0.5316030000000 1.0
C      1  0.4838520000000  0.5798240000000  0.5630300000000 1.0
C      1  0.4020870000000  0.4519760000000  0.5132710000000 1.0
C      1  0.4962480000000  0.6096750000000  0.5199700000000 1.0
C      1  0.4455260000000  0.5064560000000  0.5677190000000 1.0
C      1  0.5708520000000  0.5405430000000  0.5622810000000 1.0
C      1  0.4211540000000  0.5442420000000  0.5196620000000 1.0
C      1  0.5984860000000  0.5363390000000  0.5200680000000 1.0
C      1  0.4995900000000  0.4276890000000  0.5043990000000 1.0
C      1  0.3903830000000  0.4864710000000  0.4652540000000 1.0
C      1  0.5225210000000  0.4987190000000  0.4945480000000 1.0
C      1  0.4082620000000  0.5408250000000  0.5691290000000 1.0
C      1  0.5433860000000  0.4489200000000  0.5621730000000 1.0
C      1  0.4729960000000  0.4431620000000  0.5856560000000 1.0
C      1  0.4858500000000  0.4668550000000  0.4112950000000 1.0
C      1  0.5929220000000  0.4346800000000  0.5131140000000 1.0
C      1  0.4427660000000  0.4508280000000  0.4338550000000 1.0
C      1  0.4682570000000  0.5755810000000  0.5118630000000 1.0
C      1  0.4928940000000  0.5145100000000  0.5834030000000 1.0
C      1  0.5015650000000  0.5083070000000  0.3904370000000 1.0
C      1  0.5898720000000  0.4857160000000  0.4554320000000 1.0
C      1  0.5344820000000  0.4427400000000  0.4351270000000 1.0
C      1  0.4358760000000  0.4952420000000  0.5284180000000 1.0
C      1  0.5009280000000  0.4753410000000  0.4592320000000 1.0
C      1  0.4878890000000  0.5069900000000  0.5361510000000 1.0
C      1  0.5773300000000  0.4096030000000  0.5083230000000 1.0
C      1  0.5147750000000  0.5175810000000  0.5411900000000 1.0
C      1  0.5580880000000  0.4050150000000  0.5276230000000 1.0
C      1  0.3935710000000  0.5292110000000  0.4937640000000 1.0
C      1  0.4658630000000  0.5157650000000  0.4753070000000 1.0
C      1  0.5336600000000  0.5302910000000  0.4143270000000 1.0
C      1  0.5649570000000  0.4431010000000  0.4428500000000 1.0
C      1  0.5051070000000  0.5315310000000  0.5641940000000 1.0
C      1  0.5597370000000  0.4843760000000  0.4187870000000 1.0
C      1  0.4565850000000  0.3947510000000  0.4997250000000 1.0
C      1  0.4685430000000  0.4114200000000  0.4581210000000 1.0
C      1  0.4846670000000  0.5120500000000  0.4942500000000 1.0
C      1  0.4491470000000  0.4964960000000  0.4644660000000 1.0
C      1  0.4669570000000  0.4213240000000  0.5384550000000 1.0
C      1  0.5632550000000  0.4669110000000  0.5765410000000 1.0
C      1  0.5828200000000  0.4497870000000  0.5362650000000 1.0
C      1  0.5545790000000  0.4567790000000  0.5347090000000 1.0
C      1  0.5251930000000  0.4568200000000  0.4070480000000 1.0
C      1  0.5355050000000  0.4158270000000  0.5586990000000 1.0
C      1  0.5029930000000  0.4867000000000  0.5888210000000 1.0
C      1  0.5327210000000  0.4013700000000  0.5339200000000 1.0
C      1  0.4490190000000  0.5432870000000  0.5275230000000 1.0
C      1  0.5171080000000  0.4496530000000  0.5127630000000 1.0
C      1  0.5246420000000  0.6023620000000  0.5614020000000 1.0
C      1  0.4108750000000  0.5519870000000  0.4880480000000 1.0
C      1  0.4277810000000  0.5148730000000  0.4528700000000 1.0
C      1  0.5628170000000  0.5962140000000  0.4840050000000 1.0
C      1  0.5655170000000  0.5122830000000  0.5556390000000 1.0
C      1  0.5184370000000  0.5503140000000  0.5147860000000 1.0
C      1  0.6037380000000  0.5279640000000  0.4698520000000 1.0
C      1  0.5491970000000  0.5539950000000  0.5754980000000 1.0
C      1  0.5987440000000  0.5429690000000  0.4919970000000 1.0
C      1  0.3969770000000  0.4977120000000  0.4934670000000 1.0
C      1  0.5413440000000  0.5055510000000  0.5399120000000 1.0
C      1  0.5188640000000  0.4159420000000  0.4350230000000 1.0
C      1  0.5690110000000  0.5886070000000  0.5105550000000 1.0
C      1  0.4572950000000  0.5407680000000  0.4768400000000 1.0
C      1  0.4252330000000  0.5813380000000  0.4933070000000 1.0
C      1  0.4467630000000  0.4076660000000  0.4749450000000 1.0
C      1  0.4812600000000  0.4629220000000  0.4399490000000 1.0
C      1  0.5819870000000  0.5291250000000  0.4244620000000 1.0
C      1  0.5743080000000  0.4315960000000  0.4677970000000 1.0
C      1  0.5321580000000  0.4552460000000  0.4883380000000 1.0
END
