TITL C-883737-113-253 -5.48160074978652 125000 -12553.046389705 0 0 84 (C1) n - 1
REM
REM in /home/nfs/bkarasulu/CARBON/AIRSS/Generating-Clusters/ReaxFF-fromJPCA2015/Units_Real/with-SteepDescent/Only-C1/SD-CG/Try1-3A/FIRE-CG
REM
REM
REM
REM
REM
REM ./C.cell (11c1c37f851c82e70ff6c80c92926a4b)
REM
REM compiler GCC version 9.2.1 20190827 (Red Hat 9.2.1-1)
REM options -cpp -mtune=generic -march=x86-64 -g -O0 -fpre-include=/usr/include/finclude/math-vector-fortran.h
REM seed -48511911 -1668150957 -511518080 775206955 -856283044 1543039319 1126374480 1152370823 -1372230217 1780848746 -1235612947 158492876 -1074545848 352052422 946568195 125579396 -328100339 -1677959545 -1391856554 -1234879456 -1811675733 1552263648 1164209033 -1086335874 -870262526 -162852297 187690840 1192497469 644938366 915766971 470770944 138310981 -1081543257
REM
CELL 1.54180   50.00000   50.00000   50.00000   90.00000   90.00000   90.00000
LATT -1
SFAC C  
C      1  0.5198240000000  0.4803260000000  0.4678940000000 1.0
C      1  0.5285270000000  0.5134680000000  0.5833400000000 1.0
C      1  0.5381700000000  0.5186220000000  0.5107310000000 1.0
C      1  0.5554250000000  0.4791040000000  0.5551580000000 1.0
C      1  0.4494100000000  0.5618220000000  0.4552800000000 1.0
C      1  0.5248480000000  0.5427050000000  0.5865610000000 1.0
C      1  0.4919930000000  0.4763470000000  0.4803630000000 1.0
C      1  0.5189700000000  0.4344980000000  0.4712050000000 1.0
C      1  0.5113460000000  0.5373970000000  0.4153750000000 1.0
C      1  0.5775750000000  0.4771820000000  0.4541620000000 1.0
C      1  0.4788560000000  0.5065230000000  0.4324020000000 1.0
C      1  0.4426670000000  0.5221900000000  0.5571500000000 1.0
C      1  0.5300470000000  0.5637060000000  0.5666730000000 1.0
C      1  0.4406300000000  0.4774080000000  0.4807020000000 1.0
C      1  0.5240950000000  0.4844300000000  0.4139660000000 1.0
C      1  0.4654820000000  0.5344480000000  0.5424920000000 1.0
C      1  0.5497160000000  0.5185940000000  0.4522910000000 1.0
C      1  0.4467260000000  0.5342390000000  0.4454740000000 1.0
C      1  0.5522060000000  0.4806930000000  0.4205980000000 1.0
C      1  0.5272110000000  0.4381850000000  0.5404040000000 1.0
C      1  0.5567200000000  0.5394100000000  0.5011240000000 1.0
C      1  0.5020760000000  0.5233010000000  0.4804350000000 1.0
C      1  0.4261720000000  0.5085860000000  0.5373400000000 1.0
C      1  0.5459060000000  0.4327030000000  0.5177930000000 1.0
C      1  0.5904230000000  0.4868250000000  0.5072980000000 1.0
C      1  0.5570060000000  0.4597120000000  0.4409390000000 1.0
C      1  0.4905920000000  0.4703330000000  0.5083530000000 1.0
C      1  0.5450100000000  0.5641650000000  0.5137150000000 1.0
C      1  0.4529720000000  0.5034760000000  0.5779220000000 1.0
C      1  0.4476980000000  0.4493730000000  0.4842860000000 1.0
C      1  0.4708810000000  0.5161190000000  0.5197140000000 1.0
C      1  0.4621560000000  0.4492570000000  0.5111680000000 1.0
C      1  0.4960110000000  0.5594500000000  0.5088070000000 1.0
C      1  0.4806000000000  0.5110840000000  0.5823880000000 1.0
C      1  0.4371940000000  0.5059840000000  0.4439200000000 1.0
C      1  0.4445160000000  0.4562130000000  0.5352460000000 1.0
C      1  0.4670780000000  0.4912160000000  0.4775180000000 1.0
C      1  0.4915790000000  0.4309730000000  0.4810420000000 1.0
C      1  0.4452700000000  0.5681080000000  0.4846310000000 1.0
C      1  0.5474960000000  0.5568750000000  0.5428810000000 1.0
C      1  0.4872030000000  0.4579920000000  0.4283920000000 1.0
C      1  0.4638460000000  0.4566820000000  0.4402960000000 1.0
C      1  0.4375240000000  0.5528190000000  0.5086590000000 1.0
C      1  0.5384810000000  0.4895280000000  0.5128240000000 1.0
C      1  0.5210490000000  0.5079600000000  0.4575480000000 1.0
C      1  0.4953110000000  0.5596370000000  0.4237960000000 1.0
C      1  0.5336050000000  0.4603220000000  0.5593080000000 1.0
C      1  0.4989120000000  0.4343990000000  0.5362680000000 1.0
C      1  0.4228290000000  0.5253130000000  0.5128640000000 1.0
C      1  0.5094480000000  0.4852130000000  0.5239770000000 1.0
C      1  0.5290410000000  0.4519030000000  0.4482730000000 1.0
C      1  0.5114820000000  0.5285010000000  0.5090200000000 1.0
C      1  0.5098470000000  0.5082270000000  0.4266590000000 1.0
C      1  0.5054400000000  0.4953900000000  0.5826410000000 1.0
C      1  0.4575210000000  0.4872960000000  0.4343150000000 1.0
C      1  0.5846530000000  0.4820590000000  0.4812710000000 1.0
C      1  0.4851060000000  0.4294950000000  0.5102460000000 1.0
C      1  0.4421780000000  0.4771790000000  0.5709970000000 1.0
C      1  0.5370250000000  0.4730370000000  0.4894090000000 1.0
C      1  0.5081390000000  0.4682940000000  0.5711230000000 1.0
C      1  0.5584220000000  0.5326880000000  0.4739020000000 1.0
C      1  0.4752870000000  0.5317020000000  0.4462940000000 1.0
C      1  0.4207810000000  0.4952440000000  0.4667170000000 1.0
C      1  0.5023310000000  0.5565640000000  0.5740500000000 1.0
C      1  0.5207380000000  0.5753490000000  0.5025220000000 1.0
C      1  0.4674430000000  0.4403840000000  0.4657050000000 1.0
C      1  0.4289910000000  0.4798730000000  0.5442820000000 1.0
C      1  0.5716040000000  0.4444900000000  0.5253380000000 1.0
C      1  0.4743490000000  0.5156070000000  0.4907680000000 1.0
C      1  0.4588900000000  0.4545900000000  0.5605120000000 1.0
C      1  0.5531170000000  0.5312030000000  0.5527910000000 1.0
C      1  0.5136250000000  0.4584250000000  0.4215230000000 1.0
C      1  0.5017240000000  0.5683230000000  0.4809650000000 1.0
C      1  0.4815660000000  0.5368820000000  0.5674060000000 1.0
C      1  0.5669210000000  0.4749620000000  0.5281970000000 1.0
C      1  0.5524680000000  0.5067260000000  0.5664030000000 1.0
C      1  0.4633740000000  0.5646620000000  0.5065090000000 1.0
C      1  0.5676100000000  0.4994620000000  0.4372780000000 1.0
C      1  0.4729740000000  0.5722210000000  0.4404500000000 1.0
C      1  0.4186530000000  0.5113940000000  0.4892330000000 1.0
C      1  0.4978110000000  0.5111810000000  0.5296030000000 1.0
C      1  0.4961850000000  0.5462260000000  0.4631560000000 1.0
C      1  0.4881710000000  0.4508250000000  0.5584320000000 1.0
C      1  0.5372440000000  0.4447200000000  0.4913360000000 1.0
END
