TITL C-884127-5181-461 -12.0646511686383 125000 -27955.9816111843 0 0 183 (C1) n - 1
REM
REM in /home/nfs/bkarasulu/CARBON/AIRSS/Generating-Clusters/ReaxFF-fromJPCA2015/Units_Real/with-SteepDescent/Only-C1/SD-CG/Try1-3A/FIRE-CG
REM
REM
REM
REM
REM
REM ./C.cell (11c1c37f851c82e70ff6c80c92926a4b)
REM
REM compiler GCC version 9.2.1 20190827 (Red Hat 9.2.1-1)
REM options -cpp -mtune=generic -march=x86-64 -g -O0 -fpre-include=/usr/include/finclude/math-vector-fortran.h
REM seed -803062555 -1222096673 1507692576 -1548236368 1278318367 1265974963 781267779 671237549 -1400041093 210380960 654883844 -2143977061 -345766009 1927979880 -1828735530 -696311904 1908289331 -832967448 -241265873 -1405436831 1124106209 -913469419 813482716 970035722 1077202140 -2044296765 -2090950964 104104808 -811090362 994035840 153284830 -1652960190 -1220519620
REM
CELL 1.54180   50.00000   50.00000   50.00000   90.00000   90.00000   90.00000
LATT -1
SFAC C  
C      1  0.5921950000000  0.5049230000000  0.5804570000000 1.0
C      1  0.3986720000000  0.4651620000000  0.5001610000000 1.0
C      1  0.4441480000000  0.5056500000000  0.3910480000000 1.0
C      1  0.4437170000000  0.5733290000000  0.5051980000000 1.0
C      1  0.4549890000000  0.4080770000000  0.4900990000000 1.0
C      1  0.4667460000000  0.4005280000000  0.5348790000000 1.0
C      1  0.5685360000000  0.4814050000000  0.4129820000000 1.0
C      1  0.5764250000000  0.5484140000000  0.5008480000000 1.0
C      1  0.4243370000000  0.5678460000000  0.5285790000000 1.0
C      1  0.4646470000000  0.4994720000000  0.5091080000000 1.0
C      1  0.4034000000000  0.4584690000000  0.4719040000000 1.0
C      1  0.5527340000000  0.5065500000000  0.4071660000000 1.0
C      1  0.5917840000000  0.5441160000000  0.5471940000000 1.0
C      1  0.5147220000000  0.4990640000000  0.4580980000000 1.0
C      1  0.4867440000000  0.4242560000000  0.4513950000000 1.0
C      1  0.5209830000000  0.4531100000000  0.4932750000000 1.0
C      1  0.5714530000000  0.4536450000000  0.4201760000000 1.0
C      1  0.4525300000000  0.4361580000000  0.4252820000000 1.0
C      1  0.3959970000000  0.5383110000000  0.4967080000000 1.0
C      1  0.4272260000000  0.5457930000000  0.4323200000000 1.0
C      1  0.5723600000000  0.4233150000000  0.4924760000000 1.0
C      1  0.5298450000000  0.4624730000000  0.3963470000000 1.0
C      1  0.4571710000000  0.6001540000000  0.5119840000000 1.0
C      1  0.4814880000000  0.4831950000000  0.4218070000000 1.0
C      1  0.5610180000000  0.5347180000000  0.4155260000000 1.0
C      1  0.5981370000000  0.5418160000000  0.4547710000000 1.0
C      1  0.5608210000000  0.5056520000000  0.5428430000000 1.0
C      1  0.5133020000000  0.4281340000000  0.4549300000000 1.0
C      1  0.5568040000000  0.4014640000000  0.5042840000000 1.0
C      1  0.4385500000000  0.5729480000000  0.4748410000000 1.0
C      1  0.5459420000000  0.5717260000000  0.4687330000000 1.0
C      1  0.5443330000000  0.5984880000000  0.5314120000000 1.0
C      1  0.4872980000000  0.4755980000000  0.3795670000000 1.0
C      1  0.4355150000000  0.5713110000000  0.5550260000000 1.0
C      1  0.5198050000000  0.6110930000000  0.5223260000000 1.0
C      1  0.5555300000000  0.4346540000000  0.5405900000000 1.0
C      1  0.6148110000000  0.5024050000000  0.5364180000000 1.0
C      1  0.5296900000000  0.3914600000000  0.5350920000000 1.0
C      1  0.4410990000000  0.4308170000000  0.4512350000000 1.0
C      1  0.5219170000000  0.5018160000000  0.5959650000000 1.0
C      1  0.5752560000000  0.5261650000000  0.5646650000000 1.0
C      1  0.5214770000000  0.4369910000000  0.5487190000000 1.0
C      1  0.6092870000000  0.5304350000000  0.5287890000000 1.0
C      1  0.4535070000000  0.5400920000000  0.5958650000000 1.0
C      1  0.6051090000000  0.5224020000000  0.4746920000000 1.0
C      1  0.5950030000000  0.4909690000000  0.4667740000000 1.0
C      1  0.4040530000000  0.5476220000000  0.5233050000000 1.0
C      1  0.4675870000000  0.5701680000000  0.4317430000000 1.0
C      1  0.5703860000000  0.4922720000000  0.5904260000000 1.0
C      1  0.5273250000000  0.4201680000000  0.4180740000000 1.0
C      1  0.4651140000000  0.4825550000000  0.5637840000000 1.0
C      1  0.5023840000000  0.3885560000000  0.4922040000000 1.0
C      1  0.4803560000000  0.5821830000000  0.5788720000000 1.0
C      1  0.4607960000000  0.5447450000000  0.5096100000000 1.0
C      1  0.5227940000000  0.4953460000000  0.4858980000000 1.0
C      1  0.5105550000000  0.6060760000000  0.4945510000000 1.0
C      1  0.5741500000000  0.4316260000000  0.4645150000000 1.0
C      1  0.5039570000000  0.5955180000000  0.5676200000000 1.0
C      1  0.5553140000000  0.5675850000000  0.5671030000000 1.0
C      1  0.5999510000000  0.4866850000000  0.5172550000000 1.0
C      1  0.4976900000000  0.5107030000000  0.5313690000000 1.0
C      1  0.6087300000000  0.4669820000000  0.4513460000000 1.0
C      1  0.5655310000000  0.5824320000000  0.5205240000000 1.0
C      1  0.5942250000000  0.4621110000000  0.5545870000000 1.0
C      1  0.4539760000000  0.4320980000000  0.5957150000000 1.0
C      1  0.5558100000000  0.4050360000000  0.5332620000000 1.0
C      1  0.5729940000000  0.4441470000000  0.5148510000000 1.0
C      1  0.4069320000000  0.5248710000000  0.5416590000000 1.0
C      1  0.3972410000000  0.5095360000000  0.4511180000000 1.0
C      1  0.5727880000000  0.4998630000000  0.5149300000000 1.0
C      1  0.5270530000000  0.4042100000000  0.4441480000000 1.0
C      1  0.5705400000000  0.4752690000000  0.4758900000000 1.0
C      1  0.4121250000000  0.5212920000000  0.4287480000000 1.0
C      1  0.4169750000000  0.4857020000000  0.5689630000000 1.0
C      1  0.5521600000000  0.5420850000000  0.5795010000000 1.0
C      1  0.5371010000000  0.4974470000000  0.5444790000000 1.0
C      1  0.4965620000000  0.4524990000000  0.5043000000000 1.0
C      1  0.4981660000000  0.4968360000000  0.3987850000000 1.0
C      1  0.4300720000000  0.5262860000000  0.5597270000000 1.0
C      1  0.5243800000000  0.4431580000000  0.5775030000000 1.0
C      1  0.4352080000000  0.4402110000000  0.5760270000000 1.0
C      1  0.4672600000000  0.6107350000000  0.4629620000000 1.0
C      1  0.5081670000000  0.5774780000000  0.4923650000000 1.0
C      1  0.5488730000000  0.5606650000000  0.4222440000000 1.0
C      1  0.5111680000000  0.4088710000000  0.5502100000000 1.0
C      1  0.4052740000000  0.4526250000000  0.5258050000000 1.0
C      1  0.5690630000000  0.4492490000000  0.5626720000000 1.0
C      1  0.5097540000000  0.5147390000000  0.5060030000000 1.0
C      1  0.5020410000000  0.4287720000000  0.4064900000000 1.0
C      1  0.4196360000000  0.4263330000000  0.5213690000000 1.0
C      1  0.4716030000000  0.4591780000000  0.4859640000000 1.0
C      1  0.4252090000000  0.5082240000000  0.4921260000000 1.0
C      1  0.4591000000000  0.5299270000000  0.3971800000000 1.0
C      1  0.4975550000000  0.5607480000000  0.4685440000000 1.0
C      1  0.5325570000000  0.5855610000000  0.5583630000000 1.0
C      1  0.5297180000000  0.5238690000000  0.4529470000000 1.0
C      1  0.5498550000000  0.4557290000000  0.5841000000000 1.0
C      1  0.4011170000000  0.4723090000000  0.5476010000000 1.0
C      1  0.4997830000000  0.5485840000000  0.5536160000000 1.0
C      1  0.5141300000000  0.3898090000000  0.4658910000000 1.0
C      1  0.4346120000000  0.5501290000000  0.4599010000000 1.0
C      1  0.4545350000000  0.5853560000000  0.4550060000000 1.0
C      1  0.5627270000000  0.5736620000000  0.4451830000000 1.0
C      1  0.6034660000000  0.5362490000000  0.4999480000000 1.0
C      1  0.4653830000000  0.4290960000000  0.4695520000000 1.0
C      1  0.5919810000000  0.4451940000000  0.4434940000000 1.0
C      1  0.5025050000000  0.4932340000000  0.5752310000000 1.0
C      1  0.5277380000000  0.4472360000000  0.4681160000000 1.0
C      1  0.5283390000000  0.3889900000000  0.5055450000000 1.0
C      1  0.4025130000000  0.4935390000000  0.5048670000000 1.0
C      1  0.4655990000000  0.4827680000000  0.4672740000000 1.0
C      1  0.5456940000000  0.4422420000000  0.4115160000000 1.0
C      1  0.4839220000000  0.4069350000000  0.5596670000000 1.0
C      1  0.4336710000000  0.5499390000000  0.5764760000000 1.0
C      1  0.3929870000000  0.5262540000000  0.4740240000000 1.0
C      1  0.5325200000000  0.5345930000000  0.5058810000000 1.0
C      1  0.5537630000000  0.5143770000000  0.4665680000000 1.0
C      1  0.4446510000000  0.5022950000000  0.4691910000000 1.0
C      1  0.4186090000000  0.4339390000000  0.4694640000000 1.0
C      1  0.4866700000000  0.5249990000000  0.3891830000000 1.0
C      1  0.5339060000000  0.4744380000000  0.5014330000000 1.0
C      1  0.4494180000000  0.5108960000000  0.6046550000000 1.0
C      1  0.4629860000000  0.6191940000000  0.4907990000000 1.0
C      1  0.5295940000000  0.4914020000000  0.3993820000000 1.0
C      1  0.3971900000000  0.4983260000000  0.5334010000000 1.0
C      1  0.4420700000000  0.4128570000000  0.5320870000000 1.0
C      1  0.4591260000000  0.4849170000000  0.3740950000000 1.0
C      1  0.4955060000000  0.5682780000000  0.4387510000000 1.0
C      1  0.5590510000000  0.5256480000000  0.4969140000000 1.0
C      1  0.5750700000000  0.5056950000000  0.4482600000000 1.0
C      1  0.4782970000000  0.5326570000000  0.5372150000000 1.0
C      1  0.4323940000000  0.4862250000000  0.5941460000000 1.0
C      1  0.5039420000000  0.5459370000000  0.3905330000000 1.0
C      1  0.4372430000000  0.4580920000000  0.5994370000000 1.0
C      1  0.5199790000000  0.5710820000000  0.4215420000000 1.0
C      1  0.5035480000000  0.5459390000000  0.5831900000000 1.0
C      1  0.5475290000000  0.4823340000000  0.5979060000000 1.0
C      1  0.5036090000000  0.4525450000000  0.3887500000000 1.0
C      1  0.5747740000000  0.5681460000000  0.5444230000000 1.0
C      1  0.4006810000000  0.4791540000000  0.4505250000000 1.0
C      1  0.5279960000000  0.5317680000000  0.5913900000000 1.0
C      1  0.4537610000000  0.5296370000000  0.4647840000000 1.0
C      1  0.4212200000000  0.5011530000000  0.4096770000000 1.0
C      1  0.4951210000000  0.4653800000000  0.6086530000000 1.0
C      1  0.4492790000000  0.4647390000000  0.3900980000000 1.0
C      1  0.5556590000000  0.4541820000000  0.4620440000000 1.0
C      1  0.4601020000000  0.4700920000000  0.5110650000000 1.0
C      1  0.4899170000000  0.6202890000000  0.4790930000000 1.0
C      1  0.4989580000000  0.4911480000000  0.6169910000000 1.0
C      1  0.4587030000000  0.5882930000000  0.5596020000000 1.0
C      1  0.4689890000000  0.4538650000000  0.5343040000000 1.0
C      1  0.4109260000000  0.4759240000000  0.4230060000000 1.0
C      1  0.4756980000000  0.5037480000000  0.5727670000000 1.0
C      1  0.5703970000000  0.5721430000000  0.4872340000000 1.0
C      1  0.4984900000000  0.6091910000000  0.5432330000000 1.0
C      1  0.5967210000000  0.4589650000000  0.5256010000000 1.0
C      1  0.5091630000000  0.4880170000000  0.5467270000000 1.0
C      1  0.4590930000000  0.5234990000000  0.5574510000000 1.0
C      1  0.5232450000000  0.5612750000000  0.5117310000000 1.0
C      1  0.4985380000000  0.4562340000000  0.5335780000000 1.0
C      1  0.4274360000000  0.4186040000000  0.4934730000000 1.0
C      1  0.5184350000000  0.5632940000000  0.5407250000000 1.0
C      1  0.4512280000000  0.5504340000000  0.4170250000000 1.0
C      1  0.4750020000000  0.5381500000000  0.4830290000000 1.0
C      1  0.4875490000000  0.4894210000000  0.4483750000000 1.0
C      1  0.4790940000000  0.4238680000000  0.4242720000000 1.0
C      1  0.4779170000000  0.5562870000000  0.5940530000000 1.0
C      1  0.5004080000000  0.4413990000000  0.5949450000000 1.0
C      1  0.5615010000000  0.4742380000000  0.5025220000000 1.0
C      1  0.4408670000000  0.4779960000000  0.5523270000000 1.0
C      1  0.4722250000000  0.4986500000000  0.6131650000000 1.0
C      1  0.5842750000000  0.5279310000000  0.4314720000000 1.0
C      1  0.5190400000000  0.5634510000000  0.3947760000000 1.0
C      1  0.6064760000000  0.4882500000000  0.5610150000000 1.0
C      1  0.4585060000000  0.4644220000000  0.4163500000000 1.0
C      1  0.5257230000000  0.5504470000000  0.4649780000000 1.0
C      1  0.4694520000000  0.6041170000000  0.5376570000000 1.0
C      1  0.4844730000000  0.5142950000000  0.4939550000000 1.0
C      1  0.4753300000000  0.3966920000000  0.5062940000000 1.0
C      1  0.4787720000000  0.4234090000000  0.5832880000000 1.0
C      1  0.5864500000000  0.5682380000000  0.4611230000000 1.0
C      1  0.4455430000000  0.4498260000000  0.5499120000000 1.0
C      1  0.4446260000000  0.5203960000000  0.5113190000000 1.0
END
