TITL C-883732-77-193 6.96675370365567 125000 -10184.3581939792 0 0 70 (C1) n - 1
REM
REM in /home/nfs/bkarasulu/CARBON/AIRSS/Generating-Clusters/ReaxFF-fromJPCA2015/Units_Real/with-SteepDescent/Only-C1/SD-CG/Try1-3A/FIRE-CG
REM
REM
REM
REM
REM
REM ./C.cell (11c1c37f851c82e70ff6c80c92926a4b)
REM
REM compiler GCC version 9.2.1 20190827 (Red Hat 9.2.1-1)
REM options -cpp -mtune=generic -march=x86-64 -g -O0 -fpre-include=/usr/include/finclude/math-vector-fortran.h
REM seed -426881026 770645876 -566675222 -269464096 -444620616 -1569660729 -1194632496 -737036159 1111179039 1531885062 1251635483 -2037292957 -101998263 -1259345684 926806636 -500855526 1407899158 -945776797 149999816 -231303943 668965943 -2042231898 -1821442056 -155644507 -1601768781 -1427010544 404747232 479851024 -399165134 -583425344 1952115494 1358364122 1011091799
REM
CELL 1.54180   50.00000   50.00000   50.00000   90.00000   90.00000   90.00000
LATT -1
SFAC C  
C      1  0.5200760000000  0.4818470000000  0.5673260000000 1.0
C      1  0.4655510000000  0.4426720000000  0.5039100000000 1.0
C      1  0.5331900000000  0.4551330000000  0.5399460000000 1.0
C      1  0.5480360000000  0.4996990000000  0.4479810000000 1.0
C      1  0.5686790000000  0.4873620000000  0.5191290000000 1.0
C      1  0.4990590000000  0.5290470000000  0.5164690000000 1.0
C      1  0.4586050000000  0.4483440000000  0.4759850000000 1.0
C      1  0.4902240000000  0.4417780000000  0.5426610000000 1.0
C      1  0.4700780000000  0.5064620000000  0.4377880000000 1.0
C      1  0.4647380000000  0.5518060000000  0.4538860000000 1.0
C      1  0.4755960000000  0.5407780000000  0.5009910000000 1.0
C      1  0.4607900000000  0.4785770000000  0.4380900000000 1.0
C      1  0.4574640000000  0.5073980000000  0.5176190000000 1.0
C      1  0.5689620000000  0.5311250000000  0.4785210000000 1.0
C      1  0.5032490000000  0.5450030000000  0.5401930000000 1.0
C      1  0.4231080000000  0.4999790000000  0.5518300000000 1.0
C      1  0.5377640000000  0.5509060000000  0.4531500000000 1.0
C      1  0.4095270000000  0.5181400000000  0.5042000000000 1.0
C      1  0.5020730000000  0.4719080000000  0.4862760000000 1.0
C      1  0.5694960000000  0.4844290000000  0.4924520000000 1.0
C      1  0.4777040000000  0.4987960000000  0.5353340000000 1.0
C      1  0.5142890000000  0.5535900000000  0.4709170000000 1.0
C      1  0.5172980000000  0.4307310000000  0.5036460000000 1.0
C      1  0.5343470000000  0.4530210000000  0.5139660000000 1.0
C      1  0.5362830000000  0.5260200000000  0.4371660000000 1.0
C      1  0.4706150000000  0.4584560000000  0.5504120000000 1.0
C      1  0.5043860000000  0.5005320000000  0.5241710000000 1.0
C      1  0.4786800000000  0.4413950000000  0.4560430000000 1.0
C      1  0.4477730000000  0.4728330000000  0.4638420000000 1.0
C      1  0.5751530000000  0.5194940000000  0.5437190000000 1.0
C      1  0.5241420000000  0.5597390000000  0.5265330000000 1.0
C      1  0.5443060000000  0.4980100000000  0.5604110000000 1.0
C      1  0.4903920000000  0.4332970000000  0.5151930000000 1.0
C      1  0.4696100000000  0.5095180000000  0.4905960000000 1.0
C      1  0.5686890000000  0.5039420000000  0.4678200000000 1.0
C      1  0.5357790000000  0.4731990000000  0.4468190000000 1.0
C      1  0.4520080000000  0.5370030000000  0.5202270000000 1.0
C      1  0.5114040000000  0.4537400000000  0.5572470000000 1.0
C      1  0.5023610000000  0.5747500000000  0.4819750000000 1.0
C      1  0.5280240000000  0.5651480000000  0.4943660000000 1.0
C      1  0.5637270000000  0.5363290000000  0.5243440000000 1.0
C      1  0.4965830000000  0.4990390000000  0.4473050000000 1.0
C      1  0.4446670000000  0.4974970000000  0.4798050000000 1.0
C      1  0.4253830000000  0.5384490000000  0.5134250000000 1.0
C      1  0.4239070000000  0.5193370000000  0.4778890000000 1.0
C      1  0.4302190000000  0.4730930000000  0.5227360000000 1.0
C      1  0.4798830000000  0.5336740000000  0.4325640000000 1.0
C      1  0.4128320000000  0.4948490000000  0.5253490000000 1.0
C      1  0.5433850000000  0.4522300000000  0.4665450000000 1.0
C      1  0.5085330000000  0.4753180000000  0.4354670000000 1.0
C      1  0.5374370000000  0.5266510000000  0.5617870000000 1.0
C      1  0.4757780000000  0.5629020000000  0.4791640000000 1.0
C      1  0.4830340000000  0.4601710000000  0.4343910000000 1.0
C      1  0.4410420000000  0.5420180000000  0.4665160000000 1.0
C      1  0.5559140000000  0.4591820000000  0.4914040000000 1.0
C      1  0.5010850000000  0.4476830000000  0.4715480000000 1.0
C      1  0.5543370000000  0.5558090000000  0.4759030000000 1.0
C      1  0.5265290000000  0.5115260000000  0.4901070000000 1.0
C      1  0.4516700000000  0.4556130000000  0.5270630000000 1.0
C      1  0.4421810000000  0.4998050000000  0.5704580000000 1.0
C      1  0.5680750000000  0.4951570000000  0.5440770000000 1.0
C      1  0.5235740000000  0.4326490000000  0.4754800000000 1.0
C      1  0.5151100000000  0.4759360000000  0.5100780000000 1.0
C      1  0.5005810000000  0.5003420000000  0.4782110000000 1.0
C      1  0.4987090000000  0.5004800000000  0.5712200000000 1.0
C      1  0.5460620000000  0.5492680000000  0.5430330000000 1.0
C      1  0.4723690000000  0.4867860000000  0.5623860000000 1.0
C      1  0.5094290000000  0.5339020000000  0.4277820000000 1.0
C      1  0.5086570000000  0.5271710000000  0.5644100000000 1.0
C      1  0.5497970000000  0.5215290000000  0.5007470000000 1.0
END
