TITL C-884131-4643-25 4189227.35455891 125000 -12073.829476195 0 0 82 (C1) n - 1
REM
REM in /home/nfs/bkarasulu/CARBON/AIRSS/Generating-Clusters/ReaxFF-fromJPCA2015/Units_Real/with-SteepDescent/Only-C1/SD-CG/Try1-3A/FIRE-CG
REM
REM
REM
REM
REM
REM ./C.cell (11c1c37f851c82e70ff6c80c92926a4b)
REM
REM compiler GCC version 9.2.1 20190827 (Red Hat 9.2.1-1)
REM options -cpp -mtune=generic -march=x86-64 -g -O0 -fpre-include=/usr/include/finclude/math-vector-fortran.h
REM seed -542135265 -1892296301 392527460 686656920 2012308858 1596163294 -881144759 -1014364258 613185616 772114171 -737977990 1508439708 -1336773960 323072899 -42275003 1723593292 -1534058359 608030996 1721470577 1969567221 2015669562 941074106 -1122937957 318665171 -1745040894 1565372382 -1773344400 -1904442837 1232795369 1685287560 -1117665327 527894391 -392364450
REM
CELL 1.54180   50.00000   50.00000   50.00000   90.00000   90.00000   90.00000
LATT -1
SFAC C  
C      1  0.4531740000000  0.5157790000000  0.5663180000000 1.0
C      1  0.5748210000000  0.5264630000000  0.5261250000000 1.0
C      1  0.5390570000000  0.5442390000000  0.4796680000000 1.0
C      1  0.4366400000000  0.4528980000000  0.4938480000000 1.0
C      1  0.4801790000000  0.4555600000000  0.4466280000000 1.0
C      1  0.5352070000000  0.5307470000000  0.5642990000000 1.0
C      1  0.5338980000000  0.4966810000000  0.5131000000000 1.0
C      1  0.5068490000000  0.4618300000000  0.4318600000000 1.0
C      1  0.5234950000000  0.5230370000000  0.4995660000000 1.0
C      1  0.5469060000000  0.4255890000000  0.5332010000000 1.0
C      1  0.5056740000000  0.5814980000000  0.5010160000000 1.0
C      1  0.5506130000000  0.5384980000000  0.5391950000000 1.0
C      1  0.5020030000000  0.4743370000000  0.4072700000000 1.0
C      1  0.4915940000000  0.4305370000000  0.4560430000000 1.0
C      1  0.4371770000000  0.5596110000000  0.4800630000000 1.0
C      1  0.4682220000000  0.4805200000000  0.5228290000000 1.0
C      1  0.4573660000000  0.5508800000000  0.5260710000000 1.0
C      1  0.5083880000000  0.5567360000000  0.4546200000000 1.0
C      1  0.4772880000000  0.5855110000000  0.4952250000000 1.0
C      1  0.5447360000000  0.4489860000000  0.5518370000000 1.0
C      1  0.4839330000000  0.4700620000000  0.5016360000000 1.0
C      1  0.4945790000000  0.4421650000000  0.5028820000000 1.0
C      1  0.5789600000000  0.5026830000000  0.5068970000000 1.0
C      1  0.4400780000000  0.4651160000000  0.5518870000000 1.0
C      1  0.5401940000000  0.5025050000000  0.5667060000000 1.0
C      1  0.5700430000000  0.4546230000000  0.4934170000000 1.0
C      1  0.4255660000000  0.5233390000000  0.5221830000000 1.0
C      1  0.4996150000000  0.5599840000000  0.5524920000000 1.0
C      1  0.4628140000000  0.5730360000000  0.4722700000000 1.0
C      1  0.4845400000000  0.5126100000000  0.5638560000000 1.0
C      1  0.5278880000000  0.5390050000000  0.5218000000000 1.0
C      1  0.4440580000000  0.4895100000000  0.5649750000000 1.0
C      1  0.4459170000000  0.5228240000000  0.4373010000000 1.0
C      1  0.4943490000000  0.5189340000000  0.4935740000000 1.0
C      1  0.5202210000000  0.5312780000000  0.4371660000000 1.0
C      1  0.5679880000000  0.5397890000000  0.4771220000000 1.0
C      1  0.5274570000000  0.4467460000000  0.4933220000000 1.0
C      1  0.5068990000000  0.5371400000000  0.5685170000000 1.0
C      1  0.4669020000000  0.5425820000000  0.4332050000000 1.0
C      1  0.4253600000000  0.4973420000000  0.5089060000000 1.0
C      1  0.5209890000000  0.5670770000000  0.4782180000000 1.0
C      1  0.4802320000000  0.4234350000000  0.4823740000000 1.0
C      1  0.4798550000000  0.5615770000000  0.4510260000000 1.0
C      1  0.4991100000000  0.5807210000000  0.5304040000000 1.0
C      1  0.4917190000000  0.5279660000000  0.4341840000000 1.0
C      1  0.5052470000000  0.5198200000000  0.4135750000000 1.0
C      1  0.5190570000000  0.4571560000000  0.5642790000000 1.0
C      1  0.5614050000000  0.4933980000000  0.4590000000000 1.0
C      1  0.5738790000000  0.5444300000000  0.5046070000000 1.0
C      1  0.5192440000000  0.4210530000000  0.5340320000000 1.0
C      1  0.5354930000000  0.5055470000000  0.4511910000000 1.0
C      1  0.4379530000000  0.4721860000000  0.5194560000000 1.0
C      1  0.4553490000000  0.4337350000000  0.4882850000000 1.0
C      1  0.5618140000000  0.4641470000000  0.4665190000000 1.0
C      1  0.4415110000000  0.5325110000000  0.5452190000000 1.0
C      1  0.5767440000000  0.4744240000000  0.5148190000000 1.0
C      1  0.5025130000000  0.5413460000000  0.5297380000000 1.0
C      1  0.4810190000000  0.5037960000000  0.5367450000000 1.0
C      1  0.5186710000000  0.4379710000000  0.4456240000000 1.0
C      1  0.4714590000000  0.5056830000000  0.4634100000000 1.0
C      1  0.5398450000000  0.4447530000000  0.4646870000000 1.0
C      1  0.5518140000000  0.4344260000000  0.5051030000000 1.0
C      1  0.4634660000000  0.4974330000000  0.4349210000000 1.0
C      1  0.4901850000000  0.4934700000000  0.4809970000000 1.0
C      1  0.4819120000000  0.5265550000000  0.5184630000000 1.0
C      1  0.4916890000000  0.4450800000000  0.5567330000000 1.0
C      1  0.4709270000000  0.5783800000000  0.5233320000000 1.0
C      1  0.4958980000000  0.4907850000000  0.5715080000000 1.0
C      1  0.4329860000000  0.5488480000000  0.5073620000000 1.0
C      1  0.5296480000000  0.4781790000000  0.4936750000000 1.0
C      1  0.4869390000000  0.4975220000000  0.4106330000000 1.0
C      1  0.4277630000000  0.4965710000000  0.4797770000000 1.0
C      1  0.4442990000000  0.5165920000000  0.4658090000000 1.0
C      1  0.4655230000000  0.4558710000000  0.5602490000000 1.0
C      1  0.4561090000000  0.4710010000000  0.4479550000000 1.0
C      1  0.4366110000000  0.4703800000000  0.4699610000000 1.0
C      1  0.5209180000000  0.4826610000000  0.5785100000000 1.0
C      1  0.5200820000000  0.4902280000000  0.4682540000000 1.0
C      1  0.5474610000000  0.4932890000000  0.5394950000000 1.0
C      1  0.5753890000000  0.5106700000000  0.4789260000000 1.0
C      1  0.5635980000000  0.4690320000000  0.5407480000000 1.0
C      1  0.4930260000000  0.4290870000000  0.5313020000000 1.0
END
