TITL C-884136-4169-381 -2.93005142823867 125000 -23898.5894856393 0 0 160 (C1) n - 1
REM
REM in /home/nfs/bkarasulu/CARBON/AIRSS/Generating-Clusters/ReaxFF-fromJPCA2015/Units_Real/with-SteepDescent/Only-C1/SD-CG/Try1-3A/FIRE-CG
REM
REM
REM
REM
REM
REM ./C.cell (11c1c37f851c82e70ff6c80c92926a4b)
REM
REM compiler GCC version 9.2.1 20190827 (Red Hat 9.2.1-1)
REM options -cpp -mtune=generic -march=x86-64 -g -O0 -fpre-include=/usr/include/finclude/math-vector-fortran.h
REM seed -704427680 -72995105 -1118452304 -1384768449 -695808178 -818766201 -1976780434 -443869028 -2054041449 -645546006 -1644906305 -857109311 -426209593 -1596281972 -309499689 -1315991576 1094333829 323034967 -1105703835 -1929038743 -1827701099 1714093906 -1390627339 -1505613480 -1231611977 380431942 -490104583 -1266337975 1417454794 1742482107 -1798316716 239303679 1961368336
REM
CELL 1.54180   50.00000   50.00000   50.00000   90.00000   90.00000   90.00000
LATT -1
SFAC C  
C      1  0.5897560000000  0.4743120000000  0.5107300000000 1.0
C      1  0.4796440000000  0.4046110000000  0.4613500000000 1.0
C      1  0.4126360000000  0.4539160000000  0.5215500000000 1.0
C      1  0.4357280000000  0.5199330000000  0.5533830000000 1.0
C      1  0.4640620000000  0.5856540000000  0.4632140000000 1.0
C      1  0.4831400000000  0.5655160000000  0.4707500000000 1.0
C      1  0.5803350000000  0.5547960000000  0.4521240000000 1.0
C      1  0.4955340000000  0.5093590000000  0.5597450000000 1.0
C      1  0.4459930000000  0.5143760000000  0.5256700000000 1.0
C      1  0.4598920000000  0.4023380000000  0.4822240000000 1.0
C      1  0.5961680000000  0.4559020000000  0.4492450000000 1.0
C      1  0.5486480000000  0.4039480000000  0.5069350000000 1.0
C      1  0.4467220000000  0.4793810000000  0.5865390000000 1.0
C      1  0.4141900000000  0.4710870000000  0.5486170000000 1.0
C      1  0.5208750000000  0.5496750000000  0.4006660000000 1.0
C      1  0.5365400000000  0.5489640000000  0.5747860000000 1.0
C      1  0.5801070000000  0.5542810000000  0.5494440000000 1.0
C      1  0.5425680000000  0.5385370000000  0.4508220000000 1.0
C      1  0.6000070000000  0.5121590000000  0.4825230000000 1.0
C      1  0.5373890000000  0.5897210000000  0.4478750000000 1.0
C      1  0.4975300000000  0.5171420000000  0.4067100000000 1.0
C      1  0.5787330000000  0.5778630000000  0.4681800000000 1.0
C      1  0.4456910000000  0.5425710000000  0.4865180000000 1.0
C      1  0.4932130000000  0.6017410000000  0.5167450000000 1.0
C      1  0.5803270000000  0.5364030000000  0.5738060000000 1.0
C      1  0.4498010000000  0.5149740000000  0.4318330000000 1.0
C      1  0.5496200000000  0.5222150000000  0.5284290000000 1.0
C      1  0.4005120000000  0.4968050000000  0.4936530000000 1.0
C      1  0.5356590000000  0.4452070000000  0.4685510000000 1.0
C      1  0.4662130000000  0.4979580000000  0.5986110000000 1.0
C      1  0.5653860000000  0.5744330000000  0.5097150000000 1.0
C      1  0.5321300000000  0.4785650000000  0.4633360000000 1.0
C      1  0.4963140000000  0.5345190000000  0.6000640000000 1.0
C      1  0.4879960000000  0.5250590000000  0.4994790000000 1.0
C      1  0.5168230000000  0.4302960000000  0.4865920000000 1.0
C      1  0.4755490000000  0.5598130000000  0.4252650000000 1.0
C      1  0.4677600000000  0.5263820000000  0.5919870000000 1.0
C      1  0.5045160000000  0.5638150000000  0.4192760000000 1.0
C      1  0.4283830000000  0.5683130000000  0.5380320000000 1.0
C      1  0.5370420000000  0.5919490000000  0.5409830000000 1.0
C      1  0.5449930000000  0.4712210000000  0.5235390000000 1.0
C      1  0.5331160000000  0.6004380000000  0.4901660000000 1.0
C      1  0.4045370000000  0.4556280000000  0.4728030000000 1.0
C      1  0.4243230000000  0.4297610000000  0.4385410000000 1.0
C      1  0.5817570000000  0.4373930000000  0.5388040000000 1.0
C      1  0.4617680000000  0.4960130000000  0.4763160000000 1.0
C      1  0.4991490000000  0.4698800000000  0.4994090000000 1.0
C      1  0.5087450000000  0.3968710000000  0.4649470000000 1.0
C      1  0.5381020000000  0.5724330000000  0.4959190000000 1.0
C      1  0.5566200000000  0.5358650000000  0.5913180000000 1.0
C      1  0.5879810000000  0.5131800000000  0.5566410000000 1.0
C      1  0.4679710000000  0.4357980000000  0.5271920000000 1.0
C      1  0.4173420000000  0.4309000000000  0.4660270000000 1.0
C      1  0.5108500000000  0.4952070000000  0.5406660000000 1.0
C      1  0.5630540000000  0.5765660000000  0.5380160000000 1.0
C      1  0.3935760000000  0.5264610000000  0.4539180000000 1.0
C      1  0.5081560000000  0.4452690000000  0.5058330000000 1.0
C      1  0.5584590000000  0.5292500000000  0.5015900000000 1.0
C      1  0.4688280000000  0.5041680000000  0.5085550000000 1.0
C      1  0.5941770000000  0.4630040000000  0.5365790000000 1.0
C      1  0.4905170000000  0.4628100000000  0.5692430000000 1.0
C      1  0.4764480000000  0.4580480000000  0.4824030000000 1.0
C      1  0.4509950000000  0.5406610000000  0.5150740000000 1.0
C      1  0.5126210000000  0.4871580000000  0.4812250000000 1.0
C      1  0.4283160000000  0.4894400000000  0.5646310000000 1.0
C      1  0.5521710000000  0.4529070000000  0.4244040000000 1.0
C      1  0.4927260000000  0.5322830000000  0.5429050000000 1.0
C      1  0.6081180000000  0.4859750000000  0.4916420000000 1.0
C      1  0.4338320000000  0.5690540000000  0.4879460000000 1.0
C      1  0.4523380000000  0.5922950000000  0.4889840000000 1.0
C      1  0.5051460000000  0.4918840000000  0.3933380000000 1.0
C      1  0.3848710000000  0.5198730000000  0.4802440000000 1.0
C      1  0.4551960000000  0.4577720000000  0.5415890000000 1.0
C      1  0.5291740000000  0.4354940000000  0.4369630000000 1.0
C      1  0.4303300000000  0.4517390000000  0.4214390000000 1.0
C      1  0.4259130000000  0.5564370000000  0.4446550000000 1.0
C      1  0.5889010000000  0.5334830000000  0.5011810000000 1.0
C      1  0.5284930000000  0.4892520000000  0.4363320000000 1.0
C      1  0.5911550000000  0.5321430000000  0.5341430000000 1.0
C      1  0.4120200000000  0.5630250000000  0.4694580000000 1.0
C      1  0.4712540000000  0.5503680000000  0.5346920000000 1.0
C      1  0.4523020000000  0.5705470000000  0.4400660000000 1.0
C      1  0.4844240000000  0.4660690000000  0.4332090000000 1.0
C      1  0.5602250000000  0.4450600000000  0.4841540000000 1.0
C      1  0.4584930000000  0.4485380000000  0.5019800000000 1.0
C      1  0.4970790000000  0.3963020000000  0.5168890000000 1.0
C      1  0.5515610000000  0.4847900000000  0.4194810000000 1.0
C      1  0.5199580000000  0.4027960000000  0.4967340000000 1.0
C      1  0.4501330000000  0.5851930000000  0.5397870000000 1.0
C      1  0.5351370000000  0.5261700000000  0.3917720000000 1.0
C      1  0.5545100000000  0.5996480000000  0.4695690000000 1.0
C      1  0.5400810000000  0.5428450000000  0.5467080000000 1.0
C      1  0.5865480000000  0.5643780000000  0.4922700000000 1.0
C      1  0.4833800000000  0.5462910000000  0.4498640000000 1.0
C      1  0.5687930000000  0.4169450000000  0.5231910000000 1.0
C      1  0.5394930000000  0.4443390000000  0.5684790000000 1.0
C      1  0.5840950000000  0.4988970000000  0.4593610000000 1.0
C      1  0.5682020000000  0.5337820000000  0.4357120000000 1.0
C      1  0.4446740000000  0.5172020000000  0.4660100000000 1.0
C      1  0.4816090000000  0.4794010000000  0.4073330000000 1.0
C      1  0.4941970000000  0.5750780000000  0.5700930000000 1.0
C      1  0.5160680000000  0.5459560000000  0.5321500000000 1.0
C      1  0.4532280000000  0.5375990000000  0.5704870000000 1.0
C      1  0.4150000000000  0.5444700000000  0.5411910000000 1.0
C      1  0.4648820000000  0.5651310000000  0.5594620000000 1.0
C      1  0.5627640000000  0.4706060000000  0.4998790000000 1.0
C      1  0.4694430000000  0.4740310000000  0.4596280000000 1.0
C      1  0.4494520000000  0.4310440000000  0.4278060000000 1.0
C      1  0.4882480000000  0.4856170000000  0.5240960000000 1.0
C      1  0.4405390000000  0.4652040000000  0.5175610000000 1.0
C      1  0.4197610000000  0.4991620000000  0.4723960000000 1.0
C      1  0.4699750000000  0.5064770000000  0.4124510000000 1.0
C      1  0.4692350000000  0.3958900000000  0.5087160000000 1.0
C      1  0.5725270000000  0.5051270000000  0.4328920000000 1.0
C      1  0.5266060000000  0.5626360000000  0.4401770000000 1.0
C      1  0.4896040000000  0.5534520000000  0.4960860000000 1.0
C      1  0.4759280000000  0.4242460000000  0.4393250000000 1.0
C      1  0.5548150000000  0.4888040000000  0.5855630000000 1.0
C      1  0.5766610000000  0.4581870000000  0.5585320000000 1.0
C      1  0.6076590000000  0.4757280000000  0.4637900000000 1.0
C      1  0.4952860000000  0.4138170000000  0.5706770000000 1.0
C      1  0.5342440000000  0.4498290000000  0.5398460000000 1.0
C      1  0.3938720000000  0.5471010000000  0.4899240000000 1.0
C      1  0.4116530000000  0.5319250000000  0.4327780000000 1.0
C      1  0.5384410000000  0.4963130000000  0.5325880000000 1.0
C      1  0.4946490000000  0.4930340000000  0.6045780000000 1.0
C      1  0.5211850000000  0.6055010000000  0.5179240000000 1.0
C      1  0.5461190000000  0.5222150000000  0.4762240000000 1.0
C      1  0.4263450000000  0.4242510000000  0.5131780000000 1.0
C      1  0.4495180000000  0.4121680000000  0.5252820000000 1.0
C      1  0.5085660000000  0.4381350000000  0.5321690000000 1.0
C      1  0.4247120000000  0.5058500000000  0.4220570000000 1.0
C      1  0.5150050000000  0.5590620000000  0.5078000000000 1.0
C      1  0.4201660000000  0.4774830000000  0.4289560000000 1.0
C      1  0.3990350000000  0.4681210000000  0.4979530000000 1.0
C      1  0.4757560000000  0.4760090000000  0.5490930000000 1.0
C      1  0.5040660000000  0.5132760000000  0.4794370000000 1.0
C      1  0.4986610000000  0.4409130000000  0.4321360000000 1.0
C      1  0.4323290000000  0.4163990000000  0.4864030000000 1.0
C      1  0.5433750000000  0.5114570000000  0.6000330000000 1.0
C      1  0.5757330000000  0.4867160000000  0.5644220000000 1.0
C      1  0.5559000000000  0.4942590000000  0.4754230000000 1.0
C      1  0.5146850000000  0.5137870000000  0.6082030000000 1.0
C      1  0.5346900000000  0.4685570000000  0.5845640000000 1.0
C      1  0.5023600000000  0.4102170000000  0.5416240000000 1.0
C      1  0.4531010000000  0.4499340000000  0.5885310000000 1.0
C      1  0.5758030000000  0.4495230000000  0.4359490000000 1.0
C      1  0.5144800000000  0.5855170000000  0.5549560000000 1.0
C      1  0.5226640000000  0.4202070000000  0.5781430000000 1.0
C      1  0.5341580000000  0.4962360000000  0.3963020000000 1.0
C      1  0.5115430000000  0.5113440000000  0.4321410000000 1.0
C      1  0.4791440000000  0.4385630000000  0.5807640000000 1.0
C      1  0.5098400000000  0.5567820000000  0.5861560000000 1.0
C      1  0.5268960000000  0.4052070000000  0.4442220000000 1.0
C      1  0.5009430000000  0.5243580000000  0.4537210000000 1.0
C      1  0.4122230000000  0.4771230000000  0.4557900000000 1.0
C      1  0.5672050000000  0.4205470000000  0.4954190000000 1.0
C      1  0.4655270000000  0.5970300000000  0.5151130000000 1.0
C      1  0.5078130000000  0.4794780000000  0.5825470000000 1.0
C      1  0.4018520000000  0.5462290000000  0.5169010000000 1.0
END
