TITL C-884131-4643-300 10.6187257305334 125000 -9188.17876192566 0 0 62 (C1) n - 1
REM
REM in /home/nfs/bkarasulu/CARBON/AIRSS/Generating-Clusters/ReaxFF-fromJPCA2015/Units_Real/with-SteepDescent/Only-C1/SD-CG/Try1-3A/FIRE-CG
REM
REM
REM
REM
REM
REM ./C.cell (11c1c37f851c82e70ff6c80c92926a4b)
REM
REM compiler GCC version 9.2.1 20190827 (Red Hat 9.2.1-1)
REM options -cpp -mtune=generic -march=x86-64 -g -O0 -fpre-include=/usr/include/finclude/math-vector-fortran.h
REM seed 1880430391 832900027 436135213 -759627673 1122132861 -2123822002 -1625804805 1343822322 1792463401 845367705 -2715692 -301164313 1429982335 1805003373 -10775161 -404440099 -1731450529 -1044721189 -1428080467 1246194968 -2108380985 510763808 256806734 472479672 13539554 768331203 -230316305 1024528837 -1958778104 -1207714532 136803441 414268294 -1428531894
REM
CELL 1.54180   50.00000   50.00000   50.00000   90.00000   90.00000   90.00000
LATT -1
SFAC C  
C      1  0.4854940000000  0.4675290000000  0.4250720000000 1.0
C      1  0.5214490000000  0.5031110000000  0.5684450000000 1.0
C      1  0.5208080000000  0.4558830000000  0.5587330000000 1.0
C      1  0.4596080000000  0.4811700000000  0.4320050000000 1.0
C      1  0.5406600000000  0.4467830000000  0.5146660000000 1.0
C      1  0.4345190000000  0.4846050000000  0.5456780000000 1.0
C      1  0.5018790000000  0.5684280000000  0.5131250000000 1.0
C      1  0.4719810000000  0.4752330000000  0.4926360000000 1.0
C      1  0.5222540000000  0.4379410000000  0.5353130000000 1.0
C      1  0.5029650000000  0.5483090000000  0.5552970000000 1.0
C      1  0.4433060000000  0.5244960000000  0.4482330000000 1.0
C      1  0.5432340000000  0.5530840000000  0.5199330000000 1.0
C      1  0.5667960000000  0.5105940000000  0.5305110000000 1.0
C      1  0.4809510000000  0.5387740000000  0.5357250000000 1.0
C      1  0.5378770000000  0.4799410000000  0.5619080000000 1.0
C      1  0.4984040000000  0.5350710000000  0.5132890000000 1.0
C      1  0.4937970000000  0.4617660000000  0.5673830000000 1.0
C      1  0.5495680000000  0.5343190000000  0.5395860000000 1.0
C      1  0.4968420000000  0.4870860000000  0.4855130000000 1.0
C      1  0.5433210000000  0.5333200000000  0.4723730000000 1.0
C      1  0.5521480000000  0.4733460000000  0.5177990000000 1.0
C      1  0.4512170000000  0.5030260000000  0.5347740000000 1.0
C      1  0.4775340000000  0.5619410000000  0.4707320000000 1.0
C      1  0.4607500000000  0.4533380000000  0.5060030000000 1.0
C      1  0.5268200000000  0.4692280000000  0.4514690000000 1.0
C      1  0.4957210000000  0.4920250000000  0.4157140000000 1.0
C      1  0.5644860000000  0.4971790000000  0.4745660000000 1.0
C      1  0.4821060000000  0.4959630000000  0.5409030000000 1.0
C      1  0.5347450000000  0.5207550000000  0.4472530000000 1.0
C      1  0.4747070000000  0.5672100000000  0.4998370000000 1.0
C      1  0.5045140000000  0.5748760000000  0.5445330000000 1.0
C      1  0.5027990000000  0.4539330000000  0.4455810000000 1.0
C      1  0.4468960000000  0.4659990000000  0.5525090000000 1.0
C      1  0.5267500000000  0.4454530000000  0.4885820000000 1.0
C      1  0.4735450000000  0.4384720000000  0.5274010000000 1.0
C      1  0.4897120000000  0.5184830000000  0.4227260000000 1.0
C      1  0.5057160000000  0.4948350000000  0.5274460000000 1.0
C      1  0.5307060000000  0.5690680000000  0.5009750000000 1.0
C      1  0.5266950000000  0.5296390000000  0.5581970000000 1.0
C      1  0.4434080000000  0.5250990000000  0.5151340000000 1.0
C      1  0.4537450000000  0.5505540000000  0.4576900000000 1.0
C      1  0.5600220000000  0.4851530000000  0.5433330000000 1.0
C      1  0.5441830000000  0.4929610000000  0.4523760000000 1.0
C      1  0.4437030000000  0.4738070000000  0.4581040000000 1.0
C      1  0.5208210000000  0.4719660000000  0.4772200000000 1.0
C      1  0.5094080000000  0.5332380000000  0.4401670000000 1.0
C      1  0.4625410000000  0.4526780000000  0.4773250000000 1.0
C      1  0.4700650000000  0.4493510000000  0.5547410000000 1.0
C      1  0.4612810000000  0.5102050000000  0.4292730000000 1.0
C      1  0.5009770000000  0.5160610000000  0.4911410000000 1.0
C      1  0.4992570000000  0.4278300000000  0.5200130000000 1.0
C      1  0.5040340000000  0.4274950000000  0.4904940000000 1.0
C      1  0.4940570000000  0.4912730000000  0.5676030000000 1.0
C      1  0.5298480000000  0.4951000000000  0.5123960000000 1.0
C      1  0.5722990000000  0.5063970000000  0.5010970000000 1.0
C      1  0.4341250000000  0.5032320000000  0.4672540000000 1.0
C      1  0.5045760000000  0.5553560000000  0.4583810000000 1.0
C      1  0.4387030000000  0.5140170000000  0.4908680000000 1.0
C      1  0.4597960000000  0.5503960000000  0.5190220000000 1.0
C      1  0.5298160000000  0.5163530000000  0.4927600000000 1.0
C      1  0.4907800000000  0.4400410000000  0.4680100000000 1.0
C      1  0.5292770000000  0.5592240000000  0.4731770000000 1.0
END
