TITL C-883741-3679-272 5.39923228384047 125000 -12594.187150197 0 0 85 (C1) n - 1
REM
REM in /home/nfs/bkarasulu/CARBON/AIRSS/Generating-Clusters/ReaxFF-fromJPCA2015/Units_Real/with-SteepDescent/Only-C1/SD-CG/Try1-3A/FIRE-CG
REM
REM
REM
REM
REM
REM ./C.cell (11c1c37f851c82e70ff6c80c92926a4b)
REM
REM compiler GCC version 9.2.1 20190827 (Red Hat 9.2.1-1)
REM options -cpp -mtune=generic -march=x86-64 -g -O0 -fpre-include=/usr/include/finclude/math-vector-fortran.h
REM seed 1549562054 1903905502 -109019611 16397831 1332453764 -1210538928 -546770303 -141668452 1600730952 -1136630202 -573760964 -1433388798 2046889237 -1897756720 -1293350280 1648660069 -1294831793 -1278854374 66863984 -2065298286 1646805668 2013292074 220442421 1584693986 1845742192 1698080797 -408702889 1886934530 -2053585635 840052510 -1329002490 -1676853403 -515749173
REM
CELL 1.54180   50.00000   50.00000   50.00000   90.00000   90.00000   90.00000
LATT -1
SFAC C  
C      1  0.4601030000000  0.5228120000000  0.4222660000000 1.0
C      1  0.5040600000000  0.5367850000000  0.5781300000000 1.0
C      1  0.4964160000000  0.5097700000000  0.5378440000000 1.0
C      1  0.5816350000000  0.5040460000000  0.5172410000000 1.0
C      1  0.5698280000000  0.5313770000000  0.5556320000000 1.0
C      1  0.4189900000000  0.5348430000000  0.5617740000000 1.0
C      1  0.4411220000000  0.4479240000000  0.5221270000000 1.0
C      1  0.4796710000000  0.5527410000000  0.5196690000000 1.0
C      1  0.5057470000000  0.4438420000000  0.4526130000000 1.0
C      1  0.4614210000000  0.5582710000000  0.4683050000000 1.0
C      1  0.5308310000000  0.5746110000000  0.5097200000000 1.0
C      1  0.4840380000000  0.4635240000000  0.5546790000000 1.0
C      1  0.5016600000000  0.5170990000000  0.4244340000000 1.0
C      1  0.4440150000000  0.5144650000000  0.4734250000000 1.0
C      1  0.5329670000000  0.5340920000000  0.5758420000000 1.0
C      1  0.5850290000000  0.5016420000000  0.4739310000000 1.0
C      1  0.4302140000000  0.5434290000000  0.5096800000000 1.0
C      1  0.5457780000000  0.4576670000000  0.4797590000000 1.0
C      1  0.5073380000000  0.4621590000000  0.4268160000000 1.0
C      1  0.5404670000000  0.4587300000000  0.5349390000000 1.0
C      1  0.4768760000000  0.4800370000000  0.5036460000000 1.0
C      1  0.5339320000000  0.5495520000000  0.4458370000000 1.0
C      1  0.5400940000000  0.5652920000000  0.5339430000000 1.0
C      1  0.4289380000000  0.4474220000000  0.4971660000000 1.0
C      1  0.5570590000000  0.5519070000000  0.4665800000000 1.0
C      1  0.5743850000000  0.5305370000000  0.4786440000000 1.0
C      1  0.5355600000000  0.5261380000000  0.5113240000000 1.0
C      1  0.4585260000000  0.4767060000000  0.5607950000000 1.0
C      1  0.5013890000000  0.5617680000000  0.4995110000000 1.0
C      1  0.4634460000000  0.5031270000000  0.5738290000000 1.0
C      1  0.4919830000000  0.4886680000000  0.4193310000000 1.0
C      1  0.5150600000000  0.4104640000000  0.5133310000000 1.0
C      1  0.4790150000000  0.4462510000000  0.4632380000000 1.0
C      1  0.4133820000000  0.4641700000000  0.4638040000000 1.0
C      1  0.5498680000000  0.5519460000000  0.5581630000000 1.0
C      1  0.4296160000000  0.4415450000000  0.4689520000000 1.0
C      1  0.4761500000000  0.4534870000000  0.4923830000000 1.0
C      1  0.5577210000000  0.4700390000000  0.5511240000000 1.0
C      1  0.4929770000000  0.4793560000000  0.5285010000000 1.0
C      1  0.4182340000000  0.5045870000000  0.4682200000000 1.0
C      1  0.5834690000000  0.4824290000000  0.4978820000000 1.0
C      1  0.5050440000000  0.5170560000000  0.4744400000000 1.0
C      1  0.4361560000000  0.4989190000000  0.5238780000000 1.0
C      1  0.4879890000000  0.5689900000000  0.4717440000000 1.0
C      1  0.4401130000000  0.4741280000000  0.5384970000000 1.0
C      1  0.4644570000000  0.4920720000000  0.4214990000000 1.0
C      1  0.5276740000000  0.4155760000000  0.4889070000000 1.0
C      1  0.5688370000000  0.4570490000000  0.4974750000000 1.0
C      1  0.4783080000000  0.5676890000000  0.5457510000000 1.0
C      1  0.4903890000000  0.5636050000000  0.5720300000000 1.0
C      1  0.4193520000000  0.4849840000000  0.4458080000000 1.0
C      1  0.4527260000000  0.4503250000000  0.4505330000000 1.0
C      1  0.4215830000000  0.5327380000000  0.4714140000000 1.0
C      1  0.5673210000000  0.4906930000000  0.5663390000000 1.0
C      1  0.5829450000000  0.5078350000000  0.5475460000000 1.0
C      1  0.5404930000000  0.5008730000000  0.4440740000000 1.0
C      1  0.5301750000000  0.5249460000000  0.4310240000000 1.0
C      1  0.5303460000000  0.4786550000000  0.4889730000000 1.0
C      1  0.5453460000000  0.5072190000000  0.5846760000000 1.0
C      1  0.4407220000000  0.5199070000000  0.5697730000000 1.0
C      1  0.5143120000000  0.5354760000000  0.4932490000000 1.0
C      1  0.4878600000000  0.4376890000000  0.5457850000000 1.0
C      1  0.5097340000000  0.5653100000000  0.4523550000000 1.0
C      1  0.5333570000000  0.4944900000000  0.6036270000000 1.0
C      1  0.5240540000000  0.4798500000000  0.5172410000000 1.0
C      1  0.5460350000000  0.5655160000000  0.4878380000000 1.0
C      1  0.4658730000000  0.4332830000000  0.5118080000000 1.0
C      1  0.4617530000000  0.5312640000000  0.4543100000000 1.0
C      1  0.4254120000000  0.5253480000000  0.5302500000000 1.0
C      1  0.4796230000000  0.5359320000000  0.4068580000000 1.0
C      1  0.4898280000000  0.5138970000000  0.5679930000000 1.0
C      1  0.5231310000000  0.4959250000000  0.4690150000000 1.0
C      1  0.5244020000000  0.5063500000000  0.5284530000000 1.0
C      1  0.5285310000000  0.4504900000000  0.4185340000000 1.0
C      1  0.4764800000000  0.5243800000000  0.5189830000000 1.0
C      1  0.4887080000000  0.5219880000000  0.4524960000000 1.0
C      1  0.5647870000000  0.5254550000000  0.5056660000000 1.0
C      1  0.4892170000000  0.4190940000000  0.5257090000000 1.0
C      1  0.4454000000000  0.4739150000000  0.4354120000000 1.0
C      1  0.4365430000000  0.5550210000000  0.4843100000000 1.0
C      1  0.5591060000000  0.4412760000000  0.5208610000000 1.0
C      1  0.5669400000000  0.4997050000000  0.4532300000000 1.0
C      1  0.5427420000000  0.4178820000000  0.5127430000000 1.0
C      1  0.4589820000000  0.5048960000000  0.5035830000000 1.0
C      1  0.5282040000000  0.4370530000000  0.4702800000000 1.0
END
