TITL C-884132-5695-423 0.911650101811589 125000 -15600.6322455683 0 0 105 (C1) n - 1
REM
REM in /home/nfs/bkarasulu/CARBON/AIRSS/Generating-Clusters/ReaxFF-fromJPCA2015/Units_Real/with-SteepDescent/Only-C1/SD-CG/Try1-3A/FIRE-CG
REM
REM
REM
REM
REM
REM ./C.cell (11c1c37f851c82e70ff6c80c92926a4b)
REM
REM compiler GCC version 9.2.1 20190827 (Red Hat 9.2.1-1)
REM options -cpp -mtune=generic -march=x86-64 -g -O0 -fpre-include=/usr/include/finclude/math-vector-fortran.h
REM seed 49646749 449308680 -399070779 -1567710053 -2018774745 402984024 495430585 228947516 -1457408105 -122072979 1317890479 -709166586 -2102875006 -1596708141 -1994903749 -363303338 199792863 -133007555 -1981162902 -767611396 -1538311706 21200279 -540130634 1847747090 537407055 2030628488 -1085307470 1546737378 -2093526356 1532068201 967515833 885960041 1182016571
REM
CELL 1.54180   50.00000   50.00000   50.00000   90.00000   90.00000   90.00000
LATT -1
SFAC C  
C      1  0.5143300000000  0.4817040000000  0.4622950000000 1.0
C      1  0.4908160000000  0.4320250000000  0.4558790000000 1.0
C      1  0.4086510000000  0.4838570000000  0.5097490000000 1.0
C      1  0.5014780000000  0.4839730000000  0.5469730000000 1.0
C      1  0.5606690000000  0.4892270000000  0.4862600000000 1.0
C      1  0.4947730000000  0.4152270000000  0.5069080000000 1.0
C      1  0.5475690000000  0.5301270000000  0.4851050000000 1.0
C      1  0.4975360000000  0.4464700000000  0.5796300000000 1.0
C      1  0.4516330000000  0.4206710000000  0.4802190000000 1.0
C      1  0.5012160000000  0.5661310000000  0.4358590000000 1.0
C      1  0.4976250000000  0.5287300000000  0.4650900000000 1.0
C      1  0.5554690000000  0.4478650000000  0.5457110000000 1.0
C      1  0.4261640000000  0.4622740000000  0.5049620000000 1.0
C      1  0.4692100000000  0.4735140000000  0.4157910000000 1.0
C      1  0.4449700000000  0.5670770000000  0.4752360000000 1.0
C      1  0.5076940000000  0.4213910000000  0.5338190000000 1.0
C      1  0.4542830000000  0.5564990000000  0.5456510000000 1.0
C      1  0.5067810000000  0.4977150000000  0.5991390000000 1.0
C      1  0.5063750000000  0.5631350000000  0.5503480000000 1.0
C      1  0.4857550000000  0.5246500000000  0.5712710000000 1.0
C      1  0.5698350000000  0.5494790000000  0.4777300000000 1.0
C      1  0.4419990000000  0.5203400000000  0.4657060000000 1.0
C      1  0.4258520000000  0.5456670000000  0.4781370000000 1.0
C      1  0.4297420000000  0.5426590000000  0.5326850000000 1.0
C      1  0.5222890000000  0.4793440000000  0.5271640000000 1.0
C      1  0.5700020000000  0.4696690000000  0.5314800000000 1.0
C      1  0.4797270000000  0.4969340000000  0.5907090000000 1.0
C      1  0.5322330000000  0.4820950000000  0.4860600000000 1.0
C      1  0.4809100000000  0.5514050000000  0.5581650000000 1.0
C      1  0.4613050000000  0.4363850000000  0.4565340000000 1.0
C      1  0.5160450000000  0.5869200000000  0.4740240000000 1.0
C      1  0.5509960000000  0.5202410000000  0.5115440000000 1.0
C      1  0.4245190000000  0.4994590000000  0.4757100000000 1.0
C      1  0.4545380000000  0.5744840000000  0.5232740000000 1.0
C      1  0.4513100000000  0.4380200000000  0.5270220000000 1.0
C      1  0.5260880000000  0.5074960000000  0.5203520000000 1.0
C      1  0.4507210000000  0.5124910000000  0.4396000000000 1.0
C      1  0.5265090000000  0.4637660000000  0.4416390000000 1.0
C      1  0.4720830000000  0.5244920000000  0.4801060000000 1.0
C      1  0.5063210000000  0.5853930000000  0.5309120000000 1.0
C      1  0.4899650000000  0.4293370000000  0.5573650000000 1.0
C      1  0.4892410000000  0.5144020000000  0.4154500000000 1.0
C      1  0.5365970000000  0.5653100000000  0.5113970000000 1.0
C      1  0.4886330000000  0.4874540000000  0.4034100000000 1.0
C      1  0.4857360000000  0.5678220000000  0.4990220000000 1.0
C      1  0.5789670000000  0.4944240000000  0.4633600000000 1.0
C      1  0.4537020000000  0.4588370000000  0.5697700000000 1.0
C      1  0.5570710000000  0.5694720000000  0.4926270000000 1.0
C      1  0.4878140000000  0.5099880000000  0.5441570000000 1.0
C      1  0.5238210000000  0.5895030000000  0.5029300000000 1.0
C      1  0.4664210000000  0.5302280000000  0.4244420000000 1.0
C      1  0.4785350000000  0.4977800000000  0.4900400000000 1.0
C      1  0.5532160000000  0.4965460000000  0.5660990000000 1.0
C      1  0.5740460000000  0.4674230000000  0.4540660000000 1.0
C      1  0.5714960000000  0.4966900000000  0.5445470000000 1.0
C      1  0.4899570000000  0.4559760000000  0.5051470000000 1.0
C      1  0.4916060000000  0.4590540000000  0.4115580000000 1.0
C      1  0.4405300000000  0.4783630000000  0.5527810000000 1.0
C      1  0.5705750000000  0.5442410000000  0.4486250000000 1.0
C      1  0.4358720000000  0.5179080000000  0.5433410000000 1.0
C      1  0.4653410000000  0.5753280000000  0.4553150000000 1.0
C      1  0.5039210000000  0.4192300000000  0.4791670000000 1.0
C      1  0.5249610000000  0.4572340000000  0.5823220000000 1.0
C      1  0.5336290000000  0.4310350000000  0.5377300000000 1.0
C      1  0.5496440000000  0.4666520000000  0.5681870000000 1.0
C      1  0.5714710000000  0.5236620000000  0.5320530000000 1.0
C      1  0.4797100000000  0.5889660000000  0.5211580000000 1.0
C      1  0.5212170000000  0.4596800000000  0.5036420000000 1.0
C      1  0.5251660000000  0.5728880000000  0.4477590000000 1.0
C      1  0.5367950000000  0.5217480000000  0.5728310000000 1.0
C      1  0.4703470000000  0.4295160000000  0.5071910000000 1.0
C      1  0.5133290000000  0.4826600000000  0.5740700000000 1.0
C      1  0.5733640000000  0.4508140000000  0.4787690000000 1.0
C      1  0.5759170000000  0.5157790000000  0.4433110000000 1.0
C      1  0.4080830000000  0.5096300000000  0.4982640000000 1.0
C      1  0.5186590000000  0.5355530000000  0.4826040000000 1.0
C      1  0.5068340000000  0.5200640000000  0.4381530000000 1.0
C      1  0.5328280000000  0.4155400000000  0.4784510000000 1.0
C      1  0.5545470000000  0.5029490000000  0.4285580000000 1.0
C      1  0.4619000000000  0.4352770000000  0.5539220000000 1.0
C      1  0.5741100000000  0.4690130000000  0.5025140000000 1.0
C      1  0.4597730000000  0.5564690000000  0.4985140000000 1.0
C      1  0.5421740000000  0.4333800000000  0.4987640000000 1.0
C      1  0.5052330000000  0.4453130000000  0.4337670000000 1.0
C      1  0.4876780000000  0.5842020000000  0.4726410000000 1.0
C      1  0.4403500000000  0.4016910000000  0.4685470000000 1.0
C      1  0.4767830000000  0.4792400000000  0.5140840000000 1.0
C      1  0.5115850000000  0.5244660000000  0.5878930000000 1.0
C      1  0.4863320000000  0.4868010000000  0.4643360000000 1.0
C      1  0.4477810000000  0.4667290000000  0.5247710000000 1.0
C      1  0.4178790000000  0.5375580000000  0.5046270000000 1.0
C      1  0.5603960000000  0.5473580000000  0.5473470000000 1.0
C      1  0.5588550000000  0.4270850000000  0.4792510000000 1.0
C      1  0.4743020000000  0.5586290000000  0.4323280000000 1.0
C      1  0.5034660000000  0.5236280000000  0.5233210000000 1.0
C      1  0.5443750000000  0.5512350000000  0.4385220000000 1.0
C      1  0.5347210000000  0.5248200000000  0.4300100000000 1.0
C      1  0.5330710000000  0.5476590000000  0.5592390000000 1.0
C      1  0.4763800000000  0.4686010000000  0.5849890000000 1.0
C      1  0.4548660000000  0.5030870000000  0.5486720000000 1.0
C      1  0.4614920000000  0.4842210000000  0.4418890000000 1.0
C      1  0.4480970000000  0.4621660000000  0.4569950000000 1.0
C      1  0.5530520000000  0.4738920000000  0.4344350000000 1.0
C      1  0.4312030000000  0.4718820000000  0.4775840000000 1.0
C      1  0.5085550000000  0.5469060000000  0.5069160000000 1.0
END
