TITL C-884138-6203-144 107.962500100991 125000 -17487.1285612034 0 0 120 (C1) n - 1
REM
REM in /home/nfs/bkarasulu/CARBON/AIRSS/Generating-Clusters/ReaxFF-fromJPCA2015/Units_Real/with-SteepDescent/Only-C1/SD-CG/Try1-3A/FIRE-CG
REM
REM
REM
REM
REM
REM ./C.cell (11c1c37f851c82e70ff6c80c92926a4b)
REM
REM compiler GCC version 9.2.1 20190827 (Red Hat 9.2.1-1)
REM options -cpp -mtune=generic -march=x86-64 -g -O0 -fpre-include=/usr/include/finclude/math-vector-fortran.h
REM seed 156891860 1574704746 501544050 7485970 -686070128 29650031 -1512540608 2138611852 1169717045 -384543766 -1070298199 -761302665 1597463725 -1384301075 1745918619 -580866106 1107565860 -1530316973 -1675380816 -1662814818 -365899254 1383464411 2112293033 247107927 1703824989 550906787 -1214343473 -1148305188 -1454797044 -774504090 907558749 763621526 1216959297
REM
CELL 1.54180   50.00000   50.00000   50.00000   90.00000   90.00000   90.00000
LATT -1
SFAC C  
C      1  0.5434340000000  0.5712350000000  0.4674640000000 1.0
C      1  0.5424120000000  0.4809880000000  0.5045030000000 1.0
C      1  0.5120110000000  0.4137340000000  0.5415590000000 1.0
C      1  0.5223320000000  0.5411350000000  0.5751270000000 1.0
C      1  0.5142020000000  0.4237240000000  0.5143180000000 1.0
C      1  0.4166980000000  0.4775800000000  0.4641760000000 1.0
C      1  0.4142470000000  0.4926080000000  0.5596460000000 1.0
C      1  0.5292410000000  0.4119950000000  0.4910900000000 1.0
C      1  0.5038570000000  0.5280840000000  0.4724990000000 1.0
C      1  0.4990980000000  0.5502920000000  0.4538890000000 1.0
C      1  0.4837930000000  0.4257970000000  0.4579120000000 1.0
C      1  0.5475850000000  0.5314550000000  0.5669730000000 1.0
C      1  0.4462960000000  0.4361980000000  0.4778410000000 1.0
C      1  0.4523010000000  0.5181120000000  0.5144860000000 1.0
C      1  0.5451920000000  0.5208930000000  0.5018000000000 1.0
C      1  0.5765500000000  0.4465590000000  0.5358610000000 1.0
C      1  0.5284030000000  0.4631020000000  0.4218180000000 1.0
C      1  0.5322380000000  0.5794770000000  0.5453060000000 1.0
C      1  0.4732990000000  0.4324290000000  0.5660130000000 1.0
C      1  0.5071170000000  0.4585010000000  0.4830060000000 1.0
C      1  0.4030780000000  0.5102920000000  0.5095360000000 1.0
C      1  0.5052110000000  0.4519630000000  0.5200260000000 1.0
C      1  0.4378310000000  0.5257440000000  0.4665070000000 1.0
C      1  0.4849000000000  0.4747680000000  0.5924000000000 1.0
C      1  0.5684550000000  0.5204060000000  0.5526500000000 1.0
C      1  0.5537220000000  0.5519050000000  0.4463160000000 1.0
C      1  0.5055110000000  0.6038160000000  0.5014570000000 1.0
C      1  0.5158940000000  0.5149660000000  0.4075430000000 1.0
C      1  0.4823470000000  0.5034370000000  0.5887980000000 1.0
C      1  0.5093630000000  0.5602990000000  0.5108930000000 1.0
C      1  0.4606950000000  0.5021980000000  0.5375850000000 1.0
C      1  0.4479180000000  0.4457930000000  0.5736680000000 1.0
C      1  0.4163830000000  0.5427780000000  0.5330160000000 1.0
C      1  0.5255820000000  0.4256080000000  0.4526280000000 1.0
C      1  0.5468100000000  0.5258410000000  0.4400090000000 1.0
C      1  0.5743950000000  0.5468060000000  0.5373360000000 1.0
C      1  0.4210190000000  0.4514550000000  0.4766890000000 1.0
C      1  0.5727880000000  0.4965610000000  0.4523660000000 1.0
C      1  0.5037270000000  0.3956480000000  0.4860290000000 1.0
C      1  0.5002310000000  0.5962700000000  0.4733510000000 1.0
C      1  0.5258090000000  0.4974190000000  0.5823240000000 1.0
C      1  0.4087340000000  0.5132720000000  0.5394310000000 1.0
C      1  0.5505950000000  0.4346850000000  0.4966870000000 1.0
C      1  0.4987320000000  0.5135470000000  0.5263210000000 1.0
C      1  0.4347250000000  0.4784780000000  0.4409580000000 1.0
C      1  0.5263340000000  0.5844500000000  0.5135510000000 1.0
C      1  0.4748610000000  0.4961860000000  0.4859180000000 1.0
C      1  0.4591950000000  0.4668820000000  0.5869700000000 1.0
C      1  0.5028280000000  0.4497470000000  0.4183670000000 1.0
C      1  0.5345320000000  0.4313320000000  0.5502580000000 1.0
C      1  0.5055900000000  0.4350810000000  0.4707450000000 1.0
C      1  0.4773680000000  0.4090480000000  0.4884840000000 1.0
C      1  0.5576100000000  0.4341650000000  0.5300510000000 1.0
C      1  0.4892350000000  0.5203740000000  0.4978790000000 1.0
C      1  0.5344040000000  0.4992430000000  0.4870380000000 1.0
C      1  0.4672970000000  0.4490770000000  0.4613530000000 1.0
C      1  0.4289280000000  0.4665050000000  0.5588170000000 1.0
C      1  0.4702470000000  0.4164700000000  0.5160460000000 1.0
C      1  0.4073670000000  0.5386660000000  0.5053790000000 1.0
C      1  0.4967300000000  0.4540290000000  0.5710130000000 1.0
C      1  0.5036150000000  0.4884170000000  0.5386250000000 1.0
C      1  0.4410430000000  0.5587100000000  0.5362010000000 1.0
C      1  0.5274700000000  0.4522090000000  0.5676360000000 1.0
C      1  0.5777020000000  0.5072850000000  0.4810600000000 1.0
C      1  0.4586160000000  0.5467820000000  0.5157200000000 1.0
C      1  0.5152880000000  0.5749720000000  0.4584670000000 1.0
C      1  0.4492400000000  0.5082040000000  0.4868670000000 1.0
C      1  0.4843010000000  0.5492780000000  0.5024810000000 1.0
C      1  0.4570470000000  0.5657920000000  0.5610660000000 1.0
C      1  0.4511270000000  0.4351940000000  0.5070520000000 1.0
C      1  0.4705540000000  0.4925620000000  0.4111210000000 1.0
C      1  0.4479610000000  0.4760760000000  0.5380460000000 1.0
C      1  0.4197500000000  0.5455280000000  0.4782400000000 1.0
C      1  0.4826730000000  0.4164930000000  0.5434420000000 1.0
C      1  0.4732540000000  0.5559820000000  0.4458020000000 1.0
C      1  0.5738770000000  0.5619290000000  0.5080370000000 1.0
C      1  0.5872970000000  0.4648930000000  0.4886480000000 1.0
C      1  0.6028840000000  0.5200540000000  0.4883410000000 1.0
C      1  0.4712260000000  0.5366280000000  0.4269790000000 1.0
C      1  0.4569050000000  0.4600170000000  0.4365820000000 1.0
C      1  0.5236990000000  0.4738310000000  0.5248640000000 1.0
C      1  0.5859290000000  0.4728720000000  0.4413240000000 1.0
C      1  0.5508330000000  0.5746740000000  0.4950700000000 1.0
C      1  0.5426350000000  0.4781140000000  0.5717800000000 1.0
C      1  0.5318360000000  0.5441300000000  0.5141560000000 1.0
C      1  0.5769820000000  0.4678320000000  0.5441130000000 1.0
C      1  0.5031350000000  0.4247470000000  0.4336640000000 1.0
C      1  0.4855680000000  0.5771010000000  0.5571240000000 1.0
C      1  0.5434870000000  0.4453920000000  0.4397940000000 1.0
C      1  0.4633370000000  0.5132690000000  0.5669920000000 1.0
C      1  0.4458960000000  0.4999260000000  0.4254030000000 1.0
C      1  0.4875670000000  0.5158490000000  0.4122030000000 1.0
C      1  0.4601920000000  0.5392630000000  0.5677480000000 1.0
C      1  0.4772890000000  0.4647180000000  0.4165750000000 1.0
C      1  0.5133200000000  0.5666880000000  0.5625900000000 1.0
C      1  0.5358790000000  0.5619870000000  0.4262650000000 1.0
C      1  0.5147440000000  0.5010220000000  0.4663170000000 1.0
C      1  0.5702560000000  0.4483140000000  0.4512550000000 1.0
C      1  0.5651560000000  0.4905930000000  0.5554780000000 1.0
C      1  0.5425150000000  0.5014230000000  0.4435690000000 1.0
C      1  0.4719500000000  0.5932710000000  0.4784180000000 1.0
C      1  0.5089310000000  0.5173660000000  0.5899450000000 1.0
C      1  0.5568850000000  0.5665830000000  0.5457600000000 1.0
C      1  0.5254660000000  0.5440010000000  0.4063230000000 1.0
C      1  0.5361040000000  0.4594610000000  0.4873910000000 1.0
C      1  0.5958130000000  0.4890040000000  0.4961840000000 1.0
C      1  0.4360980000000  0.4568720000000  0.5194070000000 1.0
C      1  0.4887840000000  0.4631990000000  0.5426620000000 1.0
C      1  0.5322860000000  0.4923640000000  0.4188880000000 1.0
C      1  0.5757360000000  0.4418100000000  0.4795960000000 1.0
C      1  0.5261580000000  0.5196200000000  0.5255430000000 1.0
C      1  0.4104830000000  0.4886460000000  0.4914480000000 1.0
C      1  0.4271830000000  0.5724910000000  0.4680110000000 1.0
C      1  0.4792500000000  0.5889550000000  0.5336560000000 1.0
C      1  0.5919160000000  0.5428710000000  0.4977110000000 1.0
C      1  0.4920090000000  0.4800430000000  0.4702230000000 1.0
C      1  0.4153400000000  0.4630000000000  0.5019150000000 1.0
C      1  0.4467960000000  0.5259270000000  0.4381050000000 1.0
C      1  0.4564730000000  0.5752670000000  0.4617010000000 1.0
C      1  0.4769700000000  0.6013900000000  0.5087360000000 1.0
END
