TITL C-884141-4321-330 -13.3180877319731 125000 -8466.90893489258 0 0 57 (C1) n - 1
REM
REM in /home/nfs/bkarasulu/CARBON/AIRSS/Generating-Clusters/ReaxFF-fromJPCA2015/Units_Real/with-SteepDescent/Only-C1/SD-CG/Try1-3A/FIRE-CG
REM
REM
REM
REM
REM
REM ./C.cell (11c1c37f851c82e70ff6c80c92926a4b)
REM
REM compiler GCC version 9.2.1 20190827 (Red Hat 9.2.1-1)
REM options -cpp -mtune=generic -march=x86-64 -g -O0 -fpre-include=/usr/include/finclude/math-vector-fortran.h
REM seed 635960152 -37766710 -1611390515 -1407500188 -957854055 1294443669 -1303300620 -2059589136 -341008675 679792769 1832604581 156824848 762754618 826970696 -228882800 1807091652 693995345 396199521 -748169738 1911215046 -1708263208 -1398194917 -580108239 -2141283504 -486193923 1012687790 233406270 -1552505787 341043921 629505401 -424713103 -1520704837 -136713755
REM
CELL 1.54180   50.00000   50.00000   50.00000   90.00000   90.00000   90.00000
LATT -1
SFAC C  
C      1  0.5634860000000  0.5466940000000  0.5055220000000 1.0
C      1  0.5366180000000  0.4527580000000  0.4658660000000 1.0
C      1  0.4384560000000  0.4997140000000  0.5012230000000 1.0
C      1  0.5497190000000  0.5712750000000  0.5053970000000 1.0
C      1  0.4808330000000  0.5676500000000  0.4846650000000 1.0
C      1  0.5129050000000  0.4872340000000  0.5059280000000 1.0
C      1  0.4275440000000  0.4937390000000  0.4733710000000 1.0
C      1  0.4343880000000  0.4980810000000  0.5319950000000 1.0
C      1  0.5277070000000  0.5384920000000  0.4523850000000 1.0
C      1  0.4612020000000  0.5233940000000  0.4486910000000 1.0
C      1  0.4825480000000  0.4529920000000  0.4830380000000 1.0
C      1  0.5078430000000  0.5658390000000  0.5302850000000 1.0
C      1  0.5843490000000  0.5077220000000  0.4643810000000 1.0
C      1  0.5007690000000  0.4689900000000  0.4399430000000 1.0
C      1  0.4527130000000  0.5609960000000  0.4942720000000 1.0
C      1  0.4972740000000  0.4943200000000  0.5274890000000 1.0
C      1  0.4825810000000  0.4321280000000  0.5041850000000 1.0
C      1  0.4514980000000  0.5554440000000  0.5239550000000 1.0
C      1  0.5143490000000  0.5175520000000  0.4442800000000 1.0
C      1  0.5462200000000  0.4766830000000  0.4579520000000 1.0
C      1  0.5352550000000  0.4671780000000  0.5075500000000 1.0
C      1  0.5218880000000  0.5648050000000  0.4612490000000 1.0
C      1  0.5002690000000  0.4212480000000  0.4614340000000 1.0
C      1  0.4629760000000  0.4917920000000  0.4956070000000 1.0
C      1  0.4962380000000  0.5438720000000  0.5444780000000 1.0
C      1  0.5593320000000  0.4728720000000  0.5237250000000 1.0
C      1  0.4498810000000  0.4521690000000  0.4479640000000 1.0
C      1  0.5669040000000  0.4934800000000  0.4764770000000 1.0
C      1  0.4798200000000  0.4929930000000  0.5503180000000 1.0
C      1  0.5253220000000  0.4294360000000  0.4765160000000 1.0
C      1  0.4869650000000  0.5329740000000  0.4453180000000 1.0
C      1  0.5047610000000  0.4364520000000  0.5246060000000 1.0
C      1  0.4879340000000  0.4820050000000  0.4882160000000 1.0
C      1  0.5269580000000  0.5771530000000  0.4876210000000 1.0
C      1  0.5241680000000  0.4705880000000  0.5601960000000 1.0
C      1  0.4669200000000  0.5381960000000  0.5416900000000 1.0
C      1  0.4396300000000  0.5429090000000  0.4768090000000 1.0
C      1  0.4380970000000  0.4724150000000  0.4600780000000 1.0
C      1  0.4882610000000  0.4121460000000  0.4848840000000 1.0
C      1  0.5189930000000  0.5263180000000  0.5537180000000 1.0
C      1  0.4835620000000  0.4472430000000  0.4527660000000 1.0
C      1  0.5266460000000  0.4392570000000  0.5053970000000 1.0
C      1  0.5657450000000  0.4962450000000  0.5076570000000 1.0
C      1  0.4505770000000  0.4531210000000  0.5526460000000 1.0
C      1  0.5184090000000  0.4990100000000  0.5629040000000 1.0
C      1  0.5372860000000  0.5639030000000  0.5321840000000 1.0
C      1  0.5529930000000  0.4683420000000  0.5528220000000 1.0
C      1  0.4379230000000  0.4724830000000  0.5430910000000 1.0
C      1  0.5025590000000  0.4513470000000  0.5491580000000 1.0
C      1  0.5022530000000  0.5756200000000  0.5025620000000 1.0
C      1  0.5433850000000  0.5366450000000  0.5404060000000 1.0
C      1  0.4560120000000  0.5106080000000  0.5468950000000 1.0
C      1  0.4351400000000  0.5209770000000  0.4593180000000 1.0
C      1  0.4927880000000  0.5596080000000  0.4595450000000 1.0
C      1  0.4766190000000  0.4624110000000  0.5570210000000 1.0
C      1  0.5223850000000  0.4872010000000  0.4426210000000 1.0
C      1  0.5621440000000  0.5232830000000  0.5197360000000 1.0
END
