TITL C-883738-3659-106 7.48330243623715 125000 -18432.413038071 0 0 123 (C1) n - 1
REM
REM in /home/nfs/bkarasulu/CARBON/AIRSS/Generating-Clusters/ReaxFF-fromJPCA2015/Units_Real/with-SteepDescent/Only-C1/SD-CG/Try1-3A/FIRE-CG
REM
REM
REM
REM
REM
REM ./C.cell (11c1c37f851c82e70ff6c80c92926a4b)
REM
REM compiler GCC version 9.2.1 20190827 (Red Hat 9.2.1-1)
REM options -cpp -mtune=generic -march=x86-64 -g -O0 -fpre-include=/usr/include/finclude/math-vector-fortran.h
REM seed -481684936 1237749414 -1390725660 497854146 -44821112 -1746414728 -984154498 1783636718 1351619959 -136270784 -1611550918 -31405751 -217972662 -139711684 -1788463455 -396414204 92032717 1530082582 -1639670482 -1223090408 -781248019 1524411978 1987770341 -52681571 -1941503666 393543469 -204457282 -1885301454 1436867862 1351632790 143299004 -522492952 -1369602377
REM
CELL 1.54180   50.00000   50.00000   50.00000   90.00000   90.00000   90.00000
LATT -1
SFAC C  
C      1  0.4743160000000  0.4712100000000  0.4550040000000 1.0
C      1  0.5251330000000  0.5544480000000  0.4303190000000 1.0
C      1  0.5007650000000  0.5294490000000  0.4688770000000 1.0
C      1  0.4513090000000  0.5518810000000  0.5470160000000 1.0
C      1  0.5509860000000  0.5777780000000  0.4734330000000 1.0
C      1  0.5839280000000  0.4967120000000  0.5367470000000 1.0
C      1  0.4546790000000  0.5543010000000  0.4737010000000 1.0
C      1  0.5517990000000  0.5690690000000  0.5406300000000 1.0
C      1  0.5397130000000  0.5160800000000  0.5873510000000 1.0
C      1  0.4394920000000  0.4980540000000  0.4298790000000 1.0
C      1  0.5394900000000  0.4237910000000  0.4765220000000 1.0
C      1  0.4693710000000  0.4814760000000  0.5301140000000 1.0
C      1  0.4859620000000  0.5074130000000  0.4091160000000 1.0
C      1  0.4229270000000  0.5034650000000  0.5417290000000 1.0
C      1  0.4947070000000  0.4308400000000  0.5516690000000 1.0
C      1  0.5040980000000  0.5589670000000  0.4135430000000 1.0
C      1  0.5738890000000  0.5253640000000  0.5234830000000 1.0
C      1  0.5206060000000  0.5203520000000  0.5414400000000 1.0
C      1  0.5075930000000  0.4030320000000  0.5232040000000 1.0
C      1  0.4760170000000  0.5466790000000  0.5273310000000 1.0
C      1  0.4674140000000  0.4874000000000  0.4252250000000 1.0
C      1  0.4328980000000  0.4381650000000  0.5135570000000 1.0
C      1  0.5347730000000  0.5654020000000  0.5639220000000 1.0
C      1  0.5749590000000  0.4305990000000  0.5140320000000 1.0
C      1  0.5009410000000  0.4815670000000  0.4644270000000 1.0
C      1  0.4712170000000  0.4913440000000  0.5858370000000 1.0
C      1  0.4675540000000  0.5828050000000  0.4619730000000 1.0
C      1  0.5656010000000  0.4162830000000  0.4901540000000 1.0
C      1  0.4887090000000  0.4156240000000  0.4653830000000 1.0
C      1  0.4655500000000  0.5445550000000  0.4313870000000 1.0
C      1  0.4474120000000  0.5010110000000  0.5270110000000 1.0
C      1  0.4765480000000  0.4676740000000  0.5059950000000 1.0
C      1  0.4112860000000  0.5214490000000  0.4746910000000 1.0
C      1  0.5090030000000  0.4551000000000  0.5425140000000 1.0
C      1  0.5576310000000  0.4527090000000  0.5583410000000 1.0
C      1  0.5557500000000  0.5256030000000  0.4311370000000 1.0
C      1  0.5063900000000  0.5713610000000  0.5650750000000 1.0
C      1  0.5137430000000  0.5125520000000  0.6014140000000 1.0
C      1  0.4497410000000  0.4688240000000  0.5822630000000 1.0
C      1  0.4654710000000  0.5036720000000  0.4840110000000 1.0
C      1  0.4707230000000  0.4212550000000  0.5373850000000 1.0
C      1  0.4941570000000  0.6141370000000  0.5359850000000 1.0
C      1  0.6077960000000  0.5224450000000  0.4520700000000 1.0
C      1  0.5067220000000  0.4766690000000  0.5615680000000 1.0
C      1  0.5407280000000  0.5772450000000  0.5145500000000 1.0
C      1  0.4318650000000  0.5384150000000  0.4601960000000 1.0
C      1  0.4960750000000  0.5658500000000  0.5174730000000 1.0
C      1  0.5018210000000  0.4847650000000  0.3996120000000 1.0
C      1  0.5048940000000  0.4254210000000  0.4423400000000 1.0
C      1  0.5222790000000  0.4369710000000  0.4960170000000 1.0
C      1  0.5917160000000  0.4549320000000  0.5033170000000 1.0
C      1  0.4446710000000  0.4362260000000  0.5391170000000 1.0
C      1  0.5144230000000  0.4666090000000  0.5882560000000 1.0
C      1  0.4176950000000  0.4748010000000  0.5427630000000 1.0
C      1  0.4302540000000  0.5503470000000  0.5272800000000 1.0
C      1  0.4652620000000  0.5214700000000  0.5919590000000 1.0
C      1  0.4527990000000  0.5458140000000  0.5068510000000 1.0
C      1  0.5324940000000  0.6029180000000  0.5015100000000 1.0
C      1  0.5699140000000  0.5615660000000  0.4847010000000 1.0
C      1  0.5276580000000  0.5367160000000  0.4764930000000 1.0
C      1  0.5631430000000  0.5427360000000  0.5440290000000 1.0
C      1  0.4927560000000  0.5250910000000  0.5480020000000 1.0
C      1  0.4912870000000  0.5055740000000  0.4753300000000 1.0
C      1  0.5341750000000  0.5055990000000  0.4256520000000 1.0
C      1  0.4957300000000  0.5889870000000  0.4579700000000 1.0
C      1  0.4856410000000  0.5358660000000  0.4103770000000 1.0
C      1  0.4872720000000  0.4280240000000  0.5819960000000 1.0
C      1  0.5551380000000  0.4333610000000  0.5354500000000 1.0
C      1  0.5526110000000  0.4490440000000  0.4384080000000 1.0
C      1  0.5197260000000  0.5616000000000  0.4995470000000 1.0
C      1  0.4529050000000  0.5177930000000  0.5043070000000 1.0
C      1  0.5998200000000  0.4784440000000  0.5213420000000 1.0
C      1  0.4677310000000  0.4490500000000  0.5854300000000 1.0
C      1  0.5408360000000  0.4531770000000  0.5821930000000 1.0
C      1  0.5462860000000  0.4913680000000  0.4648380000000 1.0
C      1  0.5303880000000  0.4237050000000  0.5211860000000 1.0
C      1  0.4363300000000  0.4583250000000  0.5581760000000 1.0
C      1  0.5429020000000  0.5466850000000  0.4496850000000 1.0
C      1  0.5406880000000  0.5353500000000  0.5608900000000 1.0
C      1  0.4079690000000  0.5267130000000  0.5020580000000 1.0
C      1  0.4767950000000  0.5417410000000  0.4595550000000 1.0
C      1  0.5533960000000  0.5079610000000  0.5096130000000 1.0
C      1  0.4962110000000  0.5841710000000  0.5403140000000 1.0
C      1  0.4404190000000  0.4252880000000  0.4813250000000 1.0
C      1  0.4168820000000  0.4614320000000  0.5163250000000 1.0
C      1  0.5338810000000  0.4288990000000  0.4480840000000 1.0
C      1  0.4463980000000  0.4326280000000  0.4514090000000 1.0
C      1  0.4394130000000  0.5264210000000  0.4359310000000 1.0
C      1  0.5685140000000  0.4818000000000  0.5582670000000 1.0
C      1  0.4648220000000  0.5766880000000  0.4337780000000 1.0
C      1  0.5466940000000  0.4591530000000  0.4119160000000 1.0
C      1  0.4871810000000  0.4402260000000  0.4237620000000 1.0
C      1  0.4794640000000  0.4067840000000  0.5136400000000 1.0
C      1  0.4211160000000  0.4803280000000  0.4444830000000 1.0
C      1  0.4938690000000  0.5456300000000  0.5713910000000 1.0
C      1  0.5297230000000  0.4988600000000  0.5248310000000 1.0
C      1  0.4923380000000  0.5324310000000  0.5971760000000 1.0
C      1  0.4585860000000  0.4748660000000  0.4830810000000 1.0
C      1  0.4988840000000  0.4877150000000  0.6011180000000 1.0
C      1  0.5230390000000  0.5868960000000  0.4775970000000 1.0
C      1  0.4103740000000  0.5282970000000  0.5297790000000 1.0
C      1  0.5045790000000  0.4629910000000  0.4945880000000 1.0
C      1  0.5251030000000  0.4879160000000  0.4465590000000 1.0
C      1  0.4686870000000  0.4144150000000  0.4857600000000 1.0
C      1  0.5140170000000  0.6218950000000  0.5151440000000 1.0
C      1  0.5443720000000  0.5127460000000  0.4824060000000 1.0
C      1  0.4706620000000  0.4451870000000  0.4454190000000 1.0
C      1  0.4830830000000  0.4936790000000  0.5544280000000 1.0
C      1  0.5984660000000  0.5327360000000  0.4780130000000 1.0
C      1  0.4238060000000  0.4508150000000  0.4485830000000 1.0
C      1  0.4117930000000  0.4919630000000  0.4692040000000 1.0
C      1  0.5313390000000  0.4847780000000  0.4054220000000 1.0
C      1  0.4927590000000  0.5838830000000  0.4289460000000 1.0
C      1  0.5178510000000  0.4713980000000  0.5200100000000 1.0
C      1  0.4830700000000  0.4654610000000  0.4100980000000 1.0
C      1  0.5642810000000  0.4696610000000  0.4600620000000 1.0
C      1  0.5538380000000  0.4979560000000  0.5741400000000 1.0
C      1  0.5834040000000  0.5190590000000  0.4340690000000 1.0
C      1  0.4166530000000  0.4442240000000  0.4760240000000 1.0
C      1  0.5858530000000  0.5435200000000  0.4990060000000 1.0
C      1  0.4238070000000  0.4719690000000  0.4879900000000 1.0
C      1  0.5781040000000  0.4622400000000  0.4818550000000 1.0
C      1  0.4498230000000  0.5381670000000  0.5731300000000 1.0
END
