TITL C-883727-9645-430 2.62728735478861 125000 -14544.7153491448 0 0 97 (C1) n - 1
REM
REM in /home/nfs/bkarasulu/CARBON/AIRSS/Generating-Clusters/ReaxFF-fromJPCA2015/Units_Real/with-SteepDescent/Only-C1/SD-CG/Try1-3A/FIRE-CG
REM
REM
REM
REM
REM
REM ./C.cell (11c1c37f851c82e70ff6c80c92926a4b)
REM
REM compiler GCC version 9.2.1 20190827 (Red Hat 9.2.1-1)
REM options -cpp -mtune=generic -march=x86-64 -g -O0 -fpre-include=/usr/include/finclude/math-vector-fortran.h
REM seed 468112025 -222122886 -343041206 238064020 -1001837208 908941741 1298509146 -1190168957 1169013115 -1106966877 -1615384540 -874272460 1394687506 1655597508 -1111326778 -1811663058 -467681243 1708764360 -1393942470 980163485 -1664704896 -1242743535 1599012030 -391895984 622328223 706774911 62050904 -500744135 -294687102 -299919472 1024374794 997543596 721995907
REM
CELL 1.54180   50.00000   50.00000   50.00000   90.00000   90.00000   90.00000
LATT -1
SFAC C  
C      1  0.4760120000000  0.4898330000000  0.5694960000000 1.0
C      1  0.5944360000000  0.4903260000000  0.5034030000000 1.0
C      1  0.5631550000000  0.5826710000000  0.4802930000000 1.0
C      1  0.5013810000000  0.5543260000000  0.4302490000000 1.0
C      1  0.5746900000000  0.4696530000000  0.5105670000000 1.0
C      1  0.4894510000000  0.5027860000000  0.5471150000000 1.0
C      1  0.4581630000000  0.5496360000000  0.5341600000000 1.0
C      1  0.5096220000000  0.5368640000000  0.4534150000000 1.0
C      1  0.4798840000000  0.4107930000000  0.4727040000000 1.0
C      1  0.4259280000000  0.5232500000000  0.5457990000000 1.0
C      1  0.5841550000000  0.5360110000000  0.4844600000000 1.0
C      1  0.4467220000000  0.4544950000000  0.5663440000000 1.0
C      1  0.4809430000000  0.4921760000000  0.4548210000000 1.0
C      1  0.4870010000000  0.5365880000000  0.5897880000000 1.0
C      1  0.5150740000000  0.4549680000000  0.5480450000000 1.0
C      1  0.4948940000000  0.5354250000000  0.5629110000000 1.0
C      1  0.4143310000000  0.5217570000000  0.5156190000000 1.0
C      1  0.4770320000000  0.5563850000000  0.4847560000000 1.0
C      1  0.4903870000000  0.4386750000000  0.5492920000000 1.0
C      1  0.5352740000000  0.5000850000000  0.4943420000000 1.0
C      1  0.4764630000000  0.4403840000000  0.4390120000000 1.0
C      1  0.5293320000000  0.5153170000000  0.5192030000000 1.0
C      1  0.5177800000000  0.4649010000000  0.5760800000000 1.0
C      1  0.4633460000000  0.5606500000000  0.4629270000000 1.0
C      1  0.5605670000000  0.4540440000000  0.4897830000000 1.0
C      1  0.5182500000000  0.4331540000000  0.4910240000000 1.0
C      1  0.5432370000000  0.4797430000000  0.5817920000000 1.0
C      1  0.5952600000000  0.4876260000000  0.4536880000000 1.0
C      1  0.4817390000000  0.5679310000000  0.5317000000000 1.0
C      1  0.4708390000000  0.5006950000000  0.4803820000000 1.0
C      1  0.5276960000000  0.5545030000000  0.4198670000000 1.0
C      1  0.5306130000000  0.5571660000000  0.5484010000000 1.0
C      1  0.5001780000000  0.4026980000000  0.4524510000000 1.0
C      1  0.5019720000000  0.5616090000000  0.5509570000000 1.0
C      1  0.5377910000000  0.5347620000000  0.5662810000000 1.0
C      1  0.5761770000000  0.5298200000000  0.4579960000000 1.0
C      1  0.4440090000000  0.5422040000000  0.5585600000000 1.0
C      1  0.5135470000000  0.4935660000000  0.5325960000000 1.0
C      1  0.4709270000000  0.4694570000000  0.4368510000000 1.0
C      1  0.5250440000000  0.5268080000000  0.4930510000000 1.0
C      1  0.4698680000000  0.4516150000000  0.4955440000000 1.0
C      1  0.4142120000000  0.4683460000000  0.5053140000000 1.0
C      1  0.5499950000000  0.4601800000000  0.4624140000000 1.0
C      1  0.5241210000000  0.4937960000000  0.4322560000000 1.0
C      1  0.4256400000000  0.4696800000000  0.5564440000000 1.0
C      1  0.4465700000000  0.4341270000000  0.5294080000000 1.0
C      1  0.5337900000000  0.5756180000000  0.4785380000000 1.0
C      1  0.4886210000000  0.4279440000000  0.4974460000000 1.0
C      1  0.4710520000000  0.5263530000000  0.4919110000000 1.0
C      1  0.5761330000000  0.5620850000000  0.4974280000000 1.0
C      1  0.5744330000000  0.4946800000000  0.4346000000000 1.0
C      1  0.5036570000000  0.4804790000000  0.5094450000000 1.0
C      1  0.5434010000000  0.5318980000000  0.4152060000000 1.0
C      1  0.5417470000000  0.4383440000000  0.5065180000000 1.0
C      1  0.5734890000000  0.5293170000000  0.5319450000000 1.0
C      1  0.5684580000000  0.5237980000000  0.4323700000000 1.0
C      1  0.5203670000000  0.5744390000000  0.5042590000000 1.0
C      1  0.4285220000000  0.4997780000000  0.5620000000000 1.0
C      1  0.5227650000000  0.4543810000000  0.4715000000000 1.0
C      1  0.5591000000000  0.5181320000000  0.5548850000000 1.0
C      1  0.5864470000000  0.5179890000000  0.5083250000000 1.0
C      1  0.4750610000000  0.4264890000000  0.5279610000000 1.0
C      1  0.4641130000000  0.5299370000000  0.4236800000000 1.0
C      1  0.4238520000000  0.5055250000000  0.4452960000000 1.0
C      1  0.4410870000000  0.4688000000000  0.4319010000000 1.0
C      1  0.4472580000000  0.4445690000000  0.4795390000000 1.0
C      1  0.4675430000000  0.4978570000000  0.5297840000000 1.0
C      1  0.5629340000000  0.5551550000000  0.5229960000000 1.0
C      1  0.4621380000000  0.5242340000000  0.5190620000000 1.0
C      1  0.5492060000000  0.4806880000000  0.4414270000000 1.0
C      1  0.4926960000000  0.5317190000000  0.4140350000000 1.0
C      1  0.4735120000000  0.4472440000000  0.5726700000000 1.0
C      1  0.4898720000000  0.4690070000000  0.5842620000000 1.0
C      1  0.5185340000000  0.5150260000000  0.4120580000000 1.0
C      1  0.5185050000000  0.4787560000000  0.4878830000000 1.0
C      1  0.4590140000000  0.5318120000000  0.5825600000000 1.0
C      1  0.4267270000000  0.5308710000000  0.4612340000000 1.0
C      1  0.4245940000000  0.4540070000000  0.5308490000000 1.0
C      1  0.4749480000000  0.4806590000000  0.5055040000000 1.0
C      1  0.4916690000000  0.5733050000000  0.5050630000000 1.0
C      1  0.5063240000000  0.5064740000000  0.4519120000000 1.0
C      1  0.4517340000000  0.5041210000000  0.5794760000000 1.0
C      1  0.4204680000000  0.4765470000000  0.4529770000000 1.0
C      1  0.4453490000000  0.5104540000000  0.4279410000000 1.0
C      1  0.6015330000000  0.4864170000000  0.4756020000000 1.0
C      1  0.4232500000000  0.4614290000000  0.4778070000000 1.0
C      1  0.4476880000000  0.5477610000000  0.4445120000000 1.0
C      1  0.5147880000000  0.5288850000000  0.5827360000000 1.0
C      1  0.5601770000000  0.4887620000000  0.5591350000000 1.0
C      1  0.5403700000000  0.4495340000000  0.5337770000000 1.0
C      1  0.4602400000000  0.4269540000000  0.4595870000000 1.0
C      1  0.5349290000000  0.5548460000000  0.5209680000000 1.0
C      1  0.4130130000000  0.4953180000000  0.5085350000000 1.0
C      1  0.5618790000000  0.4684570000000  0.5366320000000 1.0
C      1  0.4207460000000  0.5301670000000  0.4886980000000 1.0
C      1  0.5008450000000  0.4244560000000  0.4313510000000 1.0
C      1  0.5277170000000  0.5470330000000  0.4726530000000 1.0
END
