TITL C-884131-4643-284 11.469569580138 125000 -19023.7891462127 0 0 128 (C1) n - 1
REM
REM in /home/nfs/bkarasulu/CARBON/AIRSS/Generating-Clusters/ReaxFF-fromJPCA2015/Units_Real/with-SteepDescent/Only-C1/SD-CG/Try1-3A/FIRE-CG
REM
REM
REM
REM
REM
REM ./C.cell (11c1c37f851c82e70ff6c80c92926a4b)
REM
REM compiler GCC version 9.2.1 20190827 (Red Hat 9.2.1-1)
REM options -cpp -mtune=generic -march=x86-64 -g -O0 -fpre-include=/usr/include/finclude/math-vector-fortran.h
REM seed 638577073 579337891 1204186588 -576347086 -1336920364 1052240983 1019190928 -1960789142 -1486255698 1399445483 -930702848 -1999442014 185657564 588842812 1415518350 607279918 -1791752422 -962305515 -443651386 282247418 348089502 932192475 1780093158 -2023411502 -916032784 1633018700 -1842298157 -1632082541 -1205619144 709163984 -539974537 -1297312170 -1777022227
REM
CELL 1.54180   50.00000   50.00000   50.00000   90.00000   90.00000   90.00000
LATT -1
SFAC C  
C      1  0.5644440000000  0.4719310000000  0.5555290000000 1.0
C      1  0.5240790000000  0.5340470000000  0.5372260000000 1.0
C      1  0.4728760000000  0.5655350000000  0.5640200000000 1.0
C      1  0.4462150000000  0.5605300000000  0.5528810000000 1.0
C      1  0.5313550000000  0.5880060000000  0.4816580000000 1.0
C      1  0.5038630000000  0.5338770000000  0.4933650000000 1.0
C      1  0.4172430000000  0.5119370000000  0.5362600000000 1.0
C      1  0.4990510000000  0.4915600000000  0.4235710000000 1.0
C      1  0.5584020000000  0.4679140000000  0.4161950000000 1.0
C      1  0.4739210000000  0.5139110000000  0.4184460000000 1.0
C      1  0.5047840000000  0.4643210000000  0.4118840000000 1.0
C      1  0.4557490000000  0.5911790000000  0.4757320000000 1.0
C      1  0.5367270000000  0.4489800000000  0.4621310000000 1.0
C      1  0.4856100000000  0.5276880000000  0.4728130000000 1.0
C      1  0.5296460000000  0.5074260000000  0.5515930000000 1.0
C      1  0.4317960000000  0.5398710000000  0.4175650000000 1.0
C      1  0.4278480000000  0.4223680000000  0.5100280000000 1.0
C      1  0.5221540000000  0.4628460000000  0.5836730000000 1.0
C      1  0.5023940000000  0.4189240000000  0.5104920000000 1.0
C      1  0.4261560000000  0.4976290000000  0.4406050000000 1.0
C      1  0.4832450000000  0.4552740000000  0.5002570000000 1.0
C      1  0.5299840000000  0.5271360000000  0.4401660000000 1.0
C      1  0.4242770000000  0.5332420000000  0.5177470000000 1.0
C      1  0.4762980000000  0.4068980000000  0.5197900000000 1.0
C      1  0.4673980000000  0.3971870000000  0.4668140000000 1.0
C      1  0.4665750000000  0.5400240000000  0.5129240000000 1.0
C      1  0.4709990000000  0.4456210000000  0.4753280000000 1.0
C      1  0.5460020000000  0.4364770000000  0.4872840000000 1.0
C      1  0.4037710000000  0.4889320000000  0.5233500000000 1.0
C      1  0.5746240000000  0.5333550000000  0.4670450000000 1.0
C      1  0.5096550000000  0.5677100000000  0.4182100000000 1.0
C      1  0.5022210000000  0.5839000000000  0.4392760000000 1.0
C      1  0.5360310000000  0.4852830000000  0.5955150000000 1.0
C      1  0.5841880000000  0.5180430000000  0.5480290000000 1.0
C      1  0.5320810000000  0.5480460000000  0.4182590000000 1.0
C      1  0.5803670000000  0.4691520000000  0.4342000000000 1.0
C      1  0.5887320000000  0.4655640000000  0.4925650000000 1.0
C      1  0.4448850000000  0.5579550000000  0.5227850000000 1.0
C      1  0.5579280000000  0.5554120000000  0.4275340000000 1.0
C      1  0.4813410000000  0.5672820000000  0.4264250000000 1.0
C      1  0.5186990000000  0.4871600000000  0.4986110000000 1.0
C      1  0.4971470000000  0.4702640000000  0.5875790000000 1.0
C      1  0.5310440000000  0.4536030000000  0.4164330000000 1.0
C      1  0.5308730000000  0.5144290000000  0.5997700000000 1.0
C      1  0.4804330000000  0.4574800000000  0.4512260000000 1.0
C      1  0.4504720000000  0.4181800000000  0.5292220000000 1.0
C      1  0.5503650000000  0.5069720000000  0.5786790000000 1.0
C      1  0.5632730000000  0.5752430000000  0.5489170000000 1.0
C      1  0.4477860000000  0.4803810000000  0.5103690000000 1.0
C      1  0.4491000000000  0.4261920000000  0.4667910000000 1.0
C      1  0.4459650000000  0.4821480000000  0.5681130000000 1.0
C      1  0.5753320000000  0.4443770000000  0.5542320000000 1.0
C      1  0.4036830000000  0.5125440000000  0.4531200000000 1.0
C      1  0.5422810000000  0.4819810000000  0.5403520000000 1.0
C      1  0.4349880000000  0.4609480000000  0.5522580000000 1.0
C      1  0.4868560000000  0.4433270000000  0.4230840000000 1.0
C      1  0.5467850000000  0.5417790000000  0.5154730000000 1.0
C      1  0.5193110000000  0.4641440000000  0.5347420000000 1.0
C      1  0.5421620000000  0.4257660000000  0.5358700000000 1.0
C      1  0.4353000000000  0.5082090000000  0.5599240000000 1.0
C      1  0.4960070000000  0.5286630000000  0.5195870000000 1.0
C      1  0.5246900000000  0.4984360000000  0.4384110000000 1.0
C      1  0.5236130000000  0.4414690000000  0.5573300000000 1.0
C      1  0.4559460000000  0.4363600000000  0.4132390000000 1.0
C      1  0.6170850000000  0.4604790000000  0.4484870000000 1.0
C      1  0.5038140000000  0.4195500000000  0.4342690000000 1.0
C      1  0.4304650000000  0.5674660000000  0.4286100000000 1.0
C      1  0.5117340000000  0.4591950000000  0.5052360000000 1.0
C      1  0.5686390000000  0.4326360000000  0.5282500000000 1.0
C      1  0.4141080000000  0.4617540000000  0.4778450000000 1.0
C      1  0.5363840000000  0.4789890000000  0.4573240000000 1.0
C      1  0.5519270000000  0.5718350000000  0.5225710000000 1.0
C      1  0.4799240000000  0.5391500000000  0.4213930000000 1.0
C      1  0.3966230000000  0.4795780000000  0.4957330000000 1.0
C      1  0.5345620000000  0.5442610000000  0.4640400000000 1.0
C      1  0.4727210000000  0.5023060000000  0.4701990000000 1.0
C      1  0.5659210000000  0.5119210000000  0.4824200000000 1.0
C      1  0.5893970000000  0.5112660000000  0.5220860000000 1.0
C      1  0.5000730000000  0.5034990000000  0.5586460000000 1.0
C      1  0.4716650000000  0.4718830000000  0.5196760000000 1.0
C      1  0.4158970000000  0.5350110000000  0.4689010000000 1.0
C      1  0.6008940000000  0.4836100000000  0.5119330000000 1.0
C      1  0.4431030000000  0.5352850000000  0.5686480000000 1.0
C      1  0.5291470000000  0.4339680000000  0.4383360000000 1.0
C      1  0.5197620000000  0.5524500000000  0.5623080000000 1.0
C      1  0.4882050000000  0.4051000000000  0.4513880000000 1.0
C      1  0.4700230000000  0.4677180000000  0.5813270000000 1.0
C      1  0.5960310000000  0.4668860000000  0.4611350000000 1.0
C      1  0.5943740000000  0.4667460000000  0.5568750000000 1.0
C      1  0.4687150000000  0.5409350000000  0.5812710000000 1.0
C      1  0.4988570000000  0.5005550000000  0.5145070000000 1.0
C      1  0.5293800000000  0.5861050000000  0.5114220000000 1.0
C      1  0.5314410000000  0.4215240000000  0.5090580000000 1.0
C      1  0.5416320000000  0.4942830000000  0.4813800000000 1.0
C      1  0.4912730000000  0.4849000000000  0.5367730000000 1.0
C      1  0.3879360000000  0.4971820000000  0.4733820000000 1.0
C      1  0.5703720000000  0.4448340000000  0.5007230000000 1.0
C      1  0.5755740000000  0.5262670000000  0.5721000000000 1.0
C      1  0.5733630000000  0.5572910000000  0.4519540000000 1.0
C      1  0.5455650000000  0.5674500000000  0.5703100000000 1.0
C      1  0.4411240000000  0.5501420000000  0.4663990000000 1.0
C      1  0.4984860000000  0.4271930000000  0.5610250000000 1.0
C      1  0.4982210000000  0.5720820000000  0.5510580000000 1.0
C      1  0.4830510000000  0.6021020000000  0.4805770000000 1.0
C      1  0.4977330000000  0.4085620000000  0.5384180000000 1.0
C      1  0.4417350000000  0.4300090000000  0.4362140000000 1.0
C      1  0.5292810000000  0.5388710000000  0.4911710000000 1.0
C      1  0.4538750000000  0.5846430000000  0.5041140000000 1.0
C      1  0.4636530000000  0.5416490000000  0.4852670000000 1.0
C      1  0.5070400000000  0.5930270000000  0.4661140000000 1.0
C      1  0.5124080000000  0.5324820000000  0.5868170000000 1.0
C      1  0.5703840000000  0.5259460000000  0.5064940000000 1.0
C      1  0.4244550000000  0.4344420000000  0.4836720000000 1.0
C      1  0.4734580000000  0.4406340000000  0.5697460000000 1.0
C      1  0.4443010000000  0.5138530000000  0.4231390000000 1.0
C      1  0.5715100000000  0.5556190000000  0.5710920000000 1.0
C      1  0.4881040000000  0.5183710000000  0.5801960000000 1.0
C      1  0.4459870000000  0.4952860000000  0.4851780000000 1.0
C      1  0.4501820000000  0.4361260000000  0.5527160000000 1.0
C      1  0.4315850000000  0.4795170000000  0.4626510000000 1.0
C      1  0.5031070000000  0.5856240000000  0.5262260000000 1.0
C      1  0.4250610000000  0.5203740000000  0.4921210000000 1.0
C      1  0.4834620000000  0.4848440000000  0.4508050000000 1.0
C      1  0.4800650000000  0.5960210000000  0.5098420000000 1.0
C      1  0.5473140000000  0.5705420000000  0.4642860000000 1.0
C      1  0.4253240000000  0.4696200000000  0.5249050000000 1.0
C      1  0.4504560000000  0.5732800000000  0.4509930000000 1.0
C      1  0.6150270000000  0.4722330000000  0.5357540000000 1.0
END
