TITL C-884141-4321-267 0.039491393848152 125000 -3766.48192695883 0 0 26 (C1) n - 1
REM
REM in /home/nfs/bkarasulu/CARBON/AIRSS/Generating-Clusters/ReaxFF-fromJPCA2015/Units_Real/with-SteepDescent/Only-C1/SD-CG/Try1-3A/FIRE-CG
REM
REM
REM
REM
REM
REM ./C.cell (11c1c37f851c82e70ff6c80c92926a4b)
REM
REM compiler GCC version 9.2.1 20190827 (Red Hat 9.2.1-1)
REM options -cpp -mtune=generic -march=x86-64 -g -O0 -fpre-include=/usr/include/finclude/math-vector-fortran.h
REM seed -226413963 968202269 -1543520989 543143172 -2146816174 769813455 666458017 1095496391 1161967900 -229074611 1128841614 -211074743 -1292581989 1908083351 -251321181 950110170 1830293530 -1384524807 1544555826 1705816622 791207216 -1666183561 2095896017 -108334617 -2022982297 -2141548420 -128479182 -332655083 -172517099 626619347 -2048212131 2108365336 594401402
REM
CELL 1.54180   50.00000   50.00000   50.00000   90.00000   90.00000   90.00000
LATT -1
SFAC C  
C      1  0.4800870000000  0.4875160000000  0.5439580000000 1.0
C      1  0.4786530000000  0.4959610000000  0.4615380000000 1.0
C      1  0.4992180000000  0.4910650000000  0.4405750000000 1.0
C      1  0.4597520000000  0.5345660000000  0.4912240000000 1.0
C      1  0.5331810000000  0.4594640000000  0.4786820000000 1.0
C      1  0.4917860000000  0.4597320000000  0.5435680000000 1.0
C      1  0.5184880000000  0.5367470000000  0.5078870000000 1.0
C      1  0.5033030000000  0.5051350000000  0.5414940000000 1.0
C      1  0.4644030000000  0.4825990000000  0.5012400000000 1.0
C      1  0.4574930000000  0.4946550000000  0.5248170000000 1.0
C      1  0.5512140000000  0.5020780000000  0.5245910000000 1.0
C      1  0.5282530000000  0.4962270000000  0.4454270000000 1.0
C      1  0.4677550000000  0.5610100000000  0.5045840000000 1.0
C      1  0.4543900000000  0.5236440000000  0.5186190000000 1.0
C      1  0.4734350000000  0.5438010000000  0.5294790000000 1.0
C      1  0.5455610000000  0.4716720000000  0.4564880000000 1.0
C      1  0.4815020000000  0.5218090000000  0.4752480000000 1.0
C      1  0.5177040000000  0.4491770000000  0.4997220000000 1.0
C      1  0.4924750000000  0.4497690000000  0.4845230000000 1.0
C      1  0.5174640000000  0.4611540000000  0.5283030000000 1.0
C      1  0.4712310000000  0.4707100000000  0.4779830000000 1.0
C      1  0.5295500000000  0.5211870000000  0.4607620000000 1.0
C      1  0.5262980000000  0.4883910000000  0.5343950000000 1.0
C      1  0.5471390000000  0.5294680000000  0.5134620000000 1.0
C      1  0.5007170000000  0.5320480000000  0.5305790000000 1.0
C      1  0.5089500000000  0.5304160000000  0.4808530000000 1.0
END
