TITL C-883740-3686-121 1.70995112530703 125000 -2825.67398571565 0 0 21 (C1) n - 1
REM
REM in /home/nfs/bkarasulu/CARBON/AIRSS/Generating-Clusters/ReaxFF-fromJPCA2015/Units_Real/with-SteepDescent/Only-C1/SD-CG/Try1-3A/FIRE-CG
REM
REM
REM
REM
REM
REM ./C.cell (11c1c37f851c82e70ff6c80c92926a4b)
REM
REM compiler GCC version 9.2.1 20190827 (Red Hat 9.2.1-1)
REM options -cpp -mtune=generic -march=x86-64 -g -O0 -fpre-include=/usr/include/finclude/math-vector-fortran.h
REM seed -676439785 -1880610813 353313441 -1269332375 244599902 -1794306801 -346667443 207417647 -1886742457 344654610 -905684688 1225340220 45102867 802357444 -11453431 -979404135 -919380791 1246660402 1036554871 -326316490 974035685 360639208 1758119005 -1790973745 1690169604 751392208 223156674 -2147369964 -1888921849 -50959373 1595249800 563791841 -1289356921
REM
CELL 1.54180   50.00000   50.00000   50.00000   90.00000   90.00000   90.00000
LATT -1
SFAC C  
C      1  0.5223140000000  0.5015690000000  0.5569600000000 1.0
C      1  0.4909910000000  0.4478380000000  0.4945570000000 1.0
C      1  0.5325250000000  0.5173750000000  0.4480850000000 1.0
C      1  0.4532040000000  0.4940610000000  0.5198030000000 1.0
C      1  0.5036600000000  0.5252480000000  0.5170390000000 1.0
C      1  0.5060750000000  0.4720590000000  0.4487290000000 1.0
C      1  0.4817900000000  0.5341740000000  0.5042390000000 1.0
C      1  0.5194850000000  0.4953000000000  0.4477320000000 1.0
C      1  0.4950370000000  0.4483110000000  0.4674110000000 1.0
C      1  0.4879160000000  0.4496070000000  0.5224140000000 1.0
C      1  0.5131480000000  0.4536680000000  0.5395170000000 1.0
C      1  0.5450980000000  0.4935830000000  0.5194740000000 1.0
C      1  0.5256590000000  0.5162700000000  0.5299140000000 1.0
C      1  0.4320430000000  0.5381150000000  0.4943210000000 1.0
C      1  0.4697950000000  0.4709250000000  0.5217980000000 1.0
C      1  0.5306740000000  0.4758460000000  0.5441240000000 1.0
C      1  0.4557630000000  0.5222750000000  0.5082730000000 1.0
C      1  0.5579570000000  0.4885930000000  0.4987680000000 1.0
C      1  0.4793480000000  0.5610870000000  0.4837240000000 1.0
C      1  0.4523990000000  0.5558000000000  0.4840390000000 1.0
C      1  0.5451180000000  0.5382950000000  0.4490800000000 1.0
END
