TITL C-883738-3659-45 4352122.03406393 125000 -21015.8753637355 0 0 142 (C1) n - 1
REM
REM in /home/nfs/bkarasulu/CARBON/AIRSS/Generating-Clusters/ReaxFF-fromJPCA2015/Units_Real/with-SteepDescent/Only-C1/SD-CG/Try1-3A/FIRE-CG
REM
REM
REM
REM
REM
REM ./C.cell (11c1c37f851c82e70ff6c80c92926a4b)
REM
REM compiler GCC version 9.2.1 20190827 (Red Hat 9.2.1-1)
REM options -cpp -mtune=generic -march=x86-64 -g -O0 -fpre-include=/usr/include/finclude/math-vector-fortran.h
REM seed 476391404 1617437518 -12744677 1120939891 856557477 698153210 -1017769129 925141151 -1472606984 -1991968997 -305677593 2113574999 -1759617589 -1880569111 -1678709166 1995068559 1567519785 873535240 703053850 2128460443 -1573733230 2018281298 995325886 587349221 1126101978 -1629023170 -2050911223 -1423045997 -1072324782 2057072668 697319899 -973621500 1505146108
REM
CELL 1.54180   50.00000   50.00000   50.00000   90.00000   90.00000   90.00000
LATT -1
SFAC C  
C      1  0.5928010000000  0.5059820000000  0.4893200000000 1.0
C      1  0.4763560000000  0.4688370000000  0.4686340000000 1.0
C      1  0.4474570000000  0.4969810000000  0.4261050000000 1.0
C      1  0.5534270000000  0.5370840000000  0.4220210000000 1.0
C      1  0.5938810000000  0.4982560000000  0.4595270000000 1.0
C      1  0.4943780000000  0.4739580000000  0.4064310000000 1.0
C      1  0.4799060000000  0.4325060000000  0.5646670000000 1.0
C      1  0.5574980000000  0.5090770000000  0.4314460000000 1.0
C      1  0.4737430000000  0.5833650000000  0.5314920000000 1.0
C      1  0.5540090000000  0.4789590000000  0.4881650000000 1.0
C      1  0.4706000000000  0.4527370000000  0.5816540000000 1.0
C      1  0.4583030000000  0.5994780000000  0.4677100000000 1.0
C      1  0.5117230000000  0.4333450000000  0.4338140000000 1.0
C      1  0.4580640000000  0.5891650000000  0.4407180000000 1.0
C      1  0.5239170000000  0.5463390000000  0.4519960000000 1.0
C      1  0.5683220000000  0.4351940000000  0.4729300000000 1.0
C      1  0.5111080000000  0.4957350000000  0.6116130000000 1.0
C      1  0.4859720000000  0.4746880000000  0.5215050000000 1.0
C      1  0.4480070000000  0.5704150000000  0.5256390000000 1.0
C      1  0.4534140000000  0.4356000000000  0.4423810000000 1.0
C      1  0.4845760000000  0.5989790000000  0.4769370000000 1.0
C      1  0.5736640000000  0.5471000000000  0.4412060000000 1.0
C      1  0.5575870000000  0.4865500000000  0.5995420000000 1.0
C      1  0.5073910000000  0.5717390000000  0.5573270000000 1.0
C      1  0.5415320000000  0.4865370000000  0.5485400000000 1.0
C      1  0.5309810000000  0.4760910000000  0.6079210000000 1.0
C      1  0.4370230000000  0.5700920000000  0.4488800000000 1.0
C      1  0.4429220000000  0.5250480000000  0.5118880000000 1.0
C      1  0.5999560000000  0.4957560000000  0.5387760000000 1.0
C      1  0.5180030000000  0.4548850000000  0.4870190000000 1.0
C      1  0.5168040000000  0.4109220000000  0.4789960000000 1.0
C      1  0.4319890000000  0.5663320000000  0.5002570000000 1.0
C      1  0.5138390000000  0.4971000000000  0.4478380000000 1.0
C      1  0.5847990000000  0.4718540000000  0.4494010000000 1.0
C      1  0.4581680000000  0.5107190000000  0.5318100000000 1.0
C      1  0.5294640000000  0.5423270000000  0.4058470000000 1.0
C      1  0.4396040000000  0.4661730000000  0.5177580000000 1.0
C      1  0.5010690000000  0.4992380000000  0.3912320000000 1.0
C      1  0.4689430000000  0.3942140000000  0.5338850000000 1.0
C      1  0.5338930000000  0.4657230000000  0.5061930000000 1.0
C      1  0.5844740000000  0.5188580000000  0.4415160000000 1.0
C      1  0.5302370000000  0.4609380000000  0.4598620000000 1.0
C      1  0.4857530000000  0.5845990000000  0.4324510000000 1.0
C      1  0.4903850000000  0.4953750000000  0.4703380000000 1.0
C      1  0.5750910000000  0.4399390000000  0.5213060000000 1.0
C      1  0.4373580000000  0.5817830000000  0.4762090000000 1.0
C      1  0.4974660000000  0.5916700000000  0.5145480000000 1.0
C      1  0.4077380000000  0.4846790000000  0.4852360000000 1.0
C      1  0.5342130000000  0.4117140000000  0.5023520000000 1.0
C      1  0.5670890000000  0.5614240000000  0.4663850000000 1.0
C      1  0.5211210000000  0.5827350000000  0.4711490000000 1.0
C      1  0.4612970000000  0.5326990000000  0.4893820000000 1.0
C      1  0.4533800000000  0.5429500000000  0.5884790000000 1.0
C      1  0.4264540000000  0.4417870000000  0.5300670000000 1.0
C      1  0.5781870000000  0.4623540000000  0.4756690000000 1.0
C      1  0.4952070000000  0.4418120000000  0.5875460000000 1.0
C      1  0.5817610000000  0.4719910000000  0.5288930000000 1.0
C      1  0.4159640000000  0.5298040000000  0.4651240000000 1.0
C      1  0.4127450000000  0.5451290000000  0.4912630000000 1.0
C      1  0.4835330000000  0.5232180000000  0.5302710000000 1.0
C      1  0.5402310000000  0.4367060000000  0.5766170000000 1.0
C      1  0.4813060000000  0.5817190000000  0.5600720000000 1.0
C      1  0.4843440000000  0.5468170000000  0.5006080000000 1.0
C      1  0.5599520000000  0.5619190000000  0.5418350000000 1.0
C      1  0.4733370000000  0.4566190000000  0.4398460000000 1.0
C      1  0.5808400000000  0.4636280000000  0.5556710000000 1.0
C      1  0.4030670000000  0.5099310000000  0.5362450000000 1.0
C      1  0.3923500000000  0.4667730000000  0.5035760000000 1.0
C      1  0.4344370000000  0.5336730000000  0.5664860000000 1.0
C      1  0.4885550000000  0.4538450000000  0.4946410000000 1.0
C      1  0.4360180000000  0.4824980000000  0.5653080000000 1.0
C      1  0.4922190000000  0.5130830000000  0.6105050000000 1.0
C      1  0.4270310000000  0.4501680000000  0.4511640000000 1.0
C      1  0.5609290000000  0.4266760000000  0.4997910000000 1.0
C      1  0.5163150000000  0.4556570000000  0.4152960000000 1.0
C      1  0.5231060000000  0.5293520000000  0.5531270000000 1.0
C      1  0.4972160000000  0.3939790000000  0.5330910000000 1.0
C      1  0.5402830000000  0.4883080000000  0.4573620000000 1.0
C      1  0.5199750000000  0.5590510000000  0.4261190000000 1.0
C      1  0.4104170000000  0.5014230000000  0.4615880000000 1.0
C      1  0.4995050000000  0.4703340000000  0.5473610000000 1.0
C      1  0.5607140000000  0.5755520000000  0.5178490000000 1.0
C      1  0.4486780000000  0.4124560000000  0.5352740000000 1.0
C      1  0.4392930000000  0.5600500000000  0.5523010000000 1.0
C      1  0.5222130000000  0.4515060000000  0.5931810000000 1.0
C      1  0.5273110000000  0.4639700000000  0.5368700000000 1.0
C      1  0.4230640000000  0.4588760000000  0.5553960000000 1.0
C      1  0.4684830000000  0.4767870000000  0.4191980000000 1.0
C      1  0.5467720000000  0.4955570000000  0.4066970000000 1.0
C      1  0.4944390000000  0.5622070000000  0.4166770000000 1.0
C      1  0.4679300000000  0.4341210000000  0.5375420000000 1.0
C      1  0.5083420000000  0.5339520000000  0.4913110000000 1.0
C      1  0.4091720000000  0.4419390000000  0.5050250000000 1.0
C      1  0.5499960000000  0.4405870000000  0.4498790000000 1.0
C      1  0.5646170000000  0.4579710000000  0.4315080000000 1.0
C      1  0.5713160000000  0.5074020000000  0.5837190000000 1.0
C      1  0.5655460000000  0.4262560000000  0.5447930000000 1.0
C      1  0.5344270000000  0.4312340000000  0.5470820000000 1.0
C      1  0.4220310000000  0.5088170000000  0.5594820000000 1.0
C      1  0.4907010000000  0.4922710000000  0.5640460000000 1.0
C      1  0.5026250000000  0.5962370000000  0.4537050000000 1.0
C      1  0.4296800000000  0.4842210000000  0.4463890000000 1.0
C      1  0.5497630000000  0.5831050000000  0.4785050000000 1.0
C      1  0.5131450000000  0.5241560000000  0.4437810000000 1.0
C      1  0.5230940000000  0.4096290000000  0.5292070000000 1.0
C      1  0.4500100000000  0.5259760000000  0.4258500000000 1.0
C      1  0.4959290000000  0.5199800000000  0.5558060000000 1.0
C      1  0.5681540000000  0.4969150000000  0.5043740000000 1.0
C      1  0.4965750000000  0.5767850000000  0.4901870000000 1.0
C      1  0.3936040000000  0.4869960000000  0.5232950000000 1.0
C      1  0.4929320000000  0.5012540000000  0.5153480000000 1.0
C      1  0.5877880000000  0.5152570000000  0.5600780000000 1.0
C      1  0.4727990000000  0.5401750000000  0.4111040000000 1.0
C      1  0.4689790000000  0.4194550000000  0.4608600000000 1.0
C      1  0.4551940000000  0.4241440000000  0.4860080000000 1.0
C      1  0.5392520000000  0.5115860000000  0.5383620000000 1.0
C      1  0.4149160000000  0.5300140000000  0.5160380000000 1.0
C      1  0.4662380000000  0.4787530000000  0.5713800000000 1.0
C      1  0.4281470000000  0.4388610000000  0.4822110000000 1.0
C      1  0.4844190000000  0.5189250000000  0.4009120000000 1.0
C      1  0.4335540000000  0.4722110000000  0.4903770000000 1.0
C      1  0.5246900000000  0.5922540000000  0.5171560000000 1.0
C      1  0.5510650000000  0.5170830000000  0.5144500000000 1.0
C      1  0.5364970000000  0.5347940000000  0.4971790000000 1.0
C      1  0.4519010000000  0.4849060000000  0.4719800000000 1.0
C      1  0.5464090000000  0.5421690000000  0.4714180000000 1.0
C      1  0.4598940000000  0.4828470000000  0.5273280000000 1.0
C      1  0.4739210000000  0.4310360000000  0.5075750000000 1.0
C      1  0.5457190000000  0.4963130000000  0.5749550000000 1.0
C      1  0.5307130000000  0.5572190000000  0.5539620000000 1.0
C      1  0.4574940000000  0.5681780000000  0.5733050000000 1.0
C      1  0.5080380000000  0.5057490000000  0.4920750000000 1.0
C      1  0.5442440000000  0.4673470000000  0.4129650000000 1.0
C      1  0.4999820000000  0.4177100000000  0.4561910000000 1.0
C      1  0.5690740000000  0.4420650000000  0.5700170000000 1.0
C      1  0.4656840000000  0.5100280000000  0.4730000000000 1.0
C      1  0.5265600000000  0.5135580000000  0.3963340000000 1.0
C      1  0.6068140000000  0.5052450000000  0.5132290000000 1.0
C      1  0.5791050000000  0.5411620000000  0.5501600000000 1.0
C      1  0.4327770000000  0.5415210000000  0.4442580000000 1.0
C      1  0.5481640000000  0.5919290000000  0.5058880000000 1.0
C      1  0.4734340000000  0.5280410000000  0.6015920000000 1.0
END
