TITL C-884137-4758-49 982344.9119555 125000 -23323.2080155332 0 0 155 (C1) n - 1
REM
REM in /home/nfs/bkarasulu/CARBON/AIRSS/Generating-Clusters/ReaxFF-fromJPCA2015/Units_Real/with-SteepDescent/Only-C1/SD-CG/Try1-3A/FIRE-CG
REM
REM
REM
REM
REM
REM ./C.cell (11c1c37f851c82e70ff6c80c92926a4b)
REM
REM compiler GCC version 9.2.1 20190827 (Red Hat 9.2.1-1)
REM options -cpp -mtune=generic -march=x86-64 -g -O0 -fpre-include=/usr/include/finclude/math-vector-fortran.h
REM seed 1315927994 -826735547 -674618585 -862895588 1158947772 -592809675 2070176870 182466136 1325117290 19673808 1649877191 -703276752 1946017018 1987567492 264623940 41471847 1540698703 -1736281260 1756453242 -767166586 105381591 -1662233606 -1195128912 -86239165 564527884 51296834 -1879609160 1900982463 -500499235 308237560 -938111875 634670646 1257676182
REM
CELL 1.54180   50.00000   50.00000   50.00000   90.00000   90.00000   90.00000
LATT -1
SFAC C  
C      1  0.4631820000000  0.5880580000000  0.4624080000000 1.0
C      1  0.4913910000000  0.5976960000000  0.5403160000000 1.0
C      1  0.4448790000000  0.5719410000000  0.5153310000000 1.0
C      1  0.4638280000000  0.4934610000000  0.4892770000000 1.0
C      1  0.4954020000000  0.5320500000000  0.5612730000000 1.0
C      1  0.5011450000000  0.5403210000000  0.4883590000000 1.0
C      1  0.4768050000000  0.5832460000000  0.5621850000000 1.0
C      1  0.4863970000000  0.5316480000000  0.5928260000000 1.0
C      1  0.4581620000000  0.4760540000000  0.5410730000000 1.0
C      1  0.4380130000000  0.4315240000000  0.5147070000000 1.0
C      1  0.4150850000000  0.5220580000000  0.5438400000000 1.0
C      1  0.4809550000000  0.5281340000000  0.4468750000000 1.0
C      1  0.4436040000000  0.4515490000000  0.5780550000000 1.0
C      1  0.5508420000000  0.4925460000000  0.4250220000000 1.0
C      1  0.5944880000000  0.4944290000000  0.5029670000000 1.0
C      1  0.4306860000000  0.5098880000000  0.5219450000000 1.0
C      1  0.5632100000000  0.4805090000000  0.5877570000000 1.0
C      1  0.4419930000000  0.5118610000000  0.4929240000000 1.0
C      1  0.5376210000000  0.4106480000000  0.4554370000000 1.0
C      1  0.4346830000000  0.5616920000000  0.4898800000000 1.0
C      1  0.4151370000000  0.5287200000000  0.4619140000000 1.0
C      1  0.5199470000000  0.4191500000000  0.5545880000000 1.0
C      1  0.4221480000000  0.4734790000000  0.4575820000000 1.0
C      1  0.5572430000000  0.5984160000000  0.5073120000000 1.0
C      1  0.4349040000000  0.4602990000000  0.5517170000000 1.0
C      1  0.5774040000000  0.5510210000000  0.4551780000000 1.0
C      1  0.4521210000000  0.5666410000000  0.5585640000000 1.0
C      1  0.5501610000000  0.5596900000000  0.4255300000000 1.0
C      1  0.5399750000000  0.4366860000000  0.5661360000000 1.0
C      1  0.5476870000000  0.5997950000000  0.5346460000000 1.0
C      1  0.4855130000000  0.6024430000000  0.5106240000000 1.0
C      1  0.5493780000000  0.5690180000000  0.4989920000000 1.0
C      1  0.5205160000000  0.5460760000000  0.5573100000000 1.0
C      1  0.5223200000000  0.4359140000000  0.4547090000000 1.0
C      1  0.5784590000000  0.4295800000000  0.5274690000000 1.0
C      1  0.4730350000000  0.4339490000000  0.4453950000000 1.0
C      1  0.4803090000000  0.5446160000000  0.4693740000000 1.0
C      1  0.4717870000000  0.4653190000000  0.4048250000000 1.0
C      1  0.4650020000000  0.6000370000000  0.4897980000000 1.0
C      1  0.4575530000000  0.5157040000000  0.4045340000000 1.0
C      1  0.4873620000000  0.4778620000000  0.5574980000000 1.0
C      1  0.5817130000000  0.5357070000000  0.5260820000000 1.0
C      1  0.4337810000000  0.5021750000000  0.5932340000000 1.0
C      1  0.5153010000000  0.3971220000000  0.5032140000000 1.0
C      1  0.4082970000000  0.5488850000000  0.5342340000000 1.0
C      1  0.4348430000000  0.5419170000000  0.4443780000000 1.0
C      1  0.4695670000000  0.5545550000000  0.5175050000000 1.0
C      1  0.5911400000000  0.4403110000000  0.5032420000000 1.0
C      1  0.4170700000000  0.5000720000000  0.4714280000000 1.0
C      1  0.5174750000000  0.5006270000000  0.6032560000000 1.0
C      1  0.5020660000000  0.5033530000000  0.5210830000000 1.0
C      1  0.5034130000000  0.4712580000000  0.4851410000000 1.0
C      1  0.5075780000000  0.5183650000000  0.4430650000000 1.0
C      1  0.5059700000000  0.4635300000000  0.5355190000000 1.0
C      1  0.5004610000000  0.5178880000000  0.3886930000000 1.0
C      1  0.5414470000000  0.3917960000000  0.5165820000000 1.0
C      1  0.5683110000000  0.4059120000000  0.5129210000000 1.0
C      1  0.5736410000000  0.5074010000000  0.5818030000000 1.0
C      1  0.5393310000000  0.4535060000000  0.4379900000000 1.0
C      1  0.5329910000000  0.5312540000000  0.4597180000000 1.0
C      1  0.5793280000000  0.4171260000000  0.4879830000000 1.0
C      1  0.4053840000000  0.4697210000000  0.5123520000000 1.0
C      1  0.5399610000000  0.5013980000000  0.5431510000000 1.0
C      1  0.5622520000000  0.4483630000000  0.5457500000000 1.0
C      1  0.4969200000000  0.5051740000000  0.5482230000000 1.0
C      1  0.4946300000000  0.4764710000000  0.5116030000000 1.0
C      1  0.5049580000000  0.4904960000000  0.4499320000000 1.0
C      1  0.5857590000000  0.5391040000000  0.4794970000000 1.0
C      1  0.5594480000000  0.5327950000000  0.4416960000000 1.0
C      1  0.5643440000000  0.4212030000000  0.4625990000000 1.0
C      1  0.5019460000000  0.4656200000000  0.3968830000000 1.0
C      1  0.5370450000000  0.5044340000000  0.4030420000000 1.0
C      1  0.5437430000000  0.5295960000000  0.5538090000000 1.0
C      1  0.5131310000000  0.5833150000000  0.4696570000000 1.0
C      1  0.4524720000000  0.5051370000000  0.5393830000000 1.0
C      1  0.5099440000000  0.5935080000000  0.4967340000000 1.0
C      1  0.4704770000000  0.3936510000000  0.4842520000000 1.0
C      1  0.5365850000000  0.5124440000000  0.4823230000000 1.0
C      1  0.4632150000000  0.4736750000000  0.5102370000000 1.0
C      1  0.4557750000000  0.4140030000000  0.5293900000000 1.0
C      1  0.4749220000000  0.5285770000000  0.3873230000000 1.0
C      1  0.5144850000000  0.4920240000000  0.3886560000000 1.0
C      1  0.4988180000000  0.5556250000000  0.5116630000000 1.0
C      1  0.4595920000000  0.4507960000000  0.4249800000000 1.0
C      1  0.5061430000000  0.4351030000000  0.5335170000000 1.0
C      1  0.5514420000000  0.4672670000000  0.5241310000000 1.0
C      1  0.4270600000000  0.4206630000000  0.4632170000000 1.0
C      1  0.5743680000000  0.5488110000000  0.5030120000000 1.0
C      1  0.5887300000000  0.4947850000000  0.4558700000000 1.0
C      1  0.4601140000000  0.4946270000000  0.6058170000000 1.0
C      1  0.5925660000000  0.4670650000000  0.4916780000000 1.0
C      1  0.5562100000000  0.5758170000000  0.5504030000000 1.0
C      1  0.5233410000000  0.5575390000000  0.4154280000000 1.0
C      1  0.4764140000000  0.5561640000000  0.3933860000000 1.0
C      1  0.5395530000000  0.4034240000000  0.5418740000000 1.0
C      1  0.4713960000000  0.4386530000000  0.5792600000000 1.0
C      1  0.3828560000000  0.5149520000000  0.5056970000000 1.0
C      1  0.4266110000000  0.4491860000000  0.4725450000000 1.0
C      1  0.5327170000000  0.4809100000000  0.4488470000000 1.0
C      1  0.4268860000000  0.5206030000000  0.5715340000000 1.0
C      1  0.4510560000000  0.4483100000000  0.4921740000000 1.0
C      1  0.4939920000000  0.4577800000000  0.5785200000000 1.0
C      1  0.3949650000000  0.5420690000000  0.5083260000000 1.0
C      1  0.5527020000000  0.5268700000000  0.5850630000000 1.0
C      1  0.4521590000000  0.4871510000000  0.3975990000000 1.0
C      1  0.5284400000000  0.5276200000000  0.6001670000000 1.0
C      1  0.5440520000000  0.4847410000000  0.4779840000000 1.0
C      1  0.4565680000000  0.5411340000000  0.4896450000000 1.0
C      1  0.5584370000000  0.5727100000000  0.4500830000000 1.0
C      1  0.4824370000000  0.4796740000000  0.4672970000000 1.0
C      1  0.4414130000000  0.4738690000000  0.5972580000000 1.0
C      1  0.4570920000000  0.5259570000000  0.4318870000000 1.0
C      1  0.4295140000000  0.5688210000000  0.5394670000000 1.0
C      1  0.5343410000000  0.4780460000000  0.5947480000000 1.0
C      1  0.4646540000000  0.4212860000000  0.5570510000000 1.0
C      1  0.4936160000000  0.5713120000000  0.5826690000000 1.0
C      1  0.5063790000000  0.5513810000000  0.5989650000000 1.0
C      1  0.4695250000000  0.4506840000000  0.4686650000000 1.0
C      1  0.3972150000000  0.4910900000000  0.4951090000000 1.0
C      1  0.4527660000000  0.5263300000000  0.5592970000000 1.0
C      1  0.5935590000000  0.5112910000000  0.4794820000000 1.0
C      1  0.5646550000000  0.5487430000000  0.5432010000000 1.0
C      1  0.4878140000000  0.5048890000000  0.6037150000000 1.0
C      1  0.4999170000000  0.5738060000000  0.4231370000000 1.0
C      1  0.4990320000000  0.4203760000000  0.4434190000000 1.0
C      1  0.5046450000000  0.4239410000000  0.5081110000000 1.0
C      1  0.4752760000000  0.4101890000000  0.5071830000000 1.0
C      1  0.5432260000000  0.4626450000000  0.4959680000000 1.0
C      1  0.5767120000000  0.4698590000000  0.5636320000000 1.0
C      1  0.4997010000000  0.3875750000000  0.4803120000000 1.0
C      1  0.5193940000000  0.5967250000000  0.5473580000000 1.0
C      1  0.4194860000000  0.4496110000000  0.5287910000000 1.0
C      1  0.5675000000000  0.4468740000000  0.4503730000000 1.0
C      1  0.5890860000000  0.5075030000000  0.5284910000000 1.0
C      1  0.4094390000000  0.5478850000000  0.4831850000000 1.0
C      1  0.5293900000000  0.5729950000000  0.5619660000000 1.0
C      1  0.4807840000000  0.5768990000000  0.4022010000000 1.0
C      1  0.5321680000000  0.4784750000000  0.5368190000000 1.0
C      1  0.4265110000000  0.4807060000000  0.4078120000000 1.0
C      1  0.5193530000000  0.4466220000000  0.4864240000000 1.0
C      1  0.5363170000000  0.5645440000000  0.4684200000000 1.0
C      1  0.5223430000000  0.5719910000000  0.5122370000000 1.0
C      1  0.4682170000000  0.5468790000000  0.5478640000000 1.0
C      1  0.4459820000000  0.3987160000000  0.4678800000000 1.0
C      1  0.4424580000000  0.5704410000000  0.4501060000000 1.0
C      1  0.5852610000000  0.4663580000000  0.4629830000000 1.0
C      1  0.5153280000000  0.5190950000000  0.5009890000000 1.0
C      1  0.4898000000000  0.5752930000000  0.4538540000000 1.0
C      1  0.5735850000000  0.5066860000000  0.4342900000000 1.0
C      1  0.5252900000000  0.4566600000000  0.4093020000000 1.0
C      1  0.5858310000000  0.4958080000000  0.5551580000000 1.0
C      1  0.5117360000000  0.3968160000000  0.4553090000000 1.0
C      1  0.5230430000000  0.4538700000000  0.5829380000000 1.0
C      1  0.4323590000000  0.4658240000000  0.4306350000000 1.0
C      1  0.5172080000000  0.5273920000000  0.4119080000000 1.0
END
