TITL C-883735-9890-208 90.2129218599004 125000 -29293.2955554779 0 0 197 (C1) n - 1
REM
REM in /home/nfs/bkarasulu/CARBON/AIRSS/Generating-Clusters/ReaxFF-fromJPCA2015/Units_Real/with-SteepDescent/Only-C1/SD-CG/Try1-3A/FIRE-CG
REM
REM
REM
REM
REM
REM ./C.cell (11c1c37f851c82e70ff6c80c92926a4b)
REM
REM compiler GCC version 9.2.1 20190827 (Red Hat 9.2.1-1)
REM options -cpp -mtune=generic -march=x86-64 -g -O0 -fpre-include=/usr/include/finclude/math-vector-fortran.h
REM seed 1895444603 500681054 1645307058 -1034652761 766265372 759350448 -245478654 1519053463 -483638163 1966579142 -1545774159 1356550134 -1729717125 1562523728 2134304672 1268200228 -2140076197 1609013374 1616522033 -2891161 1352981773 -1013335437 -320371910 -1217448549 348334880 1292566358 1930215197 -834713459 -690620186 1291511470 -1771940430 -297596687 -1159679683
REM
CELL 1.54180   50.00000   50.00000   50.00000   90.00000   90.00000   90.00000
LATT -1
SFAC C  
C      1  0.6061120000000  0.5535880000000  0.4858310000000 1.0
C      1  0.4937380000000  0.4601670000000  0.5023770000000 1.0
C      1  0.4574100000000  0.5077840000000  0.4481990000000 1.0
C      1  0.4670850000000  0.6128590000000  0.4733790000000 1.0
C      1  0.6073780000000  0.5012330000000  0.5377290000000 1.0
C      1  0.5915690000000  0.5235840000000  0.5318160000000 1.0
C      1  0.5539430000000  0.5053090000000  0.5095500000000 1.0
C      1  0.5281950000000  0.6262170000000  0.5139900000000 1.0
C      1  0.4542480000000  0.3978440000000  0.5453350000000 1.0
C      1  0.5092280000000  0.4137500000000  0.4279480000000 1.0
C      1  0.5528060000000  0.3915490000000  0.4942220000000 1.0
C      1  0.5081250000000  0.4331820000000  0.4063990000000 1.0
C      1  0.5237350000000  0.4205410000000  0.5764960000000 1.0
C      1  0.4866500000000  0.3945240000000  0.4767430000000 1.0
C      1  0.5285130000000  0.5118260000000  0.4425890000000 1.0
C      1  0.4238720000000  0.5523070000000  0.5728210000000 1.0
C      1  0.5729010000000  0.5823360000000  0.5488010000000 1.0
C      1  0.4632250000000  0.5882720000000  0.4953380000000 1.0
C      1  0.4063530000000  0.4466080000000  0.4572060000000 1.0
C      1  0.5766830000000  0.5234530000000  0.5071670000000 1.0
C      1  0.4795180000000  0.4729390000000  0.5918300000000 1.0
C      1  0.4263990000000  0.4285920000000  0.5688380000000 1.0
C      1  0.5301910000000  0.4520830000000  0.4112570000000 1.0
C      1  0.4363630000000  0.4326310000000  0.4320340000000 1.0
C      1  0.4728790000000  0.5242980000000  0.4315780000000 1.0
C      1  0.5954380000000  0.4507710000000  0.4935140000000 1.0
C      1  0.4442770000000  0.5131250000000  0.4742200000000 1.0
C      1  0.5158320000000  0.5479150000000  0.5334490000000 1.0
C      1  0.3873800000000  0.4840650000000  0.5044280000000 1.0
C      1  0.4718570000000  0.5973770000000  0.4487080000000 1.0
C      1  0.4537680000000  0.5652060000000  0.4770440000000 1.0
C      1  0.5311170000000  0.3913110000000  0.5304570000000 1.0
C      1  0.4433290000000  0.4437100000000  0.5027030000000 1.0
C      1  0.4816240000000  0.4140220000000  0.4344840000000 1.0
C      1  0.5690080000000  0.4613630000000  0.4748690000000 1.0
C      1  0.4382590000000  0.4711820000000  0.5137990000000 1.0
C      1  0.4032830000000  0.5035920000000  0.4552210000000 1.0
C      1  0.5969430000000  0.5775690000000  0.5002540000000 1.0
C      1  0.4082030000000  0.4575120000000  0.5273880000000 1.0
C      1  0.4384590000000  0.4024330000000  0.4812110000000 1.0
C      1  0.4493860000000  0.4378130000000  0.5841260000000 1.0
C      1  0.5285760000000  0.3794870000000  0.5016780000000 1.0
C      1  0.5363350000000  0.5289230000000  0.4211060000000 1.0
C      1  0.5967980000000  0.5485410000000  0.5445890000000 1.0
C      1  0.5575340000000  0.5655810000000  0.4503280000000 1.0
C      1  0.5135280000000  0.5863910000000  0.5703670000000 1.0
C      1  0.4619880000000  0.4290230000000  0.4180560000000 1.0
C      1  0.5515740000000  0.5082510000000  0.4534020000000 1.0
C      1  0.5164490000000  0.5309590000000  0.5630010000000 1.0
C      1  0.5533650000000  0.5471390000000  0.5020330000000 1.0
C      1  0.4654650000000  0.5825470000000  0.5719860000000 1.0
C      1  0.5285770000000  0.5582600000000  0.3735690000000 1.0
C      1  0.5826160000000  0.4257730000000  0.5317340000000 1.0
C      1  0.5403510000000  0.5598340000000  0.5248510000000 1.0
C      1  0.4003630000000  0.5325530000000  0.4539230000000 1.0
C      1  0.4628670000000  0.3909250000000  0.4937040000000 1.0
C      1  0.4760170000000  0.5479580000000  0.4465760000000 1.0
C      1  0.4410590000000  0.4212910000000  0.4587000000000 1.0
C      1  0.4920350000000  0.5800340000000  0.5030920000000 1.0
C      1  0.4168290000000  0.5449330000000  0.5454080000000 1.0
C      1  0.4373370000000  0.5418690000000  0.4783800000000 1.0
C      1  0.4506540000000  0.5924830000000  0.5226660000000 1.0
C      1  0.4596130000000  0.4944970000000  0.3983750000000 1.0
C      1  0.5615400000000  0.4548650000000  0.5834870000000 1.0
C      1  0.5111050000000  0.6379420000000  0.4914810000000 1.0
C      1  0.5277760000000  0.4116390000000  0.4541680000000 1.0
C      1  0.3924700000000  0.4811690000000  0.5344980000000 1.0
C      1  0.4745430000000  0.5737110000000  0.4141700000000 1.0
C      1  0.5984660000000  0.5123020000000  0.4498420000000 1.0
C      1  0.5715540000000  0.5904240000000  0.4883050000000 1.0
C      1  0.5537640000000  0.6062050000000  0.4711980000000 1.0
C      1  0.5890420000000  0.4945590000000  0.5604010000000 1.0
C      1  0.5001610000000  0.4325270000000  0.5962420000000 1.0
C      1  0.5162870000000  0.5502120000000  0.4742890000000 1.0
C      1  0.5200090000000  0.3936690000000  0.5576610000000 1.0
C      1  0.5066310000000  0.5606440000000  0.3875320000000 1.0
C      1  0.5795090000000  0.4655890000000  0.5634530000000 1.0
C      1  0.4801470000000  0.4447010000000  0.4017140000000 1.0
C      1  0.6002500000000  0.5251300000000  0.4803690000000 1.0
C      1  0.4815840000000  0.5417400000000  0.3877460000000 1.0
C      1  0.4281540000000  0.4111610000000  0.5470930000000 1.0
C      1  0.5078850000000  0.5269190000000  0.5129600000000 1.0
C      1  0.5647130000000  0.4901540000000  0.4692110000000 1.0
C      1  0.5392130000000  0.6260520000000  0.4874410000000 1.0
C      1  0.4325430000000  0.5144700000000  0.6120730000000 1.0
C      1  0.5732860000000  0.4765100000000  0.4079480000000 1.0
C      1  0.5147050000000  0.3904010000000  0.4775490000000 1.0
C      1  0.5131910000000  0.5659500000000  0.5897190000000 1.0
C      1  0.5017210000000  0.5802680000000  0.4127840000000 1.0
C      1  0.5454740000000  0.4906880000000  0.4880140000000 1.0
C      1  0.6022230000000  0.4831840000000  0.4458620000000 1.0
C      1  0.4999730000000  0.4592520000000  0.6068540000000 1.0
C      1  0.5418350000000  0.4761530000000  0.5898420000000 1.0
C      1  0.5237470000000  0.5110160000000  0.6058520000000 1.0
C      1  0.5103080000000  0.4329780000000  0.4663900000000 1.0
C      1  0.4927150000000  0.5640410000000  0.5264810000000 1.0
C      1  0.5123930000000  0.4889020000000  0.4435550000000 1.0
C      1  0.4927460000000  0.4172330000000  0.5195320000000 1.0
C      1  0.4505780000000  0.4840850000000  0.5396360000000 1.0
C      1  0.5941670000000  0.5738770000000  0.5301240000000 1.0
C      1  0.4345410000000  0.5021450000000  0.4125070000000 1.0
C      1  0.5464750000000  0.5853340000000  0.5362070000000 1.0
C      1  0.4890590000000  0.5352740000000  0.5743140000000 1.0
C      1  0.4087110000000  0.5743600000000  0.4905570000000 1.0
C      1  0.5633500000000  0.5648200000000  0.4789940000000 1.0
C      1  0.4001970000000  0.4360800000000  0.4822670000000 1.0
C      1  0.5224200000000  0.4827320000000  0.6112030000000 1.0
C      1  0.4232210000000  0.5841640000000  0.5154550000000 1.0
C      1  0.5621060000000  0.5374900000000  0.5807190000000 1.0
C      1  0.4682750000000  0.5500330000000  0.5344770000000 1.0
C      1  0.4882570000000  0.6269800000000  0.4824450000000 1.0
C      1  0.5109430000000  0.4724090000000  0.4198310000000 1.0
C      1  0.5701510000000  0.4096660000000  0.4816980000000 1.0
C      1  0.4847320000000  0.4445170000000  0.5247390000000 1.0
C      1  0.4130770000000  0.4354690000000  0.5456790000000 1.0
C      1  0.5158880000000  0.4514760000000  0.4856980000000 1.0
C      1  0.4811840000000  0.5164130000000  0.4038230000000 1.0
C      1  0.4721700000000  0.5021480000000  0.5422310000000 1.0
C      1  0.5710530000000  0.4137660000000  0.5571180000000 1.0
C      1  0.3937190000000  0.5550420000000  0.5064490000000 1.0
C      1  0.4173320000000  0.4571630000000  0.4345060000000 1.0
C      1  0.5451450000000  0.5917190000000  0.4465760000000 1.0
C      1  0.5293300000000  0.5323280000000  0.4932160000000 1.0
C      1  0.4448400000000  0.4695620000000  0.4644490000000 1.0
C      1  0.5733930000000  0.4528920000000  0.5380150000000 1.0
C      1  0.5572230000000  0.4198260000000  0.4565960000000 1.0
C      1  0.4388960000000  0.5302370000000  0.4079010000000 1.0
C      1  0.5735910000000  0.5059030000000  0.4067500000000 1.0
C      1  0.4548610000000  0.4424800000000  0.4750580000000 1.0
C      1  0.5086440000000  0.5782380000000  0.4797770000000 1.0
C      1  0.5243700000000  0.5014400000000  0.5495650000000 1.0
C      1  0.5303260000000  0.5360720000000  0.5896610000000 1.0
C      1  0.6083510000000  0.4687950000000  0.5114410000000 1.0
C      1  0.5343610000000  0.4397700000000  0.5355020000000 1.0
C      1  0.4949810000000  0.4724150000000  0.5679760000000 1.0
C      1  0.4052930000000  0.4910090000000  0.5584500000000 1.0
C      1  0.4828210000000  0.4224370000000  0.4635500000000 1.0
C      1  0.4889330000000  0.5413580000000  0.4713110000000 1.0
C      1  0.4585140000000  0.5527580000000  0.4003720000000 1.0
C      1  0.5462030000000  0.4920550000000  0.5333450000000 1.0
C      1  0.4739310000000  0.4225650000000  0.5886410000000 1.0
C      1  0.4681020000000  0.5283320000000  0.5551010000000 1.0
C      1  0.5866490000000  0.4244090000000  0.5024180000000 1.0
C      1  0.3829450000000  0.4986800000000  0.5701610000000 1.0
C      1  0.5746310000000  0.5158000000000  0.5717790000000 1.0
C      1  0.4651370000000  0.4803200000000  0.4472710000000 1.0
C      1  0.5204450000000  0.4832480000000  0.5706370000000 1.0
C      1  0.4930040000000  0.3906940000000  0.5579320000000 1.0
C      1  0.5678320000000  0.4459140000000  0.4490870000000 1.0
C      1  0.4364540000000  0.5791490000000  0.5775430000000 1.0
C      1  0.4925580000000  0.4503750000000  0.5520620000000 1.0
C      1  0.4848810000000  0.5618340000000  0.5863490000000 1.0
C      1  0.3856400000000  0.5059220000000  0.5931460000000 1.0
C      1  0.4050390000000  0.5274060000000  0.5037700000000 1.0
C      1  0.4204110000000  0.4872000000000  0.4365360000000 1.0
C      1  0.4861870000000  0.4966670000000  0.4868200000000 1.0
C      1  0.4717390000000  0.3960810000000  0.5213020000000 1.0
C      1  0.5004630000000  0.5942620000000  0.4558310000000 1.0
C      1  0.4973770000000  0.4852930000000  0.5074650000000 1.0
C      1  0.4997600000000  0.6003720000000  0.5507880000000 1.0
C      1  0.6205260000000  0.5020820000000  0.4873700000000 1.0
C      1  0.5467830000000  0.5131850000000  0.3979360000000 1.0
C      1  0.5603350000000  0.5427360000000  0.4317020000000 1.0
C      1  0.5480410000000  0.4682060000000  0.3945600000000 1.0
C      1  0.3963260000000  0.5049660000000  0.4865780000000 1.0
C      1  0.5775150000000  0.5574480000000  0.5654460000000 1.0
C      1  0.4373240000000  0.4850880000000  0.5666810000000 1.0
C      1  0.5834050000000  0.5237310000000  0.4283300000000 1.0
C      1  0.6240610000000  0.4913640000000  0.5154360000000 1.0
C      1  0.4767940000000  0.4719570000000  0.3925260000000 1.0
C      1  0.5006130000000  0.5020130000000  0.5291140000000 1.0
C      1  0.4241220000000  0.4226560000000  0.4968430000000 1.0
C      1  0.4281360000000  0.5286040000000  0.5227470000000 1.0
C      1  0.5179320000000  0.4415190000000  0.5579760000000 1.0
C      1  0.4555150000000  0.5334460000000  0.5152170000000 1.0
C      1  0.4574450000000  0.5713830000000  0.4489170000000 1.0
C      1  0.4457000000000  0.5075080000000  0.5889350000000 1.0
C      1  0.5461470000000  0.4637950000000  0.5245630000000 1.0
C      1  0.5023140000000  0.4888300000000  0.3957240000000 1.0
C      1  0.6128090000000  0.4797910000000  0.4718360000000 1.0
C      1  0.5315200000000  0.4909740000000  0.3874640000000 1.0
C      1  0.5839400000000  0.4635030000000  0.4314090000000 1.0
C      1  0.5541890000000  0.4266800000000  0.5775450000000 1.0
C      1  0.4399260000000  0.4873740000000  0.4869240000000 1.0
C      1  0.4899590000000  0.4852180000000  0.4604390000000 1.0
C      1  0.4044160000000  0.5674370000000  0.5314180000000 1.0
C      1  0.4690800000000  0.5946980000000  0.5457470000000 1.0
C      1  0.4515260000000  0.4659180000000  0.5863670000000 1.0
C      1  0.4806670000000  0.5251150000000  0.4948860000000 1.0
C      1  0.4371850000000  0.5357840000000  0.5942080000000 1.0
C      1  0.5187840000000  0.5931400000000  0.4332930000000 1.0
C      1  0.5249460000000  0.6065040000000  0.5355830000000 1.0
C      1  0.5423540000000  0.4627470000000  0.4931020000000 1.0
C      1  0.4699960000000  0.3987110000000  0.5705580000000 1.0
C      1  0.4147850000000  0.5561400000000  0.4671840000000 1.0
C      1  0.5223320000000  0.4171630000000  0.5200490000000 1.0
C      1  0.3908100000000  0.4552670000000  0.5019740000000 1.0
END
