TITL C-884142-5251-342 20.5627845724905 125000 -26954.0533857847 0 0 178 (C1) n - 1
REM
REM in /home/nfs/bkarasulu/CARBON/AIRSS/Generating-Clusters/ReaxFF-fromJPCA2015/Units_Real/with-SteepDescent/Only-C1/SD-CG/Try1-3A/FIRE-CG
REM
REM
REM
REM
REM
REM ./C.cell (11c1c37f851c82e70ff6c80c92926a4b)
REM
REM compiler GCC version 9.2.1 20190827 (Red Hat 9.2.1-1)
REM options -cpp -mtune=generic -march=x86-64 -g -O0 -fpre-include=/usr/include/finclude/math-vector-fortran.h
REM seed 189237063 -1033122101 -1755826954 -2122665439 1679908456 1002929014 2114807002 -2080026915 -1330009051 -516721634 -1835602848 562550996 -1405846893 371085075 700199670 -502833703 -467818239 -1086900690 -1123604460 -1361424701 848427951 1419795950 1129840224 1378519391 -1501005299 -2130355248 544460592 313204367 -1966505076 -1203729982 -1702207998 1900120018 -1495979334
REM
CELL 1.54180   50.00000   50.00000   50.00000   90.00000   90.00000   90.00000
LATT -1
SFAC C  
C      1  0.4832490000000  0.4477160000000  0.5986970000000 1.0
C      1  0.5784290000000  0.4276510000000  0.4732100000000 1.0
C      1  0.4582810000000  0.4647760000000  0.5330080000000 1.0
C      1  0.3718470000000  0.4819090000000  0.5179470000000 1.0
C      1  0.5768070000000  0.5159320000000  0.4938050000000 1.0
C      1  0.5441280000000  0.5810790000000  0.5741580000000 1.0
C      1  0.5600930000000  0.5131610000000  0.4408430000000 1.0
C      1  0.4707780000000  0.5486580000000  0.4062870000000 1.0
C      1  0.6039770000000  0.5496020000000  0.4731980000000 1.0
C      1  0.4935920000000  0.5497270000000  0.5232590000000 1.0
C      1  0.5597610000000  0.5562020000000  0.5801760000000 1.0
C      1  0.4331600000000  0.5802960000000  0.5096430000000 1.0
C      1  0.4624890000000  0.4123000000000  0.4967360000000 1.0
C      1  0.4671640000000  0.4543890000000  0.5073790000000 1.0
C      1  0.5583960000000  0.4771760000000  0.5533790000000 1.0
C      1  0.5109440000000  0.5631860000000  0.5928000000000 1.0
C      1  0.5793400000000  0.4420190000000  0.5185970000000 1.0
C      1  0.5403520000000  0.5386310000000  0.4850290000000 1.0
C      1  0.5505050000000  0.5498340000000  0.5100140000000 1.0
C      1  0.4419210000000  0.5218020000000  0.4589880000000 1.0
C      1  0.5343330000000  0.4690320000000  0.5963390000000 1.0
C      1  0.5085450000000  0.5650590000000  0.5022590000000 1.0
C      1  0.5917250000000  0.4497800000000  0.5453500000000 1.0
C      1  0.5179030000000  0.4958760000000  0.4292310000000 1.0
C      1  0.4693170000000  0.5808450000000  0.5527990000000 1.0
C      1  0.5347440000000  0.4464500000000  0.5082970000000 1.0
C      1  0.4501700000000  0.5019760000000  0.4747180000000 1.0
C      1  0.5231420000000  0.4872710000000  0.5367330000000 1.0
C      1  0.4406730000000  0.5096080000000  0.5245640000000 1.0
C      1  0.5298920000000  0.4241370000000  0.4908940000000 1.0
C      1  0.5122430000000  0.4474590000000  0.4005740000000 1.0
C      1  0.4710150000000  0.5571210000000  0.4330230000000 1.0
C      1  0.4338860000000  0.4143820000000  0.4943760000000 1.0
C      1  0.5825560000000  0.5612590000000  0.5146340000000 1.0
C      1  0.4395990000000  0.5224510000000  0.4113220000000 1.0
C      1  0.5310900000000  0.5271830000000  0.5566530000000 1.0
C      1  0.4845870000000  0.4807530000000  0.4537910000000 1.0
C      1  0.4680670000000  0.4934850000000  0.5311110000000 1.0
C      1  0.4126610000000  0.4417040000000  0.4529630000000 1.0
C      1  0.4378240000000  0.5661870000000  0.4676410000000 1.0
C      1  0.4242640000000  0.4689610000000  0.5301760000000 1.0
C      1  0.5326830000000  0.5180740000000  0.4329240000000 1.0
C      1  0.5133970000000  0.5449990000000  0.4749460000000 1.0
C      1  0.5362000000000  0.5748120000000  0.5103850000000 1.0
C      1  0.3991460000000  0.5317200000000  0.5483150000000 1.0
C      1  0.4303140000000  0.5663710000000  0.5557590000000 1.0
C      1  0.4428270000000  0.5092810000000  0.5972010000000 1.0
C      1  0.4997510000000  0.4220820000000  0.5521440000000 1.0
C      1  0.5563860000000  0.5912010000000  0.5498000000000 1.0
C      1  0.4916210000000  0.4671820000000  0.3996990000000 1.0
C      1  0.4951870000000  0.4535460000000  0.5144930000000 1.0
C      1  0.4460940000000  0.4846640000000  0.3939230000000 1.0
C      1  0.5517660000000  0.4503030000000  0.5326180000000 1.0
C      1  0.6190490000000  0.4900080000000  0.5206600000000 1.0
C      1  0.5124160000000  0.4503770000000  0.5862040000000 1.0
C      1  0.5335240000000  0.4843250000000  0.4685400000000 1.0
C      1  0.5144940000000  0.4629800000000  0.4967710000000 1.0
C      1  0.4813460000000  0.5303500000000  0.3877570000000 1.0
C      1  0.4964940000000  0.4022330000000  0.5322370000000 1.0
C      1  0.4109870000000  0.4900490000000  0.4340190000000 1.0
C      1  0.6133020000000  0.4787120000000  0.4950290000000 1.0
C      1  0.3864450000000  0.5308060000000  0.4989780000000 1.0
C      1  0.4909890000000  0.5270640000000  0.4692340000000 1.0
C      1  0.4813390000000  0.5537370000000  0.5497730000000 1.0
C      1  0.4307930000000  0.4342870000000  0.4308350000000 1.0
C      1  0.5448550000000  0.5307700000000  0.5822760000000 1.0
C      1  0.4687940000000  0.4518220000000  0.4572110000000 1.0
C      1  0.5789950000000  0.5510820000000  0.4585910000000 1.0
C      1  0.4183690000000  0.5086710000000  0.5537220000000 1.0
C      1  0.4663340000000  0.4048190000000  0.4480540000000 1.0
C      1  0.5520180000000  0.4639730000000  0.4596310000000 1.0
C      1  0.4952620000000  0.5944610000000  0.5517480000000 1.0
C      1  0.4191600000000  0.4812000000000  0.4070600000000 1.0
C      1  0.5639420000000  0.5757810000000  0.4547300000000 1.0
C      1  0.4773280000000  0.4455710000000  0.5550500000000 1.0
C      1  0.5463810000000  0.4441860000000  0.4383630000000 1.0
C      1  0.4555910000000  0.4499270000000  0.4305200000000 1.0
C      1  0.5388860000000  0.4561310000000  0.4079720000000 1.0
C      1  0.5232530000000  0.5426470000000  0.4193750000000 1.0
C      1  0.5359630000000  0.5992660000000  0.5299390000000 1.0
C      1  0.4224730000000  0.4233280000000  0.5204920000000 1.0
C      1  0.4092570000000  0.4712820000000  0.4599160000000 1.0
C      1  0.5734450000000  0.4421770000000  0.5675490000000 1.0
C      1  0.5074870000000  0.6014690000000  0.5270460000000 1.0
C      1  0.4650160000000  0.5285310000000  0.5943840000000 1.0
C      1  0.5375430000000  0.4810260000000  0.3971540000000 1.0
C      1  0.6131140000000  0.4961520000000  0.4715360000000 1.0
C      1  0.5068720000000  0.4663120000000  0.5373120000000 1.0
C      1  0.4348330000000  0.4799930000000  0.4819710000000 1.0
C      1  0.4373920000000  0.5390780000000  0.4815370000000 1.0
C      1  0.5139320000000  0.5634370000000  0.4463430000000 1.0
C      1  0.5800420000000  0.4940030000000  0.4329560000000 1.0
C      1  0.6190180000000  0.5175740000000  0.5103690000000 1.0
C      1  0.4769110000000  0.5010720000000  0.4341740000000 1.0
C      1  0.3886560000000  0.4776760000000  0.4804740000000 1.0
C      1  0.4205220000000  0.4173210000000  0.4678580000000 1.0
C      1  0.5226120000000  0.3951770000000  0.5196210000000 1.0
C      1  0.5710420000000  0.4189310000000  0.5001060000000 1.0
C      1  0.4071190000000  0.5672430000000  0.5065470000000 1.0
C      1  0.5770690000000  0.5246020000000  0.5434380000000 1.0
C      1  0.5811390000000  0.4948330000000  0.5511460000000 1.0
C      1  0.4235080000000  0.5162440000000  0.4337300000000 1.0
C      1  0.4058010000000  0.4468750000000  0.5204210000000 1.0
C      1  0.5093450000000  0.4209150000000  0.4691200000000 1.0
C      1  0.4424290000000  0.5836710000000  0.5386770000000 1.0
C      1  0.4098760000000  0.5646590000000  0.4649620000000 1.0
C      1  0.4732620000000  0.4736770000000  0.6065750000000 1.0
C      1  0.4864400000000  0.5226740000000  0.6130380000000 1.0
C      1  0.4637750000000  0.4629420000000  0.4050560000000 1.0
C      1  0.5313330000000  0.5207520000000  0.6060870000000 1.0
C      1  0.3919770000000  0.5008360000000  0.4992320000000 1.0
C      1  0.5349710000000  0.5825320000000  0.4536660000000 1.0
C      1  0.4367870000000  0.4086780000000  0.4448050000000 1.0
C      1  0.5072240000000  0.4215140000000  0.4176810000000 1.0
C      1  0.5222880000000  0.4927900000000  0.6081170000000 1.0
C      1  0.4509340000000  0.5850740000000  0.4862050000000 1.0
C      1  0.5207570000000  0.4262110000000  0.4433330000000 1.0
C      1  0.6167560000000  0.5237290000000  0.4818900000000 1.0
C      1  0.4676690000000  0.4116320000000  0.5251260000000 1.0
C      1  0.5632850000000  0.5290880000000  0.4716620000000 1.0
C      1  0.4437760000000  0.4218550000000  0.5407450000000 1.0
C      1  0.4731060000000  0.5281850000000  0.4463030000000 1.0
C      1  0.5459660000000  0.4022710000000  0.5029770000000 1.0
C      1  0.4144690000000  0.5470490000000  0.5685200000000 1.0
C      1  0.4784430000000  0.5866560000000  0.4765840000000 1.0
C      1  0.5268350000000  0.5985710000000  0.4764790000000 1.0
C      1  0.5791960000000  0.5512020000000  0.5596110000000 1.0
C      1  0.5144710000000  0.5834170000000  0.5754370000000 1.0
C      1  0.5232680000000  0.4277080000000  0.5676080000000 1.0
C      1  0.5492580000000  0.4304190000000  0.5553130000000 1.0
C      1  0.5117990000000  0.5053420000000  0.5551240000000 1.0
C      1  0.4396810000000  0.4361080000000  0.5670410000000 1.0
C      1  0.5586770000000  0.5236550000000  0.3950630000000 1.0
C      1  0.4961160000000  0.4965830000000  0.4117270000000 1.0
C      1  0.4228440000000  0.4911760000000  0.5088300000000 1.0
C      1  0.5788710000000  0.5737600000000  0.5420050000000 1.0
C      1  0.3902070000000  0.5559540000000  0.4824530000000 1.0
C      1  0.5405460000000  0.4981860000000  0.5162560000000 1.0
C      1  0.5100680000000  0.5408860000000  0.6103830000000 1.0
C      1  0.5200300000000  0.4915450000000  0.4954720000000 1.0
C      1  0.5016060000000  0.5939110000000  0.4946770000000 1.0
C      1  0.4933450000000  0.4945030000000  0.6136280000000 1.0
C      1  0.4324770000000  0.4642900000000  0.5747100000000 1.0
C      1  0.5507210000000  0.5973100000000  0.4916790000000 1.0
C      1  0.4788430000000  0.5293120000000  0.5090530000000 1.0
C      1  0.5088890000000  0.5224220000000  0.3952540000000 1.0
C      1  0.4958610000000  0.4661380000000  0.5637480000000 1.0
C      1  0.5688960000000  0.4227300000000  0.4470780000000 1.0
C      1  0.5842840000000  0.4677740000000  0.4975740000000 1.0
C      1  0.5912010000000  0.5299270000000  0.5159800000000 1.0
C      1  0.5130050000000  0.4797150000000  0.4491220000000 1.0
C      1  0.4822410000000  0.5041290000000  0.5560940000000 1.0
C      1  0.5795370000000  0.4617280000000  0.4680920000000 1.0
C      1  0.4793730000000  0.4203920000000  0.4716040000000 1.0
C      1  0.5587390000000  0.4665730000000  0.5804160000000 1.0
C      1  0.5769730000000  0.5154820000000  0.4164410000000 1.0
C      1  0.4652740000000  0.4340560000000  0.5804680000000 1.0
C      1  0.4178720000000  0.4800170000000  0.5560280000000 1.0
C      1  0.3950260000000  0.5444930000000  0.5228190000000 1.0
C      1  0.4471170000000  0.4803140000000  0.5947680000000 1.0
C      1  0.5751350000000  0.5892680000000  0.4776660000000 1.0
C      1  0.4865830000000  0.5749960000000  0.4504880000000 1.0
C      1  0.4547980000000  0.5141070000000  0.3899320000000 1.0
C      1  0.5470440000000  0.5502840000000  0.4021560000000 1.0
C      1  0.4223870000000  0.5204130000000  0.5804710000000 1.0
C      1  0.4545350000000  0.4582370000000  0.4820150000000 1.0
C      1  0.6025740000000  0.4772060000000  0.5428690000000 1.0
C      1  0.4733360000000  0.5302940000000  0.5659600000000 1.0
C      1  0.4784590000000  0.5025580000000  0.4788290000000 1.0
C      1  0.5672790000000  0.4913880000000  0.5039160000000 1.0
C      1  0.5474970000000  0.5272220000000  0.5321670000000 1.0
C      1  0.5959950000000  0.5722780000000  0.4901930000000 1.0
C      1  0.5950210000000  0.4827820000000  0.4534120000000 1.0
C      1  0.5344100000000  0.5072160000000  0.3877290000000 1.0
C      1  0.4496020000000  0.5319460000000  0.5078130000000 1.0
C      1  0.4845430000000  0.4113260000000  0.4288870000000 1.0
C      1  0.3840410000000  0.4589210000000  0.5041500000000 1.0
C      1  0.4888110000000  0.5016120000000  0.5057860000000 1.0
END
