TITL C-883726-8501-488 0.676919383630778 125000 -5593.9132789147 0 0 38 (C1) n - 1
REM
REM in /home/nfs/bkarasulu/CARBON/AIRSS/Generating-Clusters/ReaxFF-fromJPCA2015/Units_Real/with-SteepDescent/Only-C1/SD-CG/Try1-3A/FIRE-CG
REM
REM
REM
REM
REM
REM ./C.cell (11c1c37f851c82e70ff6c80c92926a4b)
REM
REM compiler GCC version 9.2.1 20190827 (Red Hat 9.2.1-1)
REM options -cpp -mtune=generic -march=x86-64 -g -O0 -fpre-include=/usr/include/finclude/math-vector-fortran.h
REM seed -1186015986 -1739618035 -280930368 -263850203 1917055172 1884245542 -294119201 -1349302016 -851539506 1465650697 496543087 1684289645 -486295955 785053892 -1722805020 -647638246 -726728832 767586538 -108079512 1078252177 -160060764 69433977 1901378971 -1108988944 -1287169704 56769980 -9218697 -1634567143 -457717975 -466963064 -154926464 243674062 1398325644
REM
CELL 1.54180   50.00000   50.00000   50.00000   90.00000   90.00000   90.00000
LATT -1
SFAC C  
C      1  0.4386830000000  0.4825260000000  0.4971870000000 1.0
C      1  0.4873410000000  0.4395800000000  0.4874700000000 1.0
C      1  0.5479880000000  0.4756270000000  0.5292730000000 1.0
C      1  0.5060800000000  0.4858370000000  0.4405270000000 1.0
C      1  0.4975770000000  0.5422200000000  0.4817120000000 1.0
C      1  0.5526650000000  0.4998590000000  0.5418590000000 1.0
C      1  0.4692100000000  0.5014460000000  0.5543230000000 1.0
C      1  0.5397700000000  0.5570100000000  0.4962250000000 1.0
C      1  0.5169470000000  0.5687170000000  0.5118710000000 1.0
C      1  0.4607100000000  0.5175930000000  0.5309670000000 1.0
C      1  0.5120340000000  0.5314430000000  0.5494220000000 1.0
C      1  0.5188810000000  0.4705620000000  0.4620190000000 1.0
C      1  0.5309330000000  0.5341850000000  0.4781350000000 1.0
C      1  0.5369150000000  0.4609250000000  0.5081790000000 1.0
C      1  0.5017830000000  0.4497160000000  0.4731540000000 1.0
C      1  0.5020500000000  0.5156810000000  0.4455850000000 1.0
C      1  0.4923600000000  0.5614290000000  0.4993800000000 1.0
C      1  0.5268650000000  0.5527440000000  0.5356790000000 1.0
C      1  0.5347870000000  0.4808910000000  0.4842580000000 1.0
C      1  0.4395330000000  0.4921660000000  0.4676150000000 1.0
C      1  0.4593470000000  0.4676770000000  0.4261250000000 1.0
C      1  0.5130190000000  0.4541280000000  0.5227200000000 1.0
C      1  0.4853950000000  0.4760980000000  0.5568500000000 1.0
C      1  0.4549410000000  0.4618810000000  0.5056590000000 1.0
C      1  0.4514220000000  0.5089890000000  0.5047140000000 1.0
C      1  0.5265700000000  0.5314240000000  0.4471470000000 1.0
C      1  0.4831660000000  0.4740250000000  0.4290810000000 1.0
C      1  0.4724870000000  0.4424720000000  0.5138720000000 1.0
C      1  0.5507010000000  0.5445880000000  0.5201220000000 1.0
C      1  0.4902220000000  0.4529160000000  0.5371290000000 1.0
C      1  0.5546840000000  0.5151520000000  0.5162610000000 1.0
C      1  0.4563650000000  0.5149150000000  0.4763610000000 1.0
C      1  0.4457450000000  0.4773780000000  0.4446150000000 1.0
C      1  0.4810440000000  0.5257040000000  0.4648850000000 1.0
C      1  0.5286530000000  0.5085880000000  0.5591640000000 1.0
C      1  0.5413480000000  0.5075020000000  0.4914920000000 1.0
C      1  0.5090040000000  0.4895030000000  0.5605120000000 1.0
C      1  0.4827750000000  0.5269020000000  0.5484510000000 1.0
END
