TITL C-883737-113-425 -29.7092948628319 125000 -15026.8073777913 0 0 100 (C1) n - 1
REM
REM in /home/nfs/bkarasulu/CARBON/AIRSS/Generating-Clusters/ReaxFF-fromJPCA2015/Units_Real/with-SteepDescent/Only-C1/SD-CG/Try1-3A/FIRE-CG
REM
REM
REM
REM
REM
REM ./C.cell (11c1c37f851c82e70ff6c80c92926a4b)
REM
REM compiler GCC version 9.2.1 20190827 (Red Hat 9.2.1-1)
REM options -cpp -mtune=generic -march=x86-64 -g -O0 -fpre-include=/usr/include/finclude/math-vector-fortran.h
REM seed -1366474133 945051554 173434788 -795934360 -348700954 598543954 -1834565799 1928966032 -1502650087 142702436 761443610 -1865639720 -1925395066 -301257548 435170478 60254751 1876096580 -1616858733 1086254683 -1093700516 1354807859 30723032 203431439 -326176303 -592200487 -253450735 1722649884 607514645 702648527 683519234 -1350271773 1603574519 1780868724
REM
CELL 1.54180   50.00000   50.00000   50.00000   90.00000   90.00000   90.00000
LATT -1
SFAC C  
C      1  0.5588490000000  0.4617300000000  0.5525150000000 1.0
C      1  0.5572800000000  0.4607690000000  0.4456600000000 1.0
C      1  0.4764450000000  0.5614990000000  0.5632410000000 1.0
C      1  0.5256290000000  0.4930480000000  0.4876180000000 1.0
C      1  0.5608380000000  0.5265190000000  0.4374120000000 1.0
C      1  0.4335840000000  0.4300510000000  0.4793860000000 1.0
C      1  0.4115500000000  0.4680650000000  0.5362790000000 1.0
C      1  0.4958640000000  0.4350260000000  0.5591860000000 1.0
C      1  0.5138980000000  0.5205320000000  0.4446670000000 1.0
C      1  0.5862160000000  0.5362700000000  0.5231720000000 1.0
C      1  0.3997980000000  0.4867570000000  0.5192270000000 1.0
C      1  0.4640040000000  0.5760340000000  0.4581420000000 1.0
C      1  0.5311560000000  0.5302070000000  0.5748740000000 1.0
C      1  0.4756800000000  0.4818610000000  0.4935730000000 1.0
C      1  0.5397440000000  0.4428540000000  0.5422560000000 1.0
C      1  0.4232720000000  0.4517730000000  0.5137930000000 1.0
C      1  0.4879260000000  0.5803310000000  0.4791760000000 1.0
C      1  0.4708620000000  0.4256680000000  0.5195280000000 1.0
C      1  0.5229120000000  0.5188090000000  0.4745870000000 1.0
C      1  0.5158680000000  0.4284650000000  0.5375080000000 1.0
C      1  0.4710520000000  0.5072100000000  0.5682720000000 1.0
C      1  0.6021360000000  0.4634920000000  0.4622710000000 1.0
C      1  0.4597700000000  0.5441520000000  0.5160810000000 1.0
C      1  0.4576210000000  0.5817870000000  0.5511450000000 1.0
C      1  0.5258350000000  0.4253840000000  0.4406260000000 1.0
C      1  0.5348380000000  0.5153910000000  0.5287230000000 1.0
C      1  0.4489250000000  0.4383240000000  0.4560160000000 1.0
C      1  0.4928090000000  0.4971210000000  0.5435800000000 1.0
C      1  0.5870790000000  0.4714310000000  0.5441790000000 1.0
C      1  0.5201660000000  0.5498820000000  0.5625140000000 1.0
C      1  0.5179280000000  0.5802710000000  0.4766860000000 1.0
C      1  0.4662140000000  0.4984690000000  0.4715450000000 1.0
C      1  0.4909930000000  0.4619400000000  0.4772500000000 1.0
C      1  0.5589770000000  0.5460580000000  0.5276320000000 1.0
C      1  0.5117360000000  0.4086230000000  0.4886900000000 1.0
C      1  0.4149770000000  0.4529990000000  0.4850320000000 1.0
C      1  0.4601650000000  0.5743320000000  0.5221540000000 1.0
C      1  0.5015790000000  0.5479370000000  0.4439560000000 1.0
C      1  0.4443860000000  0.5347410000000  0.5402540000000 1.0
C      1  0.5621020000000  0.4755770000000  0.5079600000000 1.0
C      1  0.4880840000000  0.5460850000000  0.4717630000000 1.0
C      1  0.5031980000000  0.4789460000000  0.5937350000000 1.0
C      1  0.4170680000000  0.5228390000000  0.4874120000000 1.0
C      1  0.5773050000000  0.5081750000000  0.4533590000000 1.0
C      1  0.5255840000000  0.4360910000000  0.4198700000000 1.0
C      1  0.4295990000000  0.5219360000000  0.4472980000000 1.0
C      1  0.5443520000000  0.5118570000000  0.5573170000000 1.0
C      1  0.4896690000000  0.5317560000000  0.5135840000000 1.0
C      1  0.4172780000000  0.4744970000000  0.4652590000000 1.0
C      1  0.5279080000000  0.5805920000000  0.5050170000000 1.0
C      1  0.4902720000000  0.5049050000000  0.5927700000000 1.0
C      1  0.5293790000000  0.4883550000000  0.4144480000000 1.0
C      1  0.4397810000000  0.5688990000000  0.4727520000000 1.0
C      1  0.4140510000000  0.5050400000000  0.4644120000000 1.0
C      1  0.4059490000000  0.5138420000000  0.5133890000000 1.0
C      1  0.5039280000000  0.4535680000000  0.5800190000000 1.0
C      1  0.5526720000000  0.5337200000000  0.4777760000000 1.0
C      1  0.4760040000000  0.4831270000000  0.5234080000000 1.0
C      1  0.5125280000000  0.5198060000000  0.5887790000000 1.0
C      1  0.5515010000000  0.5500400000000  0.4539770000000 1.0
C      1  0.5182960000000  0.4673080000000  0.4771290000000 1.0
C      1  0.5799160000000  0.4785090000000  0.4486800000000 1.0
C      1  0.5907220000000  0.5130590000000  0.5069200000000 1.0
C      1  0.4637960000000  0.5287600000000  0.4685450000000 1.0
C      1  0.4994760000000  0.4209010000000  0.5131970000000 1.0
C      1  0.4530820000000  0.5346510000000  0.4386470000000 1.0
C      1  0.4219770000000  0.5161720000000  0.5387830000000 1.0
C      1  0.5359150000000  0.5145970000000  0.4264850000000 1.0
C      1  0.4776780000000  0.4380310000000  0.4621650000000 1.0
C      1  0.5405460000000  0.4605040000000  0.4219990000000 1.0
C      1  0.5778080000000  0.5609980000000  0.5127830000000 1.0
C      1  0.4713110000000  0.5570660000000  0.4375950000000 1.0
C      1  0.4381520000000  0.4644290000000  0.4479830000000 1.0
C      1  0.4245650000000  0.4901070000000  0.5527630000000 1.0
C      1  0.5773070000000  0.5185430000000  0.4810450000000 1.0
C      1  0.5925280000000  0.4451260000000  0.4839930000000 1.0
C      1  0.4740590000000  0.4887850000000  0.4198110000000 1.0
C      1  0.4620040000000  0.5358270000000  0.5630950000000 1.0
C      1  0.5429650000000  0.4838830000000  0.5639170000000 1.0
C      1  0.5530970000000  0.5724740000000  0.5172360000000 1.0
C      1  0.5057040000000  0.5176800000000  0.5307920000000 1.0
C      1  0.5024960000000  0.5335930000000  0.4898310000000 1.0
C      1  0.4703330000000  0.4383640000000  0.5456820000000 1.0
C      1  0.5020050000000  0.4929050000000  0.4154610000000 1.0
C      1  0.5431910000000  0.4483540000000  0.4709850000000 1.0
C      1  0.5404080000000  0.4933850000000  0.5101600000000 1.0
C      1  0.5067520000000  0.5812960000000  0.5244200000000 1.0
C      1  0.4832730000000  0.5857370000000  0.5084140000000 1.0
C      1  0.4407670000000  0.5423230000000  0.4883340000000 1.0
C      1  0.4901770000000  0.4154970000000  0.4726740000000 1.0
C      1  0.4589540000000  0.4852090000000  0.4464200000000 1.0
C      1  0.5134130000000  0.4781120000000  0.5640510000000 1.0
C      1  0.5646190000000  0.4519170000000  0.4924780000000 1.0
C      1  0.5262880000000  0.5650550000000  0.4540980000000 1.0
C      1  0.4610730000000  0.4666800000000  0.5425020000000 1.0
C      1  0.5306870000000  0.4193580000000  0.4675600000000 1.0
C      1  0.4443550000000  0.4315060000000  0.5070350000000 1.0
C      1  0.5040520000000  0.5673320000000  0.5517000000000 1.0
C      1  0.5884920000000  0.4856500000000  0.5188390000000 1.0
C      1  0.4509870000000  0.4848530000000  0.5630870000000 1.0
END
