TITL C-884134-5972-254 -14.7006655750973 125000 -12210.7119545473 0 0 82 (C1) n - 1
REM
REM in /home/nfs/bkarasulu/CARBON/AIRSS/Generating-Clusters/ReaxFF-fromJPCA2015/Units_Real/with-SteepDescent/Only-C1/SD-CG/Try1-3A/FIRE-CG
REM
REM
REM
REM
REM
REM ./C.cell (11c1c37f851c82e70ff6c80c92926a4b)
REM
REM compiler GCC version 9.2.1 20190827 (Red Hat 9.2.1-1)
REM options -cpp -mtune=generic -march=x86-64 -g -O0 -fpre-include=/usr/include/finclude/math-vector-fortran.h
REM seed 1260243678 -157076761 -87596280 1075769962 -81867605 -1868511026 1404858117 1117482656 -419569319 -1175577726 -28413340 2063526930 1564733694 -1535278607 1922611968 154048143 1584216776 450147206 854239014 2080227351 707646451 361047417 1671743782 -298517577 709053994 -117596970 -199529243 20563453 168308291 -468177753 821777716 -869392051 -1425220327
REM
CELL 1.54180   50.00000   50.00000   50.00000   90.00000   90.00000   90.00000
LATT -1
SFAC C  
C      1  0.5276830000000  0.4553530000000  0.4312580000000 1.0
C      1  0.4964460000000  0.5633640000000  0.4542050000000 1.0
C      1  0.5396180000000  0.5302760000000  0.5555580000000 1.0
C      1  0.5019080000000  0.5837460000000  0.4989340000000 1.0
C      1  0.4805040000000  0.4409630000000  0.4241710000000 1.0
C      1  0.5220620000000  0.5703990000000  0.4576200000000 1.0
C      1  0.5811740000000  0.5024670000000  0.4599430000000 1.0
C      1  0.4878070000000  0.4879750000000  0.5703280000000 1.0
C      1  0.4209440000000  0.4612250000000  0.4966540000000 1.0
C      1  0.4185260000000  0.5009690000000  0.5553050000000 1.0
C      1  0.5399870000000  0.5103670000000  0.4706010000000 1.0
C      1  0.4217790000000  0.5316700000000  0.4955200000000 1.0
C      1  0.4571240000000  0.5656480000000  0.4936100000000 1.0
C      1  0.5204530000000  0.5601450000000  0.5042820000000 1.0
C      1  0.5267380000000  0.4827730000000  0.4983010000000 1.0
C      1  0.5558250000000  0.4492770000000  0.4669010000000 1.0
C      1  0.4837300000000  0.4782140000000  0.5165110000000 1.0
C      1  0.4626740000000  0.4379730000000  0.5091330000000 1.0
C      1  0.5861200000000  0.5309500000000  0.4694740000000 1.0
C      1  0.5477510000000  0.5758700000000  0.4630270000000 1.0
C      1  0.4553620000000  0.4443030000000  0.5373150000000 1.0
C      1  0.5160280000000  0.5100700000000  0.5527400000000 1.0
C      1  0.5547640000000  0.4958630000000  0.4498710000000 1.0
C      1  0.5457860000000  0.4972110000000  0.4975690000000 1.0
C      1  0.4654670000000  0.5046080000000  0.4804000000000 1.0
C      1  0.4999390000000  0.5576280000000  0.5467090000000 1.0
C      1  0.4455850000000  0.4478620000000  0.4867300000000 1.0
C      1  0.4716840000000  0.4613440000000  0.4407420000000 1.0
C      1  0.4502040000000  0.4620130000000  0.4614940000000 1.0
C      1  0.5415820000000  0.4309390000000  0.5081070000000 1.0
C      1  0.4772290000000  0.4454960000000  0.5569070000000 1.0
C      1  0.4907250000000  0.4296160000000  0.5046850000000 1.0
C      1  0.5645180000000  0.4680440000000  0.5341190000000 1.0
C      1  0.4715160000000  0.5518650000000  0.5441180000000 1.0
C      1  0.4296430000000  0.5408150000000  0.5218680000000 1.0
C      1  0.5291560000000  0.5570420000000  0.5462890000000 1.0
C      1  0.5055910000000  0.4453280000000  0.4229560000000 1.0
C      1  0.5623370000000  0.5236710000000  0.5390590000000 1.0
C      1  0.4799390000000  0.4616600000000  0.5824410000000 1.0
C      1  0.4164080000000  0.4795730000000  0.5346950000000 1.0
C      1  0.5106570000000  0.5187530000000  0.4717590000000 1.0
C      1  0.4908670000000  0.4868120000000  0.4408850000000 1.0
C      1  0.4395840000000  0.4855720000000  0.5687210000000 1.0
C      1  0.5888930000000  0.4846010000000  0.4821630000000 1.0
C      1  0.5626300000000  0.5631440000000  0.4841770000000 1.0
C      1  0.5448490000000  0.5629400000000  0.5207160000000 1.0
C      1  0.4630740000000  0.5038250000000  0.5698790000000 1.0
C      1  0.4929780000000  0.4949870000000  0.4698440000000 1.0
C      1  0.5014480000000  0.4706440000000  0.4915630000000 1.0
C      1  0.4947400000000  0.5339740000000  0.4459610000000 1.0
C      1  0.5104770000000  0.5197710000000  0.5245630000000 1.0
C      1  0.5499250000000  0.4665270000000  0.4436310000000 1.0
C      1  0.4324010000000  0.4875830000000  0.5100430000000 1.0
C      1  0.4005790000000  0.4791810000000  0.4839250000000 1.0
C      1  0.5751090000000  0.4586740000000  0.4862510000000 1.0
C      1  0.5424290000000  0.4622690000000  0.5530720000000 1.0
C      1  0.5086260000000  0.5320060000000  0.5004030000000 1.0
C      1  0.5156880000000  0.4298630000000  0.5225930000000 1.0
C      1  0.4818200000000  0.5740040000000  0.4794720000000 1.0
C      1  0.5353730000000  0.4890720000000  0.5553920000000 1.0
C      1  0.4576170000000  0.5300600000000  0.4701400000000 1.0
C      1  0.5677230000000  0.4971770000000  0.5238640000000 1.0
C      1  0.4567360000000  0.5300350000000  0.5585480000000 1.0
C      1  0.4939080000000  0.4688480000000  0.5434450000000 1.0
C      1  0.4634350000000  0.5303300000000  0.4418610000000 1.0
C      1  0.4969070000000  0.5101430000000  0.4246110000000 1.0
C      1  0.4402030000000  0.5464760000000  0.4807010000000 1.0
C      1  0.5905580000000  0.5026710000000  0.5048940000000 1.0
C      1  0.5057540000000  0.4399180000000  0.4825920000000 1.0
C      1  0.5863740000000  0.5307740000000  0.4989540000000 1.0
C      1  0.4469650000000  0.5065190000000  0.4354320000000 1.0
C      1  0.4620780000000  0.4939400000000  0.5086070000000 1.0
C      1  0.5684600000000  0.5444660000000  0.5197100000000 1.0
C      1  0.5166720000000  0.4482810000000  0.5447500000000 1.0
C      1  0.4356050000000  0.4627450000000  0.5493500000000 1.0
C      1  0.4531080000000  0.5581250000000  0.5212040000000 1.0
C      1  0.5649550000000  0.4490880000000  0.5123710000000 1.0
C      1  0.5748870000000  0.5562060000000  0.4610920000000 1.0
C      1  0.4410530000000  0.4906330000000  0.4606610000000 1.0
C      1  0.4182470000000  0.5040490000000  0.4841230000000 1.0
C      1  0.4300450000000  0.5272000000000  0.5478580000000 1.0
C      1  0.5342430000000  0.4335410000000  0.4800680000000 1.0
END
