TITL C-883741-3679-157 -5.78552104651309e-09 125000 -3494.04170267664 0 0 25 (C1) n - 1
REM
REM in /home/nfs/bkarasulu/CARBON/AIRSS/Generating-Clusters/ReaxFF-fromJPCA2015/Units_Real/with-SteepDescent/Only-C1/SD-CG/Try1-3A/FIRE-CG
REM
REM
REM
REM
REM
REM ./C.cell (11c1c37f851c82e70ff6c80c92926a4b)
REM
REM compiler GCC version 9.2.1 20190827 (Red Hat 9.2.1-1)
REM options -cpp -mtune=generic -march=x86-64 -g -O0 -fpre-include=/usr/include/finclude/math-vector-fortran.h
REM seed -2132567571 158457181 883891930 1845103037 -634281572 -142751330 -540137402 -209727956 2113739862 119018471 2123271739 -2516369 1344520617 1442053632 -670297081 742707268 -368628045 -1597844775 -1303168375 -701014316 -1024144471 -908488985 1937812644 -72053414 1825649162 1178790118 1995137021 -1942436850 -2059079618 1988612895 -1087109897 284412474 1213867370
REM
CELL 1.54180   50.00000   50.00000   50.00000   90.00000   90.00000   90.00000
LATT -1
SFAC C  
C      1  0.5166060000000  0.4669440000000  0.5155360000000 1.0
C      1  0.4837690000000  0.5306430000000  0.5388090000000 1.0
C      1  0.5057000000000  0.4853890000000  0.4535060000000 1.0
C      1  0.5277030000000  0.5387950000000  0.5139150000000 1.0
C      1  0.4703190000000  0.4627500000000  0.4490390000000 1.0
C      1  0.4831100000000  0.5532010000000  0.5025520000000 1.0
C      1  0.5352710000000  0.4946620000000  0.4582900000000 1.0
C      1  0.5346030000000  0.4862540000000  0.5244760000000 1.0
C      1  0.5269570000000  0.4834110000000  0.5536250000000 1.0
C      1  0.4622600000000  0.4411410000000  0.4414580000000 1.0
C      1  0.4948500000000  0.4482000000000  0.5140350000000 1.0
C      1  0.5553850000000  0.4832280000000  0.4455600000000 1.0
C      1  0.5398360000000  0.5162350000000  0.4813470000000 1.0
C      1  0.5403330000000  0.5120240000000  0.5101310000000 1.0
C      1  0.5263820000000  0.5422780000000  0.4844410000000 1.0
C      1  0.4815960000000  0.4637420000000  0.5385020000000 1.0
C      1  0.4730920000000  0.5354650000000  0.4810990000000 1.0
C      1  0.4668580000000  0.5065460000000  0.4825170000000 1.0
C      1  0.5013040000000  0.4689270000000  0.5600350000000 1.0
C      1  0.4659250000000  0.5124520000000  0.5509680000000 1.0
C      1  0.4983480000000  0.5497820000000  0.4777480000000 1.0
C      1  0.5013760000000  0.5468800000000  0.5253390000000 1.0
C      1  0.4781980000000  0.4881980000000  0.4583280000000 1.0
C      1  0.4645470000000  0.4866480000000  0.5317520000000 1.0
C      1  0.4656730000000  0.4962080000000  0.5069920000000 1.0
END
