TITL C-883738-3659-198 13.5217629354922 125000 -11750.3564989217 0 0 81 (C1) n - 1
REM
REM in /home/nfs/bkarasulu/CARBON/AIRSS/Generating-Clusters/ReaxFF-fromJPCA2015/Units_Real/with-SteepDescent/Only-C1/SD-CG/Try1-3A/FIRE-CG
REM
REM
REM
REM
REM
REM ./C.cell (11c1c37f851c82e70ff6c80c92926a4b)
REM
REM compiler GCC version 9.2.1 20190827 (Red Hat 9.2.1-1)
REM options -cpp -mtune=generic -march=x86-64 -g -O0 -fpre-include=/usr/include/finclude/math-vector-fortran.h
REM seed 1790160348 983336446 -458199156 -2090913774 146479331 236118792 336522059 -610709123 1850700166 622679857 -2095521709 -371784821 -632413332 1873445882 2121089194 -872515316 644628873 996947557 993937110 -2011709218 -1748123721 160276298 -911287439 1032293851 -1721333143 1174980204 1887801134 -1561599930 115439809 1410063780 1285768103 -484765561 -1432412945
REM
CELL 1.54180   50.00000   50.00000   50.00000   90.00000   90.00000   90.00000
LATT -1
SFAC C  
C      1  0.4442510000000  0.5864310000000  0.5431590000000 1.0
C      1  0.4184720000000  0.5226440000000  0.5215690000000 1.0
C      1  0.5078930000000  0.4492330000000  0.4278160000000 1.0
C      1  0.4567120000000  0.4348870000000  0.4892090000000 1.0
C      1  0.5124840000000  0.5696060000000  0.4521760000000 1.0
C      1  0.4994050000000  0.5398130000000  0.5765950000000 1.0
C      1  0.5278090000000  0.4958400000000  0.4262120000000 1.0
C      1  0.5263010000000  0.5542910000000  0.5685340000000 1.0
C      1  0.5031230000000  0.4769860000000  0.5421110000000 1.0
C      1  0.4685870000000  0.4690740000000  0.5638700000000 1.0
C      1  0.4648380000000  0.4042410000000  0.4998010000000 1.0
C      1  0.4294610000000  0.4765330000000  0.5357420000000 1.0
C      1  0.4763750000000  0.5036610000000  0.4911910000000 1.0
C      1  0.5406930000000  0.4912470000000  0.4528310000000 1.0
C      1  0.5878890000000  0.4936060000000  0.4918040000000 1.0
C      1  0.4853300000000  0.5807480000000  0.4909690000000 1.0
C      1  0.4146980000000  0.4956410000000  0.5297090000000 1.0
C      1  0.5343960000000  0.4678550000000  0.4674150000000 1.0
C      1  0.4190040000000  0.5071690000000  0.4719330000000 1.0
C      1  0.5815610000000  0.4592750000000  0.4685300000000 1.0
C      1  0.5291890000000  0.5451130000000  0.4561820000000 1.0
C      1  0.4944870000000  0.4349510000000  0.4498570000000 1.0
C      1  0.4664610000000  0.4587350000000  0.5132590000000 1.0
C      1  0.5379650000000  0.5190810000000  0.4166890000000 1.0
C      1  0.4476820000000  0.5821620000000  0.5149170000000 1.0
C      1  0.5591230000000  0.5296760000000  0.5321970000000 1.0
C      1  0.4284080000000  0.4395490000000  0.4802650000000 1.0
C      1  0.4859570000000  0.3883260000000  0.5053260000000 1.0
C      1  0.5325690000000  0.5846570000000  0.4970020000000 1.0
C      1  0.5171810000000  0.5831420000000  0.5230930000000 1.0
C      1  0.5782260000000  0.4746100000000  0.5151000000000 1.0
C      1  0.5488370000000  0.4760960000000  0.5666330000000 1.0
C      1  0.5061740000000  0.4022210000000  0.5029890000000 1.0
C      1  0.4706230000000  0.4984890000000  0.5699350000000 1.0
C      1  0.4985020000000  0.5114250000000  0.5071470000000 1.0
C      1  0.5547650000000  0.5657910000000  0.4966290000000 1.0
C      1  0.4649610000000  0.5500740000000  0.4580210000000 1.0
C      1  0.4634750000000  0.4723110000000  0.4249570000000 1.0
C      1  0.5223880000000  0.4458490000000  0.4528790000000 1.0
C      1  0.5192510000000  0.4407330000000  0.5594660000000 1.0
C      1  0.4969990000000  0.4596580000000  0.5653620000000 1.0
C      1  0.4545420000000  0.5246000000000  0.5631140000000 1.0
C      1  0.5546220000000  0.4614250000000  0.5213170000000 1.0
C      1  0.5139480000000  0.4504660000000  0.5039210000000 1.0
C      1  0.5286070000000  0.4910340000000  0.5492710000000 1.0
C      1  0.5749260000000  0.5191340000000  0.4859540000000 1.0
C      1  0.4304920000000  0.5268110000000  0.4900460000000 1.0
C      1  0.5329110000000  0.4701060000000  0.4987590000000 1.0
C      1  0.5211160000000  0.5330950000000  0.4801500000000 1.0
C      1  0.4592990000000  0.4826290000000  0.4971000000000 1.0
C      1  0.5257760000000  0.5014540000000  0.5030410000000 1.0
C      1  0.4923070000000  0.5133520000000  0.5763540000000 1.0
C      1  0.4616860000000  0.5757130000000  0.5659170000000 1.0
C      1  0.5241830000000  0.4239000000000  0.4997510000000 1.0
C      1  0.5695910000000  0.4372200000000  0.4757710000000 1.0
C      1  0.5457100000000  0.4514820000000  0.5497630000000 1.0
C      1  0.4783350000000  0.4845880000000  0.4119810000000 1.0
C      1  0.5675520000000  0.5404910000000  0.5048790000000 1.0
C      1  0.5066530000000  0.5398730000000  0.5031530000000 1.0
C      1  0.4718430000000  0.5490910000000  0.5708560000000 1.0
C      1  0.4358340000000  0.5271050000000  0.5431030000000 1.0
C      1  0.4565800000000  0.5769350000000  0.4883720000000 1.0
C      1  0.5241670000000  0.5705850000000  0.5467980000000 1.0
C      1  0.5645870000000  0.5102540000000  0.4584260000000 1.0
C      1  0.4952050000000  0.5670520000000  0.5115050000000 1.0
C      1  0.4455100000000  0.5518360000000  0.4761690000000 1.0
C      1  0.4887100000000  0.5563540000000  0.4497220000000 1.0
C      1  0.4519160000000  0.4614520000000  0.5408600000000 1.0
C      1  0.5395450000000  0.5083030000000  0.5281630000000 1.0
C      1  0.5501040000000  0.4244090000000  0.4865590000000 1.0
C      1  0.4236820000000  0.4578230000000  0.4569280000000 1.0
C      1  0.4171720000000  0.4848320000000  0.4621500000000 1.0
C      1  0.5872820000000  0.4855850000000  0.4642130000000 1.0
C      1  0.5095540000000  0.5852150000000  0.4776710000000 1.0
C      1  0.4943950000000  0.4600210000000  0.5198380000000 1.0
C      1  0.5045130000000  0.4762620000000  0.4163900000000 1.0
C      1  0.4681900000000  0.4402690000000  0.4606080000000 1.0
C      1  0.4523020000000  0.5100900000000  0.5022410000000 1.0
C      1  0.4505020000000  0.4548280000000  0.4429860000000 1.0
C      1  0.5525990000000  0.5427220000000  0.5582120000000 1.0
C      1  0.5510490000000  0.5301750000000  0.4389100000000 1.0
END
