TITL C-883733-4178-125 109.273986861017 125000 -26701.7962172788 0 0 180 (C1) n - 1
REM
REM in /home/nfs/bkarasulu/CARBON/AIRSS/Generating-Clusters/ReaxFF-fromJPCA2015/Units_Real/with-SteepDescent/Only-C1/SD-CG/Try1-3A/FIRE-CG
REM
REM
REM
REM
REM
REM ./C.cell (11c1c37f851c82e70ff6c80c92926a4b)
REM
REM compiler GCC version 9.2.1 20190827 (Red Hat 9.2.1-1)
REM options -cpp -mtune=generic -march=x86-64 -g -O0 -fpre-include=/usr/include/finclude/math-vector-fortran.h
REM seed 852922197 802373969 971293946 80251822 -1805664830 -104967203 -1677054680 598271623 -1623361589 -1155653498 -706271509 1369307269 1509203456 1039777471 1157063609 1083379321 -1346923501 746001087 1995858703 1870463881 477368547 -172680065 1299693991 -225523728 -2133081424 -1365504 -580685908 97396100 1214247540 186188496 487508282 -329985257 2001370422
REM
CELL 1.54180   50.00000   50.00000   50.00000   90.00000   90.00000   90.00000
LATT -1
SFAC C  
C      1  0.5338810000000  0.4367070000000  0.5045730000000 1.0
C      1  0.5080150000000  0.4846440000000  0.6162820000000 1.0
C      1  0.5159090000000  0.6044400000000  0.4994860000000 1.0
C      1  0.4454720000000  0.5776850000000  0.5171910000000 1.0
C      1  0.6019140000000  0.4944360000000  0.4757370000000 1.0
C      1  0.5448010000000  0.4483990000000  0.4757960000000 1.0
C      1  0.4169450000000  0.5135500000000  0.5680510000000 1.0
C      1  0.5480380000000  0.3877250000000  0.4770000000000 1.0
C      1  0.4681260000000  0.4369550000000  0.4773660000000 1.0
C      1  0.5434020000000  0.4904840000000  0.4013760000000 1.0
C      1  0.4845850000000  0.5573500000000  0.4869040000000 1.0
C      1  0.4631990000000  0.4793630000000  0.4665750000000 1.0
C      1  0.5641860000000  0.5692160000000  0.4601150000000 1.0
C      1  0.4435950000000  0.4197920000000  0.4855780000000 1.0
C      1  0.5512080000000  0.4176150000000  0.5258750000000 1.0
C      1  0.4629150000000  0.5124780000000  0.5088780000000 1.0
C      1  0.5588940000000  0.5343370000000  0.4201200000000 1.0
C      1  0.5598850000000  0.5790980000000  0.5376760000000 1.0
C      1  0.5117940000000  0.5446010000000  0.4787730000000 1.0
C      1  0.4250720000000  0.4842250000000  0.4371210000000 1.0
C      1  0.4552870000000  0.4529150000000  0.4118210000000 1.0
C      1  0.5386410000000  0.5770250000000  0.5493450000000 1.0
C      1  0.4406950000000  0.4127100000000  0.4332010000000 1.0
C      1  0.4571550000000  0.4925150000000  0.5292830000000 1.0
C      1  0.4847180000000  0.5584810000000  0.3968340000000 1.0
C      1  0.5051350000000  0.4693590000000  0.4116080000000 1.0
C      1  0.4927520000000  0.5046040000000  0.5544240000000 1.0
C      1  0.5463210000000  0.3897070000000  0.5196910000000 1.0
C      1  0.5337740000000  0.4737680000000  0.6286630000000 1.0
C      1  0.5014980000000  0.6095620000000  0.5230260000000 1.0
C      1  0.5793280000000  0.4710780000000  0.4369780000000 1.0
C      1  0.5924600000000  0.4757700000000  0.5480010000000 1.0
C      1  0.5100180000000  0.5951350000000  0.5472890000000 1.0
C      1  0.4338820000000  0.5768890000000  0.5565090000000 1.0
C      1  0.3993170000000  0.5470580000000  0.4926100000000 1.0
C      1  0.4081380000000  0.4804990000000  0.5084300000000 1.0
C      1  0.5319030000000  0.5288310000000  0.5951320000000 1.0
C      1  0.4998140000000  0.3869870000000  0.4711240000000 1.0
C      1  0.4903200000000  0.4697290000000  0.4383540000000 1.0
C      1  0.5102790000000  0.5449820000000  0.4003530000000 1.0
C      1  0.4753290000000  0.4132750000000  0.5899140000000 1.0
C      1  0.4706420000000  0.5171190000000  0.3892490000000 1.0
C      1  0.5798700000000  0.5447030000000  0.4567730000000 1.0
C      1  0.4763160000000  0.5180220000000  0.4730370000000 1.0
C      1  0.5179940000000  0.5027570000000  0.5955850000000 1.0
C      1  0.6115000000000  0.5191490000000  0.5240500000000 1.0
C      1  0.5688350000000  0.5198950000000  0.4444170000000 1.0
C      1  0.5313070000000  0.4789750000000  0.4477930000000 1.0
C      1  0.4992050000000  0.5918380000000  0.4297090000000 1.0
C      1  0.5051780000000  0.4764010000000  0.5199550000000 1.0
C      1  0.4881880000000  0.5382490000000  0.4377790000000 1.0
C      1  0.4791380000000  0.5863070000000  0.4791190000000 1.0
C      1  0.4590620000000  0.5429860000000  0.3966740000000 1.0
C      1  0.5369280000000  0.5074120000000  0.4532610000000 1.0
C      1  0.4638490000000  0.4273730000000  0.4178270000000 1.0
C      1  0.4402620000000  0.4757630000000  0.4103850000000 1.0
C      1  0.4757310000000  0.4427400000000  0.5364070000000 1.0
C      1  0.5486520000000  0.4695160000000  0.4242470000000 1.0
C      1  0.5774180000000  0.5194100000000  0.5662510000000 1.0
C      1  0.4550990000000  0.5019640000000  0.4830920000000 1.0
C      1  0.5651340000000  0.4297830000000  0.5479090000000 1.0
C      1  0.5666870000000  0.3930390000000  0.4963950000000 1.0
C      1  0.5311520000000  0.5568040000000  0.4983020000000 1.0
C      1  0.4139440000000  0.5136450000000  0.5359360000000 1.0
C      1  0.5260960000000  0.4498300000000  0.4148380000000 1.0
C      1  0.4280090000000  0.4689560000000  0.5587970000000 1.0
C      1  0.3946770000000  0.5046350000000  0.5136820000000 1.0
C      1  0.5100810000000  0.5011900000000  0.5051950000000 1.0
C      1  0.4989650000000  0.5462630000000  0.5578850000000 1.0
C      1  0.4376710000000  0.5098480000000  0.4350960000000 1.0
C      1  0.5903680000000  0.4430670000000  0.5036730000000 1.0
C      1  0.5754940000000  0.5796880000000  0.4866670000000 1.0
C      1  0.5366950000000  0.5854720000000  0.5000720000000 1.0
C      1  0.4254410000000  0.4411190000000  0.5447600000000 1.0
C      1  0.5203620000000  0.4322880000000  0.5599400000000 1.0
C      1  0.4302680000000  0.5848610000000  0.4925910000000 1.0
C      1  0.5775180000000  0.4896310000000  0.5676640000000 1.0
C      1  0.4962880000000  0.4503040000000  0.5611030000000 1.0
C      1  0.4878880000000  0.3990910000000  0.5698660000000 1.0
C      1  0.5296250000000  0.4602980000000  0.5189700000000 1.0
C      1  0.4490800000000  0.4272360000000  0.5361770000000 1.0
C      1  0.5360990000000  0.5126240000000  0.5031470000000 1.0
C      1  0.4419160000000  0.5484190000000  0.4678920000000 1.0
C      1  0.5082020000000  0.5414610000000  0.5842320000000 1.0
C      1  0.5465200000000  0.4416300000000  0.5662240000000 1.0
C      1  0.4433920000000  0.5266520000000  0.5762980000000 1.0
C      1  0.5992350000000  0.5415310000000  0.4794120000000 1.0
C      1  0.4975290000000  0.4395490000000  0.4759300000000 1.0
C      1  0.5888100000000  0.4949670000000  0.4494110000000 1.0
C      1  0.4534590000000  0.5999480000000  0.4823270000000 1.0
C      1  0.5551730000000  0.4689130000000  0.6091480000000 1.0
C      1  0.5208720000000  0.6065810000000  0.5763850000000 1.0
C      1  0.5322900000000  0.5499190000000  0.4256810000000 1.0
C      1  0.5923690000000  0.4526320000000  0.4542920000000 1.0
C      1  0.4059990000000  0.4828320000000  0.4588340000000 1.0
C      1  0.4868980000000  0.5765570000000  0.5553970000000 1.0
C      1  0.4177330000000  0.4382350000000  0.4901820000000 1.0
C      1  0.4749390000000  0.4675680000000  0.5183140000000 1.0
C      1  0.5005560000000  0.5174180000000  0.4850460000000 1.0
C      1  0.4924350000000  0.4211580000000  0.5234180000000 1.0
C      1  0.5880490000000  0.5579110000000  0.5001930000000 1.0
C      1  0.5539210000000  0.4289000000000  0.4555980000000 1.0
C      1  0.5637200000000  0.5908580000000  0.5122300000000 1.0
C      1  0.5358770000000  0.4097420000000  0.4422250000000 1.0
C      1  0.4636790000000  0.5027070000000  0.5593130000000 1.0
C      1  0.5597680000000  0.4724400000000  0.4807400000000 1.0
C      1  0.5268740000000  0.3864160000000  0.4589410000000 1.0
C      1  0.4051850000000  0.5607160000000  0.4519280000000 1.0
C      1  0.4841060000000  0.5662260000000  0.4255240000000 1.0
C      1  0.5802010000000  0.4518760000000  0.5319040000000 1.0
C      1  0.5495520000000  0.5000860000000  0.4794150000000 1.0
C      1  0.5733910000000  0.5076690000000  0.5182090000000 1.0
C      1  0.4729450000000  0.5396890000000  0.5101950000000 1.0
C      1  0.5201740000000  0.5942260000000  0.4504770000000 1.0
C      1  0.5170750000000  0.3885470000000  0.5221630000000 1.0
C      1  0.5560730000000  0.5372770000000  0.5789270000000 1.0
C      1  0.4136830000000  0.5642640000000  0.5406730000000 1.0
C      1  0.5096690000000  0.4063090000000  0.5477200000000 1.0
C      1  0.4597650000000  0.5902540000000  0.5401750000000 1.0
C      1  0.5052790000000  0.4780950000000  0.5532620000000 1.0
C      1  0.4177110000000  0.5278290000000  0.4222430000000 1.0
C      1  0.4648030000000  0.4625710000000  0.4903880000000 1.0
C      1  0.4524180000000  0.5508110000000  0.5255430000000 1.0
C      1  0.4632670000000  0.4931570000000  0.4037480000000 1.0
C      1  0.4499910000000  0.4086050000000  0.5132590000000 1.0
C      1  0.4660940000000  0.5592990000000  0.5959970000000 1.0
C      1  0.5077260000000  0.4291860000000  0.4997030000000 1.0
C      1  0.4330390000000  0.5611560000000  0.4427090000000 1.0
C      1  0.5931310000000  0.5313730000000  0.5440670000000 1.0
C      1  0.3989470000000  0.5327200000000  0.4448850000000 1.0
C      1  0.5474470000000  0.5644260000000  0.5737920000000 1.0
C      1  0.4431200000000  0.5564840000000  0.5763220000000 1.0
C      1  0.4849610000000  0.4453120000000  0.5905300000000 1.0
C      1  0.5534840000000  0.4685230000000  0.5278890000000 1.0
C      1  0.5333710000000  0.5092710000000  0.5495780000000 1.0
C      1  0.3945520000000  0.5100700000000  0.4631550000000 1.0
C      1  0.4256130000000  0.5398760000000  0.5239750000000 1.0
C      1  0.4771640000000  0.4900490000000  0.4460350000000 1.0
C      1  0.5730340000000  0.5381340000000  0.5210430000000 1.0
C      1  0.5152710000000  0.4932600000000  0.3975110000000 1.0
C      1  0.5841270000000  0.4192970000000  0.4901590000000 1.0
C      1  0.4886390000000  0.4160380000000  0.4301000000000 1.0
C      1  0.4897380000000  0.5770580000000  0.5853070000000 1.0
C      1  0.5094840000000  0.4621550000000  0.4594610000000 1.0
C      1  0.5911540000000  0.4659730000000  0.4830660000000 1.0
C      1  0.4619230000000  0.5317550000000  0.6039600000000 1.0
C      1  0.4679370000000  0.5098530000000  0.4296240000000 1.0
C      1  0.5099650000000  0.5246880000000  0.5406920000000 1.0
C      1  0.5007440000000  0.5192420000000  0.3918530000000 1.0
C      1  0.4757420000000  0.3962260000000  0.5156700000000 1.0
C      1  0.4279130000000  0.4870960000000  0.5308960000000 1.0
C      1  0.5416520000000  0.5377200000000  0.5170960000000 1.0
C      1  0.4975570000000  0.3836960000000  0.5006510000000 1.0
C      1  0.4809660000000  0.3991970000000  0.4527110000000 1.0
C      1  0.4515020000000  0.4033520000000  0.4583140000000 1.0
C      1  0.4079610000000  0.4877560000000  0.5761290000000 1.0
C      1  0.3876960000000  0.5198680000000  0.4898620000000 1.0
C      1  0.5285260000000  0.4887930000000  0.5704510000000 1.0
C      1  0.4056840000000  0.5726540000000  0.4791840000000 1.0
C      1  0.5985380000000  0.4931850000000  0.5254010000000 1.0
C      1  0.4868460000000  0.4659470000000  0.6112300000000 1.0
C      1  0.5036800000000  0.6008350000000  0.4747820000000 1.0
C      1  0.4700790000000  0.5429750000000  0.4643900000000 1.0
C      1  0.5166680000000  0.4241700000000  0.4255680000000 1.0
C      1  0.4270820000000  0.5394300000000  0.4905710000000 1.0
C      1  0.5544760000000  0.4961580000000  0.5350530000000 1.0
C      1  0.4369560000000  0.5488310000000  0.4154360000000 1.0
C      1  0.4584110000000  0.6237720000000  0.5009130000000 1.0
C      1  0.5407220000000  0.5738680000000  0.4441730000000 1.0
C      1  0.5204490000000  0.5803700000000  0.5880250000000 1.0
C      1  0.5549330000000  0.4702980000000  0.5790550000000 1.0
C      1  0.5826820000000  0.4259350000000  0.4612730000000 1.0
C      1  0.5163480000000  0.5343050000000  0.4466390000000 1.0
C      1  0.4102290000000  0.4657650000000  0.4832460000000 1.0
C      1  0.4108490000000  0.4362800000000  0.5189390000000 1.0
C      1  0.4640200000000  0.4649240000000  0.5952510000000 1.0
C      1  0.4535390000000  0.4776670000000  0.5720300000000 1.0
C      1  0.4724420000000  0.6138240000000  0.5249150000000 1.0
C      1  0.6085600000000  0.5170310000000  0.4926980000000 1.0
C      1  0.5598040000000  0.5154890000000  0.3972850000000 1.0
END
