TITL C-884137-4758-46 -1155840.23166438 125000 -17062.305188339 0 0 113 (C1) n - 1
REM
REM in /home/nfs/bkarasulu/CARBON/AIRSS/Generating-Clusters/ReaxFF-fromJPCA2015/Units_Real/with-SteepDescent/Only-C1/SD-CG/Try1-3A/FIRE-CG
REM
REM
REM
REM
REM
REM ./C.cell (11c1c37f851c82e70ff6c80c92926a4b)
REM
REM compiler GCC version 9.2.1 20190827 (Red Hat 9.2.1-1)
REM options -cpp -mtune=generic -march=x86-64 -g -O0 -fpre-include=/usr/include/finclude/math-vector-fortran.h
REM seed 1537539893 -1119554077 -240911443 373540876 1213852334 -743338770 916960508 -731701371 -1632406692 1777836450 -1335364506 -914860639 1210866931 -787058116 -1777543280 -359785672 755438702 1892841507 859258906 -1949671961 1103024674 -1478896965 668940525 925332459 758670883 -1331110446 -296223063 -1068992619 -1707013566 -358466196 -689365019 -1090445713 1230838157
REM
CELL 1.54180   50.00000   50.00000   50.00000   90.00000   90.00000   90.00000
LATT -1
SFAC C  
C      1  0.5490610000000  0.4287590000000  0.5146870000000 1.0
C      1  0.4600400000000  0.4744140000000  0.5035470000000 1.0
C      1  0.4800590000000  0.4938830000000  0.5570740000000 1.0
C      1  0.4865680000000  0.5058960000000  0.4470630000000 1.0
C      1  0.5090640000000  0.4421400000000  0.5685410000000 1.0
C      1  0.5771530000000  0.4540100000000  0.4866300000000 1.0
C      1  0.5546180000000  0.4355420000000  0.4867310000000 1.0
C      1  0.5807320000000  0.4744360000000  0.4661780000000 1.0
C      1  0.4101240000000  0.5068670000000  0.5453940000000 1.0
C      1  0.5860650000000  0.4591440000000  0.5138770000000 1.0
C      1  0.5724310000000  0.5265310000000  0.4655240000000 1.0
C      1  0.5014210000000  0.5763020000000  0.4499430000000 1.0
C      1  0.4558900000000  0.5698840000000  0.4739190000000 1.0
C      1  0.5077450000000  0.4209940000000  0.5479730000000 1.0
C      1  0.4815290000000  0.4206120000000  0.5354760000000 1.0
C      1  0.4792680000000  0.5463560000000  0.4074720000000 1.0
C      1  0.5645890000000  0.4946030000000  0.4339390000000 1.0
C      1  0.4601630000000  0.5120860000000  0.4867640000000 1.0
C      1  0.4898740000000  0.5007270000000  0.4165360000000 1.0
C      1  0.4991460000000  0.4795160000000  0.4655470000000 1.0
C      1  0.5485680000000  0.5754310000000  0.4422280000000 1.0
C      1  0.4472570000000  0.4554070000000  0.5556410000000 1.0
C      1  0.4633760000000  0.4660360000000  0.4255030000000 1.0
C      1  0.4841830000000  0.5272960000000  0.5889870000000 1.0
C      1  0.5158550000000  0.4881390000000  0.4129850000000 1.0
C      1  0.4874900000000  0.5147500000000  0.4976420000000 1.0
C      1  0.4951240000000  0.5197430000000  0.5476260000000 1.0
C      1  0.5321940000000  0.5357220000000  0.5259910000000 1.0
C      1  0.4236060000000  0.4582380000000  0.4821400000000 1.0
C      1  0.4442520000000  0.4850300000000  0.5848330000000 1.0
C      1  0.5314350000000  0.4580000000000  0.5579050000000 1.0
C      1  0.4655670000000  0.5612590000000  0.5515350000000 1.0
C      1  0.4583620000000  0.4285980000000  0.4649640000000 1.0
C      1  0.4151720000000  0.5361700000000  0.5465750000000 1.0
C      1  0.4457670000000  0.5000620000000  0.5106210000000 1.0
C      1  0.5096590000000  0.5511930000000  0.4388980000000 1.0
C      1  0.4857470000000  0.4322600000000  0.4556050000000 1.0
C      1  0.4419300000000  0.4849250000000  0.4275720000000 1.0
C      1  0.5168440000000  0.4629180000000  0.4274170000000 1.0
C      1  0.4395720000000  0.5390890000000  0.4401010000000 1.0
C      1  0.5659940000000  0.5473840000000  0.4845930000000 1.0
C      1  0.4147950000000  0.5338380000000  0.4799500000000 1.0
C      1  0.4611660000000  0.5550910000000  0.4291060000000 1.0
C      1  0.5052770000000  0.4130760000000  0.4983770000000 1.0
C      1  0.5246150000000  0.5198460000000  0.5487970000000 1.0
C      1  0.4880180000000  0.4784370000000  0.4961780000000 1.0
C      1  0.5862080000000  0.5024770000000  0.4740760000000 1.0
C      1  0.4337400000000  0.5517620000000  0.4646770000000 1.0
C      1  0.4589470000000  0.4599680000000  0.5820320000000 1.0
C      1  0.4446670000000  0.4497360000000  0.5008130000000 1.0
C      1  0.4358900000000  0.4461340000000  0.4584690000000 1.0
C      1  0.5301320000000  0.5824970000000  0.4619140000000 1.0
C      1  0.4681380000000  0.5029020000000  0.5812290000000 1.0
C      1  0.5999570000000  0.4842210000000  0.5169250000000 1.0
C      1  0.4714150000000  0.5693730000000  0.4990690000000 1.0
C      1  0.4831330000000  0.5244950000000  0.5230770000000 1.0
C      1  0.5264170000000  0.5146590000000  0.4049560000000 1.0
C      1  0.4727300000000  0.5738180000000  0.4511040000000 1.0
C      1  0.5034940000000  0.4818250000000  0.5944350000000 1.0
C      1  0.5802910000000  0.5422420000000  0.5096240000000 1.0
C      1  0.5360960000000  0.5563500000000  0.4253310000000 1.0
C      1  0.4607830000000  0.5066960000000  0.4596130000000 1.0
C      1  0.4221640000000  0.4669980000000  0.5451390000000 1.0
C      1  0.5079940000000  0.5104120000000  0.5916940000000 1.0
C      1  0.5221050000000  0.4187680000000  0.5219380000000 1.0
C      1  0.4891630000000  0.4575660000000  0.5846870000000 1.0
C      1  0.5390320000000  0.4523610000000  0.4416560000000 1.0
C      1  0.4697270000000  0.4705080000000  0.5438240000000 1.0
C      1  0.5914210000000  0.5137510000000  0.5227720000000 1.0
C      1  0.5351820000000  0.4349630000000  0.4647470000000 1.0
C      1  0.4962240000000  0.5817910000000  0.5087560000000 1.0
C      1  0.4362650000000  0.5076650000000  0.4461860000000 1.0
C      1  0.5087680000000  0.4239510000000  0.4711720000000 1.0
C      1  0.5235520000000  0.4866930000000  0.4757800000000 1.0
C      1  0.4453880000000  0.5395060000000  0.5476310000000 1.0
C      1  0.4132200000000  0.4843260000000  0.4902160000000 1.0
C      1  0.5666810000000  0.4756530000000  0.5700000000000 1.0
C      1  0.5063180000000  0.5297810000000  0.4831770000000 1.0
C      1  0.5553950000000  0.5657460000000  0.5535910000000 1.0
C      1  0.5604950000000  0.4503560000000  0.5585780000000 1.0
C      1  0.5476260000000  0.5498490000000  0.5766600000000 1.0
C      1  0.5685640000000  0.4429230000000  0.5310680000000 1.0
C      1  0.5719630000000  0.5556620000000  0.5322550000000 1.0
C      1  0.4839150000000  0.5449040000000  0.5662020000000 1.0
C      1  0.5261040000000  0.5761040000000  0.5074250000000 1.0
C      1  0.5472140000000  0.4888530000000  0.5210980000000 1.0
C      1  0.4739150000000  0.5773690000000  0.5273260000000 1.0
C      1  0.6009730000000  0.5030850000000  0.4980600000000 1.0
C      1  0.4975260000000  0.5241500000000  0.4006290000000 1.0
C      1  0.5304660000000  0.5264150000000  0.4982350000000 1.0
C      1  0.5653150000000  0.4681950000000  0.4410930000000 1.0
C      1  0.4780290000000  0.4103670000000  0.5079950000000 1.0
C      1  0.4062780000000  0.5437470000000  0.5057580000000 1.0
C      1  0.5267490000000  0.4717170000000  0.5318600000000 1.0
C      1  0.4893310000000  0.4570040000000  0.4391970000000 1.0
C      1  0.4835020000000  0.4501150000000  0.5306260000000 1.0
C      1  0.5454410000000  0.5311300000000  0.4166140000000 1.0
C      1  0.4563090000000  0.4235880000000  0.4935470000000 1.0
C      1  0.4211210000000  0.4876680000000  0.5652520000000 1.0
C      1  0.5319350000000  0.5644230000000  0.5334450000000 1.0
C      1  0.4159200000000  0.4876620000000  0.5228070000000 1.0
C      1  0.5035820000000  0.5281390000000  0.4556600000000 1.0
C      1  0.5366000000000  0.5212210000000  0.5760480000000 1.0
C      1  0.5650700000000  0.5215310000000  0.4356180000000 1.0
C      1  0.5431550000000  0.5687080000000  0.4848090000000 1.0
C      1  0.4003890000000  0.5508820000000  0.5267840000000 1.0
C      1  0.4160120000000  0.5059580000000  0.4722810000000 1.0
C      1  0.5625750000000  0.5030780000000  0.5672220000000 1.0
C      1  0.5036580000000  0.4647240000000  0.5165170000000 1.0
C      1  0.4380750000000  0.4581640000000  0.4331190000000 1.0
C      1  0.5413520000000  0.4994910000000  0.4934170000000 1.0
C      1  0.4565210000000  0.5203580000000  0.5297630000000 1.0
C      1  0.5663210000000  0.5022250000000  0.5381330000000 1.0
END
