TITL C-884132-5695-264 -0.0722947698772164 125000 -6694.66003627308 0 0 47 (C1) n - 1
REM
REM in /home/nfs/bkarasulu/CARBON/AIRSS/Generating-Clusters/ReaxFF-fromJPCA2015/Units_Real/with-SteepDescent/Only-C1/SD-CG/Try1-3A/FIRE-CG
REM
REM
REM
REM
REM
REM ./C.cell (11c1c37f851c82e70ff6c80c92926a4b)
REM
REM compiler GCC version 9.2.1 20190827 (Red Hat 9.2.1-1)
REM options -cpp -mtune=generic -march=x86-64 -g -O0 -fpre-include=/usr/include/finclude/math-vector-fortran.h
REM seed -640545198 1046993571 -257643507 -84578818 -1949763043 1477546414 1754117952 -828660597 1614232745 1249222341 1256687370 -924169320 -1616023417 -1948664148 -1030397215 251963030 224429412 767148386 993104792 596398031 1465841966 -1089566706 745089583 -1975569960 -271331297 1438370655 1640605828 1827508343 1209238465 1522833912 420498250 453132200 671579937
REM
CELL 1.54180   50.00000   50.00000   50.00000   90.00000   90.00000   90.00000
LATT -1
SFAC C  
C      1  0.4308640000000  0.4771870000000  0.5311530000000 1.0
C      1  0.4622440000000  0.5506790000000  0.4847560000000 1.0
C      1  0.5051070000000  0.5107340000000  0.5663270000000 1.0
C      1  0.5330830000000  0.4509800000000  0.5228960000000 1.0
C      1  0.5206250000000  0.5469070000000  0.4363510000000 1.0
C      1  0.4937770000000  0.4324250000000  0.4809720000000 1.0
C      1  0.4660750000000  0.5001970000000  0.5480720000000 1.0
C      1  0.5252520000000  0.5166590000000  0.4362140000000 1.0
C      1  0.5018440000000  0.5017340000000  0.4449040000000 1.0
C      1  0.4889270000000  0.5598800000000  0.4797520000000 1.0
C      1  0.5559710000000  0.5157600000000  0.5211650000000 1.0
C      1  0.5493490000000  0.4741260000000  0.4514560000000 1.0
C      1  0.5489310000000  0.5106460000000  0.4813860000000 1.0
C      1  0.5190670000000  0.5425190000000  0.5014780000000 1.0
C      1  0.5072720000000  0.4488720000000  0.5366190000000 1.0
C      1  0.5433260000000  0.4846710000000  0.5582270000000 1.0
C      1  0.4878360000000  0.4989710000000  0.5121080000000 1.0
C      1  0.5464510000000  0.5433300000000  0.5130690000000 1.0
C      1  0.5460020000000  0.5039050000000  0.4533070000000 1.0
C      1  0.4514080000000  0.5193330000000  0.5270300000000 1.0
C      1  0.5010150000000  0.4995830000000  0.4741100000000 1.0
C      1  0.4592640000000  0.4722440000000  0.5403830000000 1.0
C      1  0.4235840000000  0.5055000000000  0.5265650000000 1.0
C      1  0.5257270000000  0.5307580000000  0.5598570000000 1.0
C      1  0.5468840000000  0.5127790000000  0.5498440000000 1.0
C      1  0.4922340000000  0.4415600000000  0.4529550000000 1.0
C      1  0.5181500000000  0.4367190000000  0.4656900000000 1.0
C      1  0.4821310000000  0.4530930000000  0.4981900000000 1.0
C      1  0.5441400000000  0.4666030000000  0.5008180000000 1.0
C      1  0.4753220000000  0.4914800000000  0.4374240000000 1.0
C      1  0.4617590000000  0.5036440000000  0.5032590000000 1.0
C      1  0.4826890000000  0.4758250000000  0.4792580000000 1.0
C      1  0.4485250000000  0.5321800000000  0.4650780000000 1.0
C      1  0.5219070000000  0.5178530000000  0.4846430000000 1.0
C      1  0.4762400000000  0.4661540000000  0.4522830000000 1.0
C      1  0.5319200000000  0.4585340000000  0.5516060000000 1.0
C      1  0.5557250000000  0.4932080000000  0.5019890000000 1.0
C      1  0.5037620000000  0.5552320000000  0.4588640000000 1.0
C      1  0.4538350000000  0.5081520000000  0.4485880000000 1.0
C      1  0.4803720000000  0.4550110000000  0.5273410000000 1.0
C      1  0.4945270000000  0.4965220000000  0.5401340000000 1.0
C      1  0.5400670000000  0.4561770000000  0.4731120000000 1.0
C      1  0.4847170000000  0.5304880000000  0.5626150000000 1.0
C      1  0.5028610000000  0.5484130000000  0.5488970000000 1.0
C      1  0.4468080000000  0.5065280000000  0.4770900000000 1.0
C      1  0.4675840000000  0.5454560000000  0.5124080000000 1.0
C      1  0.4948380000000  0.5507860000000  0.5197530000000 1.0
END
