TITL C-883739-1268-129 1.55712779258603 125000 -12772.9625309584 0 0 87 (C1) n - 1
REM
REM in /home/nfs/bkarasulu/CARBON/AIRSS/Generating-Clusters/ReaxFF-fromJPCA2015/Units_Real/with-SteepDescent/Only-C1/SD-CG/Try1-3A/FIRE-CG
REM
REM
REM
REM
REM
REM ./C.cell (11c1c37f851c82e70ff6c80c92926a4b)
REM
REM compiler GCC version 9.2.1 20190827 (Red Hat 9.2.1-1)
REM options -cpp -mtune=generic -march=x86-64 -g -O0 -fpre-include=/usr/include/finclude/math-vector-fortran.h
REM seed 1538842585 1472066225 735948392 -850334267 1442407405 -1456853606 768074898 -1224398482 -1697554942 -1543303586 982537187 1321411775 1670579407 1320563172 -5658588 1432965665 -1771461405 -1171494646 -1459623638 -353540411 -377118952 -2093444509 -2140517753 1248096673 -747945995 1123921953 1663408698 460568997 -2086666898 -1719282563 1123953337 581005875 2570701
REM
CELL 1.54180   50.00000   50.00000   50.00000   90.00000   90.00000   90.00000
LATT -1
SFAC C  
C      1  0.4376100000000  0.4715920000000  0.4716990000000 1.0
C      1  0.5063380000000  0.4357880000000  0.5530730000000 1.0
C      1  0.5167220000000  0.5924930000000  0.5282950000000 1.0
C      1  0.4574130000000  0.5215220000000  0.5658320000000 1.0
C      1  0.4779630000000  0.5074510000000  0.5483460000000 1.0
C      1  0.5153140000000  0.5419660000000  0.5658760000000 1.0
C      1  0.4288740000000  0.5184400000000  0.5526860000000 1.0
C      1  0.4693600000000  0.5135220000000  0.4744940000000 1.0
C      1  0.4735490000000  0.4192950000000  0.5256580000000 1.0
C      1  0.5947530000000  0.4665500000000  0.5054190000000 1.0
C      1  0.5002440000000  0.5731900000000  0.4621410000000 1.0
C      1  0.4481030000000  0.5649400000000  0.5133790000000 1.0
C      1  0.4578190000000  0.5426610000000  0.5240550000000 1.0
C      1  0.5031110000000  0.4196750000000  0.5277750000000 1.0
C      1  0.5503850000000  0.4268110000000  0.4683070000000 1.0
C      1  0.5007040000000  0.4364960000000  0.4135910000000 1.0
C      1  0.4726290000000  0.5448620000000  0.5667860000000 1.0
C      1  0.5231420000000  0.5289510000000  0.5879460000000 1.0
C      1  0.4995820000000  0.4200330000000  0.4598530000000 1.0
C      1  0.4818390000000  0.4522220000000  0.5580530000000 1.0
C      1  0.5544020000000  0.5160330000000  0.5653960000000 1.0
C      1  0.4814530000000  0.4579070000000  0.4722260000000 1.0
C      1  0.5493950000000  0.4662780000000  0.5186320000000 1.0
C      1  0.5237510000000  0.4162690000000  0.4767960000000 1.0
C      1  0.5735950000000  0.5139910000000  0.5006160000000 1.0
C      1  0.4785510000000  0.5234510000000  0.5240250000000 1.0
C      1  0.4338760000000  0.4470320000000  0.5462560000000 1.0
C      1  0.4888600000000  0.5959800000000  0.5247790000000 1.0
C      1  0.5364560000000  0.4702050000000  0.4599460000000 1.0
C      1  0.5397200000000  0.5771690000000  0.5182330000000 1.0
C      1  0.4761200000000  0.4275150000000  0.4741500000000 1.0
C      1  0.5813260000000  0.4690650000000  0.5553200000000 1.0
C      1  0.5608780000000  0.5111740000000  0.4485220000000 1.0
C      1  0.4846600000000  0.5526250000000  0.4463880000000 1.0
C      1  0.5652710000000  0.5341350000000  0.4314790000000 1.0
C      1  0.5368000000000  0.5329450000000  0.5435250000000 1.0
C      1  0.4356840000000  0.5392160000000  0.5060650000000 1.0
C      1  0.4931810000000  0.4401930000000  0.4372780000000 1.0
C      1  0.5189110000000  0.5340440000000  0.4717450000000 1.0
C      1  0.4980220000000  0.5877010000000  0.5488480000000 1.0
C      1  0.4181040000000  0.4896950000000  0.4831530000000 1.0
C      1  0.5482840000000  0.5665490000000  0.4914790000000 1.0
C      1  0.4420810000000  0.4433850000000  0.5010990000000 1.0
C      1  0.5534610000000  0.4966970000000  0.5219960000000 1.0
C      1  0.4346230000000  0.5002850000000  0.4397710000000 1.0
C      1  0.5605680000000  0.4545180000000  0.4662620000000 1.0
C      1  0.5545680000000  0.5139970000000  0.4780980000000 1.0
C      1  0.5657290000000  0.5468010000000  0.5056940000000 1.0
C      1  0.5550120000000  0.5553320000000  0.5310430000000 1.0
C      1  0.5237210000000  0.4959620000000  0.4152870000000 1.0
C      1  0.4611660000000  0.4345290000000  0.5475460000000 1.0
C      1  0.5185820000000  0.5249590000000  0.4189520000000 1.0
C      1  0.4255930000000  0.5143740000000  0.5242130000000 1.0
C      1  0.5430800000000  0.5140960000000  0.5908700000000 1.0
C      1  0.4596290000000  0.4646420000000  0.4905300000000 1.0
C      1  0.5021890000000  0.5278430000000  0.4454740000000 1.0
C      1  0.4791170000000  0.4787360000000  0.5428760000000 1.0
C      1  0.4691080000000  0.5847650000000  0.5050590000000 1.0
C      1  0.5221960000000  0.4244680000000  0.5054720000000 1.0
C      1  0.4233450000000  0.5111170000000  0.4642650000000 1.0
C      1  0.4570250000000  0.5183100000000  0.4337170000000 1.0
C      1  0.5140380000000  0.4678630000000  0.4807630000000 1.0
C      1  0.4757470000000  0.4696250000000  0.4451740000000 1.0
C      1  0.4277600000000  0.4594760000000  0.5204930000000 1.0
C      1  0.5310270000000  0.5185590000000  0.4917130000000 1.0
C      1  0.4571270000000  0.5441750000000  0.4477770000000 1.0
C      1  0.4808750000000  0.4749460000000  0.5143900000000 1.0
C      1  0.5267740000000  0.5606950000000  0.4718960000000 1.0
C      1  0.5450410000000  0.5365120000000  0.4205900000000 1.0
C      1  0.5319780000000  0.5156410000000  0.5197760000000 1.0
C      1  0.4937910000000  0.5630420000000  0.5650820000000 1.0
C      1  0.4261610000000  0.4944090000000  0.5655590000000 1.0
C      1  0.5295990000000  0.4526410000000  0.5033060000000 1.0
C      1  0.4209600000000  0.4884870000000  0.5126380000000 1.0
C      1  0.4466190000000  0.4737200000000  0.4445140000000 1.0
C      1  0.4441590000000  0.5306610000000  0.4738680000000 1.0
C      1  0.5670290000000  0.4945670000000  0.5498910000000 1.0
C      1  0.5761620000000  0.4577890000000  0.5273790000000 1.0
C      1  0.5923460000000  0.4923020000000  0.4916790000000 1.0
C      1  0.5418200000000  0.4899000000000  0.4391810000000 1.0
C      1  0.4842780000000  0.5789940000000  0.4830160000000 1.0
C      1  0.5860040000000  0.4673040000000  0.4779280000000 1.0
C      1  0.4869930000000  0.5132900000000  0.4978690000000 1.0
C      1  0.5019730000000  0.4878960000000  0.4998760000000 1.0
C      1  0.4794880000000  0.5040430000000  0.4479090000000 1.0
C      1  0.4614900000000  0.4217460000000  0.4993840000000 1.0
C      1  0.4272120000000  0.4692740000000  0.5620020000000 1.0
END
