TITL C-883732-77-270 -4.22150224577659e-08 125000 -6347.47331849707 0 0 44 (C1) n - 1
REM
REM in /home/nfs/bkarasulu/CARBON/AIRSS/Generating-Clusters/ReaxFF-fromJPCA2015/Units_Real/with-SteepDescent/Only-C1/SD-CG/Try1-3A/FIRE-CG
REM
REM
REM
REM
REM
REM ./C.cell (11c1c37f851c82e70ff6c80c92926a4b)
REM
REM compiler GCC version 9.2.1 20190827 (Red Hat 9.2.1-1)
REM options -cpp -mtune=generic -march=x86-64 -g -O0 -fpre-include=/usr/include/finclude/math-vector-fortran.h
REM seed -10137544 1962354331 142589259 -1433809058 -1317441278 -1602243376 -1965393102 1049523621 -1392500802 -164311069 126719271 1219330190 902196766 2040044654 2055872482 1662406689 623568325 1729279034 -1124871693 -360049400 -628290273 372345501 -368880386 908513872 846337146 1932387533 848568628 170202792 -411048663 -1638902501 555929013 -1433320107 642311780
REM
CELL 1.54180   50.00000   50.00000   50.00000   90.00000   90.00000   90.00000
LATT -1
SFAC C  
C      1  0.5447850000000  0.4774730000000  0.5408820000000 1.0
C      1  0.5294770000000  0.5046810000000  0.5511120000000 1.0
C      1  0.5025210000000  0.4944850000000  0.4922470000000 1.0
C      1  0.4750240000000  0.5568800000000  0.5208040000000 1.0
C      1  0.5275070000000  0.5494740000000  0.4752910000000 1.0
C      1  0.5041050000000  0.4522510000000  0.4640490000000 1.0
C      1  0.5091420000000  0.5404260000000  0.4544880000000 1.0
C      1  0.5409930000000  0.5507040000000  0.5272230000000 1.0
C      1  0.4824860000000  0.5352070000000  0.4648580000000 1.0
C      1  0.4655000000000  0.5312910000000  0.5078860000000 1.0
C      1  0.5524560000000  0.4804450000000  0.4872000000000 1.0
C      1  0.4977070000000  0.4644570000000  0.4887440000000 1.0
C      1  0.4651180000000  0.4997980000000  0.4461490000000 1.0
C      1  0.5133360000000  0.5162380000000  0.4375740000000 1.0
C      1  0.5368450000000  0.5329550000000  0.5496610000000 1.0
C      1  0.4602660000000  0.5286910000000  0.4440570000000 1.0
C      1  0.4401440000000  0.5161170000000  0.5170070000000 1.0
C      1  0.4510860000000  0.4668600000000  0.4878500000000 1.0
C      1  0.5555120000000  0.4903640000000  0.4467420000000 1.0
C      1  0.4367920000000  0.5047890000000  0.4913150000000 1.0
C      1  0.5398290000000  0.5295840000000  0.4924020000000 1.0
C      1  0.4567730000000  0.4582550000000  0.5141780000000 1.0
C      1  0.4868700000000  0.4722380000000  0.5512160000000 1.0
C      1  0.5299980000000  0.4536440000000  0.5418980000000 1.0
C      1  0.5209630000000  0.5568160000000  0.5458890000000 1.0
C      1  0.4742030000000  0.5388080000000  0.5577810000000 1.0
C      1  0.5058020000000  0.4926170000000  0.5524150000000 1.0
C      1  0.4840530000000  0.5174860000000  0.4886740000000 1.0
C      1  0.4450190000000  0.4991280000000  0.5417050000000 1.0
C      1  0.5526230000000  0.4661270000000  0.4604700000000 1.0
C      1  0.5246350000000  0.5519630000000  0.5046890000000 1.0
C      1  0.5002110000000  0.4397480000000  0.5215010000000 1.0
C      1  0.5036690000000  0.4670560000000  0.4405000000000 1.0
C      1  0.5300110000000  0.5015540000000  0.4913390000000 1.0
C      1  0.5391130000000  0.5051730000000  0.4393310000000 1.0
C      1  0.4908550000000  0.5583830000000  0.5467470000000 1.0
C      1  0.4589130000000  0.5195560000000  0.5543180000000 1.0
C      1  0.5279720000000  0.4544910000000  0.4501130000000 1.0
C      1  0.4601630000000  0.4745030000000  0.5385840000000 1.0
C      1  0.4820770000000  0.4463050000000  0.5038270000000 1.0
C      1  0.5049420000000  0.4488440000000  0.5439610000000 1.0
C      1  0.4931880000000  0.4941960000000  0.4392580000000 1.0
C      1  0.5514590000000  0.4718720000000  0.5140190000000 1.0
C      1  0.4458600000000  0.4880670000000  0.4700470000000 1.0
END
