TITL C-884141-4321-152 102.285612890638 125000 -25249.2648992668 0 0 171 (C1) n - 1
REM
REM in /home/nfs/bkarasulu/CARBON/AIRSS/Generating-Clusters/ReaxFF-fromJPCA2015/Units_Real/with-SteepDescent/Only-C1/SD-CG/Try1-3A/FIRE-CG
REM
REM
REM
REM
REM
REM ./C.cell (11c1c37f851c82e70ff6c80c92926a4b)
REM
REM compiler GCC version 9.2.1 20190827 (Red Hat 9.2.1-1)
REM options -cpp -mtune=generic -march=x86-64 -g -O0 -fpre-include=/usr/include/finclude/math-vector-fortran.h
REM seed -582238777 -2022498492 1065791104 -997378272 -1916199824 134694429 -547645357 2057660330 1652240903 358002680 -1252410071 -1061429835 -373691726 1495163628 2020130333 467060975 -258196017 -1850912530 2038074685 1644762757 -1694696437 1379304452 -2048487160 34743982 -302430053 -1451809325 493962421 -1146168055 1187725774 203442519 -585230753 498508191 -1631787233
REM
CELL 1.54180   50.00000   50.00000   50.00000   90.00000   90.00000   90.00000
LATT -1
SFAC C  
C      1  0.5567170000000  0.5862510000000  0.5025040000000 1.0
C      1  0.5342400000000  0.4873260000000  0.5977010000000 1.0
C      1  0.4425940000000  0.5398390000000  0.4555320000000 1.0
C      1  0.4938870000000  0.4695430000000  0.5361190000000 1.0
C      1  0.4222480000000  0.4265520000000  0.5179970000000 1.0
C      1  0.4692660000000  0.5434640000000  0.5796390000000 1.0
C      1  0.4741520000000  0.3741040000000  0.4926120000000 1.0
C      1  0.5075890000000  0.3922850000000  0.5293050000000 1.0
C      1  0.4705160000000  0.4779980000000  0.5822960000000 1.0
C      1  0.4440900000000  0.4122370000000  0.5290080000000 1.0
C      1  0.4765450000000  0.4289150000000  0.4139460000000 1.0
C      1  0.5470480000000  0.5183160000000  0.5961350000000 1.0
C      1  0.5646900000000  0.4363070000000  0.5449750000000 1.0
C      1  0.5958810000000  0.5366700000000  0.5394070000000 1.0
C      1  0.5505610000000  0.4390150000000  0.5700730000000 1.0
C      1  0.4515400000000  0.5828410000000  0.5788810000000 1.0
C      1  0.5892550000000  0.4472880000000  0.5018820000000 1.0
C      1  0.5233690000000  0.3983700000000  0.4840570000000 1.0
C      1  0.5184970000000  0.5189800000000  0.4867910000000 1.0
C      1  0.4471730000000  0.4315350000000  0.4093310000000 1.0
C      1  0.5300030000000  0.5648170000000  0.5818820000000 1.0
C      1  0.4761780000000  0.5078190000000  0.5420500000000 1.0
C      1  0.4518420000000  0.5400570000000  0.5154550000000 1.0
C      1  0.4993510000000  0.4832800000000  0.5102730000000 1.0
C      1  0.4628810000000  0.6063190000000  0.5017020000000 1.0
C      1  0.5132280000000  0.5232990000000  0.5727270000000 1.0
C      1  0.5428790000000  0.4254400000000  0.5227560000000 1.0
C      1  0.4244670000000  0.4308080000000  0.4883170000000 1.0
C      1  0.4591220000000  0.5175600000000  0.5898480000000 1.0
C      1  0.4417030000000  0.4406440000000  0.4380200000000 1.0
C      1  0.4137400000000  0.5122720000000  0.5632170000000 1.0
C      1  0.5047820000000  0.4828250000000  0.6061250000000 1.0
C      1  0.4628320000000  0.4892830000000  0.5518720000000 1.0
C      1  0.5544940000000  0.5575950000000  0.5644420000000 1.0
C      1  0.4972690000000  0.4950820000000  0.3922940000000 1.0
C      1  0.4858430000000  0.4082800000000  0.5184710000000 1.0
C      1  0.5654020000000  0.5020830000000  0.4600650000000 1.0
C      1  0.4766330000000  0.5480960000000  0.4789690000000 1.0
C      1  0.5511520000000  0.5298750000000  0.5251000000000 1.0
C      1  0.4958650000000  0.3801250000000  0.4753720000000 1.0
C      1  0.4698620000000  0.5579420000000  0.5532180000000 1.0
C      1  0.4383090000000  0.5936960000000  0.5141110000000 1.0
C      1  0.4599590000000  0.4253780000000  0.4554260000000 1.0
C      1  0.4274910000000  0.5361930000000  0.5301820000000 1.0
C      1  0.4968190000000  0.5940640000000  0.5559910000000 1.0
C      1  0.3992510000000  0.5298130000000  0.4685510000000 1.0
C      1  0.6005080000000  0.4759960000000  0.5377820000000 1.0
C      1  0.5820240000000  0.4715670000000  0.4848120000000 1.0
C      1  0.4507870000000  0.5500030000000  0.4109130000000 1.0
C      1  0.4530750000000  0.5981200000000  0.4744980000000 1.0
C      1  0.4332830000000  0.5808810000000  0.4875370000000 1.0
C      1  0.4517900000000  0.4959420000000  0.4162570000000 1.0
C      1  0.4228630000000  0.5782360000000  0.5338810000000 1.0
C      1  0.4972460000000  0.4318020000000  0.5844560000000 1.0
C      1  0.5222760000000  0.4962210000000  0.5725350000000 1.0
C      1  0.5697800000000  0.5542530000000  0.4618450000000 1.0
C      1  0.5800580000000  0.4535130000000  0.4323450000000 1.0
C      1  0.5866540000000  0.4788540000000  0.4241510000000 1.0
C      1  0.4216610000000  0.5135600000000  0.4541900000000 1.0
C      1  0.5168450000000  0.5315180000000  0.5452400000000 1.0
C      1  0.5712510000000  0.4254450000000  0.4934730000000 1.0
C      1  0.5039540000000  0.5774330000000  0.5789780000000 1.0
C      1  0.4483370000000  0.5540760000000  0.4852710000000 1.0
C      1  0.4920630000000  0.4601950000000  0.5917430000000 1.0
C      1  0.5632020000000  0.5783000000000  0.4756790000000 1.0
C      1  0.5180650000000  0.4273990000000  0.4420260000000 1.0
C      1  0.4260340000000  0.4911330000000  0.4793410000000 1.0
C      1  0.5015210000000  0.6055880000000  0.4824000000000 1.0
C      1  0.4923770000000  0.5193130000000  0.4388790000000 1.0
C      1  0.4709010000000  0.4514160000000  0.5377440000000 1.0
C      1  0.4300770000000  0.4486540000000  0.5597940000000 1.0
C      1  0.4871890000000  0.4152990000000  0.4407760000000 1.0
C      1  0.5773440000000  0.4499780000000  0.4610610000000 1.0
C      1  0.4032520000000  0.4725200000000  0.5232840000000 1.0
C      1  0.5382940000000  0.5013670000000  0.4177330000000 1.0
C      1  0.4029740000000  0.4974890000000  0.5392340000000 1.0
C      1  0.6050180000000  0.5185770000000  0.4859870000000 1.0
C      1  0.4773110000000  0.4867230000000  0.4687910000000 1.0
C      1  0.4525560000000  0.4711970000000  0.5274770000000 1.0
C      1  0.4886180000000  0.4566230000000  0.4978280000000 1.0
C      1  0.4201520000000  0.5421900000000  0.5570860000000 1.0
C      1  0.5430810000000  0.4829850000000  0.4627420000000 1.0
C      1  0.4983290000000  0.4322240000000  0.5134180000000 1.0
C      1  0.4814320000000  0.5004900000000  0.4939300000000 1.0
C      1  0.5732750000000  0.5726530000000  0.5167200000000 1.0
C      1  0.4511740000000  0.4750800000000  0.4748520000000 1.0
C      1  0.5755890000000  0.5264540000000  0.4757160000000 1.0
C      1  0.5166530000000  0.5631320000000  0.4966900000000 1.0
C      1  0.4606590000000  0.4014470000000  0.5052440000000 1.0
C      1  0.5191090000000  0.5680570000000  0.4076460000000 1.0
C      1  0.4296370000000  0.5698960000000  0.5619900000000 1.0
C      1  0.4129740000000  0.5153810000000  0.5189170000000 1.0
C      1  0.5192180000000  0.4367560000000  0.5358380000000 1.0
C      1  0.3996570000000  0.5476730000000  0.4905210000000 1.0
C      1  0.4603090000000  0.5211740000000  0.4057650000000 1.0
C      1  0.5236670000000  0.4833910000000  0.4395880000000 1.0
C      1  0.5104150000000  0.6018670000000  0.4573600000000 1.0
C      1  0.5272610000000  0.5353670000000  0.4654350000000 1.0
C      1  0.4951860000000  0.4919010000000  0.4462840000000 1.0
C      1  0.5213140000000  0.4238080000000  0.5674760000000 1.0
C      1  0.5290610000000  0.5781570000000  0.5187380000000 1.0
C      1  0.6035290000000  0.4916240000000  0.4753460000000 1.0
C      1  0.4041510000000  0.5645330000000  0.5130270000000 1.0
C      1  0.4934790000000  0.5840910000000  0.4117530000000 1.0
C      1  0.5375710000000  0.4860070000000  0.5504670000000 1.0
C      1  0.4456790000000  0.5634590000000  0.4369590000000 1.0
C      1  0.4672560000000  0.5883750000000  0.5549130000000 1.0
C      1  0.4892590000000  0.4549660000000  0.4128050000000 1.0
C      1  0.5652070000000  0.5184050000000  0.5036560000000 1.0
C      1  0.4049650000000  0.4732880000000  0.4936980000000 1.0
C      1  0.5087320000000  0.5972840000000  0.5299280000000 1.0
C      1  0.5052880000000  0.5454700000000  0.3981850000000 1.0
C      1  0.5306140000000  0.3985400000000  0.5131450000000 1.0
C      1  0.5040610000000  0.4007430000000  0.5578540000000 1.0
C      1  0.4877650000000  0.5231110000000  0.3934600000000 1.0
C      1  0.4729360000000  0.5491400000000  0.5292490000000 1.0
C      1  0.4723810000000  0.5333040000000  0.4560220000000 1.0
C      1  0.6085050000000  0.5208610000000  0.5153160000000 1.0
C      1  0.5904240000000  0.4951440000000  0.4483260000000 1.0
C      1  0.4879320000000  0.5940410000000  0.4395090000000 1.0
C      1  0.4338860000000  0.5010900000000  0.5799030000000 1.0
C      1  0.5526320000000  0.4627950000000  0.5870270000000 1.0
C      1  0.4708130000000  0.5685100000000  0.4045530000000 1.0
C      1  0.5593430000000  0.4903720000000  0.5004890000000 1.0
C      1  0.4787390000000  0.4989920000000  0.6011300000000 1.0
C      1  0.5297940000000  0.4969400000000  0.5024590000000 1.0
C      1  0.5260620000000  0.5384500000000  0.5945980000000 1.0
C      1  0.4243720000000  0.4633860000000  0.4471920000000 1.0
C      1  0.5600230000000  0.5511360000000  0.4341080000000 1.0
C      1  0.5087070000000  0.4237000000000  0.4881510000000 1.0
C      1  0.5646430000000  0.4241100000000  0.4647410000000 1.0
C      1  0.4554590000000  0.4274590000000  0.5521140000000 1.0
C      1  0.6078280000000  0.4934750000000  0.5170070000000 1.0
C      1  0.4319600000000  0.5064560000000  0.4995850000000 1.0
C      1  0.5659480000000  0.4641930000000  0.4104020000000 1.0
C      1  0.5418810000000  0.5721470000000  0.4273760000000 1.0
C      1  0.5800230000000  0.5601120000000  0.5395540000000 1.0
C      1  0.5081570000000  0.4488910000000  0.4744910000000 1.0
C      1  0.5482390000000  0.4417910000000  0.4986420000000 1.0
C      1  0.5351320000000  0.4596930000000  0.4801190000000 1.0
C      1  0.4581000000000  0.5132790000000  0.5037080000000 1.0
C      1  0.4126790000000  0.4539300000000  0.4743040000000 1.0
C      1  0.5646810000000  0.5317320000000  0.5774310000000 1.0
C      1  0.5192970000000  0.4638350000000  0.5444390000000 1.0
C      1  0.5865220000000  0.4497270000000  0.5312330000000 1.0
C      1  0.5876550000000  0.5205150000000  0.5619560000000 1.0
C      1  0.5382760000000  0.5525280000000  0.5384340000000 1.0
C      1  0.4920200000000  0.5298220000000  0.5303900000000 1.0
C      1  0.5903920000000  0.4912700000000  0.5610960000000 1.0
C      1  0.5250910000000  0.5631110000000  0.4705890000000 1.0
C      1  0.4759320000000  0.5697320000000  0.5911280000000 1.0
C      1  0.5422200000000  0.5300230000000  0.4213340000000 1.0
C      1  0.5262480000000  0.4881160000000  0.3948420000000 1.0
C      1  0.4492750000000  0.4192510000000  0.4802440000000 1.0
C      1  0.4132370000000  0.4480300000000  0.5362400000000 1.0
C      1  0.5375300000000  0.4149770000000  0.4587690000000 1.0
C      1  0.5003310000000  0.5388080000000  0.4981420000000 1.0
C      1  0.4760150000000  0.4801700000000  0.4053350000000 1.0
C      1  0.4592660000000  0.4640780000000  0.5000760000000 1.0
C      1  0.5648220000000  0.4787300000000  0.5667630000000 1.0
C      1  0.5376690000000  0.5849280000000  0.4543790000000 1.0
C      1  0.4892750000000  0.3854070000000  0.4471320000000 1.0
C      1  0.5179120000000  0.4529080000000  0.4239240000000 1.0
C      1  0.5183920000000  0.5326420000000  0.4379600000000 1.0
C      1  0.4303550000000  0.4907920000000  0.4364970000000 1.0
C      1  0.4800670000000  0.4148930000000  0.5679430000000 1.0
C      1  0.5330360000000  0.5091280000000  0.5319250000000 1.0
C      1  0.4299730000000  0.4738310000000  0.5722520000000 1.0
C      1  0.4615500000000  0.5862410000000  0.4485870000000 1.0
C      1  0.4923220000000  0.6094360000000  0.5082940000000 1.0
C      1  0.5379390000000  0.4622860000000  0.4028730000000 1.0
END
