TITL C-883731-9874-434 -2.60429215227023 125000 -10788.2545136565 0 0 72 (C1) n - 1
REM
REM in /home/nfs/bkarasulu/CARBON/AIRSS/Generating-Clusters/ReaxFF-fromJPCA2015/Units_Real/with-SteepDescent/Only-C1/SD-CG/Try1-3A/FIRE-CG
REM
REM
REM
REM
REM
REM ./C.cell (11c1c37f851c82e70ff6c80c92926a4b)
REM
REM compiler GCC version 9.2.1 20190827 (Red Hat 9.2.1-1)
REM options -cpp -mtune=generic -march=x86-64 -g -O0 -fpre-include=/usr/include/finclude/math-vector-fortran.h
REM seed -1263788426 496593158 -1942976289 -1385812623 -916407845 -156465407 -2003155911 -1832021540 -322012778 -704369492 -572976938 2056461000 1782000167 1005165638 -1530842254 -814260663 771348999 1085562919 616282550 -955814233 1971498266 1583447243 590104914 1748333622 878406207 -88707855 -122571920 -2098107550 1315965242 1738764902 56511973 1591824056 -205214281
REM
CELL 1.54180   50.00000   50.00000   50.00000   90.00000   90.00000   90.00000
LATT -1
SFAC C  
C      1  0.4579920000000  0.5628010000000  0.4768200000000 1.0
C      1  0.4417430000000  0.5618100000000  0.5010460000000 1.0
C      1  0.4594670000000  0.5659370000000  0.5231340000000 1.0
C      1  0.5184130000000  0.5069740000000  0.5790420000000 1.0
C      1  0.5256670000000  0.4466690000000  0.5476930000000 1.0
C      1  0.5567410000000  0.4698550000000  0.4641860000000 1.0
C      1  0.4513960000000  0.4317300000000  0.5131030000000 1.0
C      1  0.5394270000000  0.4849160000000  0.5771440000000 1.0
C      1  0.5732820000000  0.5164600000000  0.4749540000000 1.0
C      1  0.4593330000000  0.5402180000000  0.4588550000000 1.0
C      1  0.5109330000000  0.4998420000000  0.4194110000000 1.0
C      1  0.5312100000000  0.5714400000000  0.4866990000000 1.0
C      1  0.4514590000000  0.4358710000000  0.4823190000000 1.0
C      1  0.4355370000000  0.5020720000000  0.5173740000000 1.0
C      1  0.4614860000000  0.4822480000000  0.4895440000000 1.0
C      1  0.5065650000000  0.4882780000000  0.4720560000000 1.0
C      1  0.5514490000000  0.4878000000000  0.4431940000000 1.0
C      1  0.5265790000000  0.4278710000000  0.5228510000000 1.0
C      1  0.4464650000000  0.4634220000000  0.4723160000000 1.0
C      1  0.5359870000000  0.5520790000000  0.5341840000000 1.0
C      1  0.5396700000000  0.4330450000000  0.4977190000000 1.0
C      1  0.5749620000000  0.4753950000000  0.5115140000000 1.0
C      1  0.4837960000000  0.5337520000000  0.4442520000000 1.0
C      1  0.5524190000000  0.5305020000000  0.5245930000000 1.0
C      1  0.4854090000000  0.5087870000000  0.4270110000000 1.0
C      1  0.4870340000000  0.5344630000000  0.5519670000000 1.0
C      1  0.4821220000000  0.5015800000000  0.4825770000000 1.0
C      1  0.4508680000000  0.4686410000000  0.5534050000000 1.0
C      1  0.4998080000000  0.5156420000000  0.5019390000000 1.0
C      1  0.5375950000000  0.5399110000000  0.4504890000000 1.0
C      1  0.4789630000000  0.4696250000000  0.5093400000000 1.0
C      1  0.5068420000000  0.5689310000000  0.4708750000000 1.0
C      1  0.4613720000000  0.5426550000000  0.5401280000000 1.0
C      1  0.4312820000000  0.4782290000000  0.5344990000000 1.0
C      1  0.5470450000000  0.4669840000000  0.5554720000000 1.0
C      1  0.5137190000000  0.4972580000000  0.5216620000000 1.0
C      1  0.4766160000000  0.4227520000000  0.5134500000000 1.0
C      1  0.4819540000000  0.5797440000000  0.5132660000000 1.0
C      1  0.4824130000000  0.5761820000000  0.4846240000000 1.0
C      1  0.4812570000000  0.4780800000000  0.5596370000000 1.0
C      1  0.4258630000000  0.5404430000000  0.5082560000000 1.0
C      1  0.5519740000000  0.4622950000000  0.4940930000000 1.0
C      1  0.5033070000000  0.4156010000000  0.5086900000000 1.0
C      1  0.5216520000000  0.5131540000000  0.4836780000000 1.0
C      1  0.4506680000000  0.4724420000000  0.4435510000000 1.0
C      1  0.4259760000000  0.5165140000000  0.4934020000000 1.0
C      1  0.5647020000000  0.4822710000000  0.5381100000000 1.0
C      1  0.4374420000000  0.5278300000000  0.5316360000000 1.0
C      1  0.5785250000000  0.4955000000000  0.4925630000000 1.0
C      1  0.5167140000000  0.4248560000000  0.4816130000000 1.0
C      1  0.5495480000000  0.5253650000000  0.4937440000000 1.0
C      1  0.5017060000000  0.4381340000000  0.4597320000000 1.0
C      1  0.4418940000000  0.4980520000000  0.4493980000000 1.0
C      1  0.5032240000000  0.4670720000000  0.4442840000000 1.0
C      1  0.4877400000000  0.4868030000000  0.5313620000000 1.0
C      1  0.5557920000000  0.5170390000000  0.4507750000000 1.0
C      1  0.5032580000000  0.4674340000000  0.4933570000000 1.0
C      1  0.5083720000000  0.5537960000000  0.5452250000000 1.0
C      1  0.5263720000000  0.4749180000000  0.5077450000000 1.0
C      1  0.4374200000000  0.5203900000000  0.4655780000000 1.0
C      1  0.4777210000000  0.4804930000000  0.4340010000000 1.0
C      1  0.5013410000000  0.4546570000000  0.5600020000000 1.0
C      1  0.4928920000000  0.5094210000000  0.5660100000000 1.0
C      1  0.5483990000000  0.5511490000000  0.4750600000000 1.0
C      1  0.4399410000000  0.4497050000000  0.5350830000000 1.0
C      1  0.4766510000000  0.4334250000000  0.4696190000000 1.0
C      1  0.5296890000000  0.5746080000000  0.5159550000000 1.0
C      1  0.5466160000000  0.5119890000000  0.5709030000000 1.0
C      1  0.5260480000000  0.4786200000000  0.4282560000000 1.0
C      1  0.5043370000000  0.5771940000000  0.5288070000000 1.0
C      1  0.5085760000000  0.5474670000000  0.4510420000000 1.0
C      1  0.5593640000000  0.5109070000000  0.5441260000000 1.0
END
