TITL C-883736-9678-63 19.9681009874858 125000 -22896.2798333127 0 0 155 (C1) n - 1
REM
REM in /home/nfs/bkarasulu/CARBON/AIRSS/Generating-Clusters/ReaxFF-fromJPCA2015/Units_Real/with-SteepDescent/Only-C1/SD-CG/Try1-3A/FIRE-CG
REM
REM
REM
REM
REM
REM ./C.cell (11c1c37f851c82e70ff6c80c92926a4b)
REM
REM compiler GCC version 9.2.1 20190827 (Red Hat 9.2.1-1)
REM options -cpp -mtune=generic -march=x86-64 -g -O0 -fpre-include=/usr/include/finclude/math-vector-fortran.h
REM seed -1728943362 1967168195 1027980853 -1117641848 -1049136452 -572620816 695676875 -2136288136 -2066073072 356897499 1561069260 -1194720459 -553754212 395623301 -2143264941 -1673910507 -987044794 980928129 -338564269 -1655368302 -1545302036 1116763006 -1332138510 -120811088 1159604864 808152113 1123350642 1192913544 1604024020 -250944024 -484319578 -2137014659 -1850648825
REM
CELL 1.54180   50.00000   50.00000   50.00000   90.00000   90.00000   90.00000
LATT -1
SFAC C  
C      1  0.4755250000000  0.4891920000000  0.4307460000000 1.0
C      1  0.5714980000000  0.4701410000000  0.4103070000000 1.0
C      1  0.4334090000000  0.4938130000000  0.5718920000000 1.0
C      1  0.5057010000000  0.5340170000000  0.5401130000000 1.0
C      1  0.4368130000000  0.5513970000000  0.4328800000000 1.0
C      1  0.5246890000000  0.4243520000000  0.5500310000000 1.0
C      1  0.5054540000000  0.4715070000000  0.6003500000000 1.0
C      1  0.5259710000000  0.4507310000000  0.6031950000000 1.0
C      1  0.4837850000000  0.5576200000000  0.4203000000000 1.0
C      1  0.3715540000000  0.5386070000000  0.5298230000000 1.0
C      1  0.4855290000000  0.5208840000000  0.5557720000000 1.0
C      1  0.4848000000000  0.5830880000000  0.5662320000000 1.0
C      1  0.4288010000000  0.5557760000000  0.4759360000000 1.0
C      1  0.5551500000000  0.4122960000000  0.4925240000000 1.0
C      1  0.5416290000000  0.4809870000000  0.5382020000000 1.0
C      1  0.4587920000000  0.4055110000000  0.5668970000000 1.0
C      1  0.5212000000000  0.4878730000000  0.5573850000000 1.0
C      1  0.4081800000000  0.4197250000000  0.4782290000000 1.0
C      1  0.5168200000000  0.5453310000000  0.5853760000000 1.0
C      1  0.5649350000000  0.5068300000000  0.4259490000000 1.0
C      1  0.5408820000000  0.4745560000000  0.4841750000000 1.0
C      1  0.4516720000000  0.5262900000000  0.4415500000000 1.0
C      1  0.4789540000000  0.4404740000000  0.4179250000000 1.0
C      1  0.5838500000000  0.4844600000000  0.4313280000000 1.0
C      1  0.5822110000000  0.5327460000000  0.5666850000000 1.0
C      1  0.5871810000000  0.4974350000000  0.4816300000000 1.0
C      1  0.5788180000000  0.5312370000000  0.5171540000000 1.0
C      1  0.4753780000000  0.5156400000000  0.5964290000000 1.0
C      1  0.4542880000000  0.5063590000000  0.4200960000000 1.0
C      1  0.4168440000000  0.5171530000000  0.5601690000000 1.0
C      1  0.5320610000000  0.5466280000000  0.4974760000000 1.0
C      1  0.4350890000000  0.5843670000000  0.5266800000000 1.0
C      1  0.6011690000000  0.5513760000000  0.4666210000000 1.0
C      1  0.4492540000000  0.5622460000000  0.5345770000000 1.0
C      1  0.5799210000000  0.5524130000000  0.5449300000000 1.0
C      1  0.4558230000000  0.5752560000000  0.4618330000000 1.0
C      1  0.4971210000000  0.4260800000000  0.5563800000000 1.0
C      1  0.5047810000000  0.4576010000000  0.5157530000000 1.0
C      1  0.5398390000000  0.4940230000000  0.5112370000000 1.0
C      1  0.5258180000000  0.4973430000000  0.3965320000000 1.0
C      1  0.4006960000000  0.4937320000000  0.4575570000000 1.0
C      1  0.4577570000000  0.5405970000000  0.4875730000000 1.0
C      1  0.4945550000000  0.5513710000000  0.5211150000000 1.0
C      1  0.4918360000000  0.4413540000000  0.4993820000000 1.0
C      1  0.5391110000000  0.4353880000000  0.4197240000000 1.0
C      1  0.5835080000000  0.5271580000000  0.4827480000000 1.0
C      1  0.4609960000000  0.5409620000000  0.5925900000000 1.0
C      1  0.4596610000000  0.4925990000000  0.5854440000000 1.0
C      1  0.4089550000000  0.5154570000000  0.4426120000000 1.0
C      1  0.5577760000000  0.5837460000000  0.4681760000000 1.0
C      1  0.5759700000000  0.5055790000000  0.5736840000000 1.0
C      1  0.4482660000000  0.4420330000000  0.5153520000000 1.0
C      1  0.5528550000000  0.4894440000000  0.5862640000000 1.0
C      1  0.4666350000000  0.3975050000000  0.4695140000000 1.0
C      1  0.5491110000000  0.5263460000000  0.5181960000000 1.0
C      1  0.4889060000000  0.4545770000000  0.3938530000000 1.0
C      1  0.5666880000000  0.4220290000000  0.5172760000000 1.0
C      1  0.5244790000000  0.4598530000000  0.4132960000000 1.0
C      1  0.4052530000000  0.4868260000000  0.4993430000000 1.0
C      1  0.4584400000000  0.6012390000000  0.5223620000000 1.0
C      1  0.4056730000000  0.5448210000000  0.5514310000000 1.0
C      1  0.4841330000000  0.5365470000000  0.4764710000000 1.0
C      1  0.5262230000000  0.4166810000000  0.4905340000000 1.0
C      1  0.4309900000000  0.5168590000000  0.5365140000000 1.0
C      1  0.4271640000000  0.4699660000000  0.4303530000000 1.0
C      1  0.5216700000000  0.4185400000000  0.4354310000000 1.0
C      1  0.5041500000000  0.5209450000000  0.5930510000000 1.0
C      1  0.4158790000000  0.5439420000000  0.4519040000000 1.0
C      1  0.5922110000000  0.4360240000000  0.5105850000000 1.0
C      1  0.4298550000000  0.4437580000000  0.4371890000000 1.0
C      1  0.4863420000000  0.4474270000000  0.5722130000000 1.0
C      1  0.4789690000000  0.5998240000000  0.5003480000000 1.0
C      1  0.5416480000000  0.5396450000000  0.5699770000000 1.0
C      1  0.4430110000000  0.4077360000000  0.5853300000000 1.0
C      1  0.5162070000000  0.5659750000000  0.5096250000000 1.0
C      1  0.5549830000000  0.6047700000000  0.5148490000000 1.0
C      1  0.4643630000000  0.5649520000000  0.5762080000000 1.0
C      1  0.5069670000000  0.3987330000000  0.4786790000000 1.0
C      1  0.5047360000000  0.5842510000000  0.4551070000000 1.0
C      1  0.5503640000000  0.4603160000000  0.5870750000000 1.0
C      1  0.5162000000000  0.5252980000000  0.4034590000000 1.0
C      1  0.5513840000000  0.5577990000000  0.4814230000000 1.0
C      1  0.4479790000000  0.4653700000000  0.5329510000000 1.0
C      1  0.4907950000000  0.4533140000000  0.4425110000000 1.0
C      1  0.5195350000000  0.4459910000000  0.4928220000000 1.0
C      1  0.4678620000000  0.3963720000000  0.5193720000000 1.0
C      1  0.5714000000000  0.4286790000000  0.4752540000000 1.0
C      1  0.4695140000000  0.4077590000000  0.4440600000000 1.0
C      1  0.4963080000000  0.4848890000000  0.5197910000000 1.0
C      1  0.4568160000000  0.5168590000000  0.5263270000000 1.0
C      1  0.4657190000000  0.4456080000000  0.4917960000000 1.0
C      1  0.5942350000000  0.4960810000000  0.5520250000000 1.0
C      1  0.5516710000000  0.4227330000000  0.5438680000000 1.0
C      1  0.5345710000000  0.5290750000000  0.5435480000000 1.0
C      1  0.4944790000000  0.4940550000000  0.5480310000000 1.0
C      1  0.4720910000000  0.4702290000000  0.4506110000000 1.0
C      1  0.4777830000000  0.4683280000000  0.5882280000000 1.0
C      1  0.5897510000000  0.4697220000000  0.5436380000000 1.0
C      1  0.4885950000000  0.5297960000000  0.4121470000000 1.0
C      1  0.5210330000000  0.5098750000000  0.4562200000000 1.0
C      1  0.4998160000000  0.6045850000000  0.5210630000000 1.0
C      1  0.4433850000000  0.4125260000000  0.5215170000000 1.0
C      1  0.5307680000000  0.5862130000000  0.4605220000000 1.0
C      1  0.6015490000000  0.4629780000000  0.5186830000000 1.0
C      1  0.5783480000000  0.4601420000000  0.4498560000000 1.0
C      1  0.4557640000000  0.4907610000000  0.4890070000000 1.0
C      1  0.5111230000000  0.5719880000000  0.5715830000000 1.0
C      1  0.5284780000000  0.4832030000000  0.4603280000000 1.0
C      1  0.3947730000000  0.5452980000000  0.5222750000000 1.0
C      1  0.5582580000000  0.4443710000000  0.5633550000000 1.0
C      1  0.4250980000000  0.5662990000000  0.5472910000000 1.0
C      1  0.5963670000000  0.5097060000000  0.5258900000000 1.0
C      1  0.5264160000000  0.5896840000000  0.5248960000000 1.0
C      1  0.4765430000000  0.4030100000000  0.5461650000000 1.0
C      1  0.5073060000000  0.4762030000000  0.3829280000000 1.0
C      1  0.5913340000000  0.4439160000000  0.4832990000000 1.0
C      1  0.5673040000000  0.4779490000000  0.4717730000000 1.0
C      1  0.5554400000000  0.5641480000000  0.5603490000000 1.0
C      1  0.5619630000000  0.5365270000000  0.4651960000000 1.0
C      1  0.5634030000000  0.4646500000000  0.5454450000000 1.0
C      1  0.4625110000000  0.5377990000000  0.5632460000000 1.0
C      1  0.4786980000000  0.5874760000000  0.4732010000000 1.0
C      1  0.5326680000000  0.5804670000000  0.5542980000000 1.0
C      1  0.5107770000000  0.5244090000000  0.4834870000000 1.0
C      1  0.4179990000000  0.5139980000000  0.4925410000000 1.0
C      1  0.4015190000000  0.4706420000000  0.4732920000000 1.0
C      1  0.6013010000000  0.4895560000000  0.5055420000000 1.0
C      1  0.5025740000000  0.4048060000000  0.4496060000000 1.0
C      1  0.4439430000000  0.5151470000000  0.4793540000000 1.0
C      1  0.4944490000000  0.5108280000000  0.4375210000000 1.0
C      1  0.4100280000000  0.5413230000000  0.4934860000000 1.0
C      1  0.5275200000000  0.5428090000000  0.4236330000000 1.0
C      1  0.4549370000000  0.4276690000000  0.4289220000000 1.0
C      1  0.5228460000000  0.4957320000000  0.5876990000000 1.0
C      1  0.4644810000000  0.5444820000000  0.5162740000000 1.0
C      1  0.5835860000000  0.5714810000000  0.4612180000000 1.0
C      1  0.4803360000000  0.6013890000000  0.5425610000000 1.0
C      1  0.5092730000000  0.5646470000000  0.4317470000000 1.0
C      1  0.5541580000000  0.4925390000000  0.4033250000000 1.0
C      1  0.4594070000000  0.5697310000000  0.4340590000000 1.0
C      1  0.4774550000000  0.5265930000000  0.4531770000000 1.0
C      1  0.4611480000000  0.4678800000000  0.4750370000000 1.0
C      1  0.4239160000000  0.4121960000000  0.5008710000000 1.0
C      1  0.5975990000000  0.5796540000000  0.5360350000000 1.0
C      1  0.4256710000000  0.4970590000000  0.4236300000000 1.0
C      1  0.4551740000000  0.4899350000000  0.5173500000000 1.0
C      1  0.4258280000000  0.4733870000000  0.5507660000000 1.0
C      1  0.5467480000000  0.5256340000000  0.4418060000000 1.0
C      1  0.5170600000000  0.4657810000000  0.4404160000000 1.0
C      1  0.5660230000000  0.4475430000000  0.4257260000000 1.0
C      1  0.4077050000000  0.4770920000000  0.5271350000000 1.0
C      1  0.5778520000000  0.5944690000000  0.5240960000000 1.0
C      1  0.4804780000000  0.3921670000000  0.4927600000000 1.0
C      1  0.5126260000000  0.5033250000000  0.5047760000000 1.0
C      1  0.4123680000000  0.4455030000000  0.4616670000000 1.0
END
