TITL C-883737-113-302 4.79529711460349 125000 -21727.3733887171 0 0 144 (C1) n - 1
REM
REM in /home/nfs/bkarasulu/CARBON/AIRSS/Generating-Clusters/ReaxFF-fromJPCA2015/Units_Real/with-SteepDescent/Only-C1/SD-CG/Try1-3A/FIRE-CG
REM
REM
REM
REM
REM
REM ./C.cell (11c1c37f851c82e70ff6c80c92926a4b)
REM
REM compiler GCC version 9.2.1 20190827 (Red Hat 9.2.1-1)
REM options -cpp -mtune=generic -march=x86-64 -g -O0 -fpre-include=/usr/include/finclude/math-vector-fortran.h
REM seed -1652294076 87663045 -1578211924 -1517882519 1325747433 79878737 -1657494163 759544723 -48818902 -1901816927 1169490741 -472718249 -939651348 -1583854024 61813505 -1644556347 -549263465 -1384516390 411680376 -854301384 790512650 -1108504141 1643460922 -1404023875 1170161943 2098742792 -1876435936 -758204756 -1978171143 874686791 339881704 395963791 -672470457
REM
CELL 1.54180   50.00000   50.00000   50.00000   90.00000   90.00000   90.00000
LATT -1
SFAC C  
C      1  0.4501930000000  0.5883440000000  0.5126050000000 1.0
C      1  0.5198780000000  0.5507870000000  0.4840500000000 1.0
C      1  0.5414000000000  0.5658530000000  0.5760660000000 1.0
C      1  0.4576860000000  0.4038150000000  0.4830790000000 1.0
C      1  0.4499120000000  0.4405260000000  0.4210000000000 1.0
C      1  0.4363960000000  0.5555130000000  0.4743900000000 1.0
C      1  0.5153490000000  0.5188140000000  0.5502050000000 1.0
C      1  0.5872750000000  0.4380930000000  0.5013250000000 1.0
C      1  0.4921930000000  0.4549870000000  0.5128960000000 1.0
C      1  0.4698690000000  0.5117500000000  0.5577190000000 1.0
C      1  0.5764280000000  0.5554320000000  0.5126840000000 1.0
C      1  0.4793070000000  0.4428970000000  0.4109330000000 1.0
C      1  0.5555270000000  0.4297190000000  0.4567480000000 1.0
C      1  0.4363140000000  0.5345360000000  0.4989650000000 1.0
C      1  0.4538190000000  0.4946160000000  0.4742220000000 1.0
C      1  0.5038560000000  0.4851850000000  0.6049970000000 1.0
C      1  0.4538430000000  0.5105870000000  0.4977200000000 1.0
C      1  0.5736470000000  0.4357310000000  0.4767530000000 1.0
C      1  0.5642930000000  0.5652730000000  0.4651050000000 1.0
C      1  0.4128990000000  0.5276400000000  0.5463350000000 1.0
C      1  0.5023370000000  0.5141330000000  0.6022710000000 1.0
C      1  0.4826590000000  0.4182080000000  0.5530010000000 1.0
C      1  0.5604440000000  0.5116880000000  0.5016780000000 1.0
C      1  0.4670370000000  0.5685010000000  0.5777330000000 1.0
C      1  0.4731640000000  0.4841200000000  0.6065680000000 1.0
C      1  0.4747190000000  0.4845990000000  0.5478390000000 1.0
C      1  0.4340840000000  0.4851080000000  0.5740210000000 1.0
C      1  0.5050800000000  0.4036840000000  0.5403550000000 1.0
C      1  0.4915290000000  0.4407710000000  0.5686140000000 1.0
C      1  0.4183720000000  0.4773230000000  0.5512650000000 1.0
C      1  0.5276740000000  0.4920400000000  0.4740020000000 1.0
C      1  0.4351920000000  0.5456730000000  0.4480060000000 1.0
C      1  0.4938820000000  0.5838520000000  0.4436700000000 1.0
C      1  0.5547970000000  0.5737390000000  0.5110420000000 1.0
C      1  0.4100160000000  0.5315870000000  0.5171770000000 1.0
C      1  0.4878040000000  0.5607400000000  0.4272090000000 1.0
C      1  0.5756900000000  0.4819310000000  0.4648540000000 1.0
C      1  0.5672330000000  0.4714070000000  0.4214970000000 1.0
C      1  0.4446500000000  0.4893070000000  0.4249750000000 1.0
C      1  0.5249490000000  0.4484570000000  0.4293660000000 1.0
C      1  0.5548480000000  0.4995500000000  0.4765790000000 1.0
C      1  0.5264960000000  0.4146910000000  0.4994240000000 1.0
C      1  0.5305590000000  0.4135940000000  0.4666670000000 1.0
C      1  0.5330330000000  0.4661070000000  0.4789920000000 1.0
C      1  0.5550080000000  0.4952120000000  0.4091260000000 1.0
C      1  0.4098930000000  0.4586750000000  0.5051460000000 1.0
C      1  0.4701860000000  0.4054730000000  0.4561780000000 1.0
C      1  0.5250180000000  0.4719910000000  0.5897610000000 1.0
C      1  0.4804160000000  0.5627350000000  0.4820160000000 1.0
C      1  0.4580510000000  0.4279490000000  0.5393990000000 1.0
C      1  0.4038340000000  0.5071660000000  0.4660520000000 1.0
C      1  0.4776010000000  0.5054440000000  0.4615470000000 1.0
C      1  0.5639650000000  0.4488050000000  0.5493560000000 1.0
C      1  0.4412300000000  0.5703550000000  0.5331410000000 1.0
C      1  0.4914420000000  0.5655740000000  0.5854260000000 1.0
C      1  0.5908280000000  0.5245300000000  0.4715300000000 1.0
C      1  0.5042270000000  0.4924800000000  0.4000360000000 1.0
C      1  0.5269230000000  0.5302680000000  0.5921420000000 1.0
C      1  0.4814470000000  0.5083880000000  0.5069850000000 1.0
C      1  0.5303770000000  0.4877280000000  0.5255480000000 1.0
C      1  0.4718020000000  0.4783770000000  0.4310440000000 1.0
C      1  0.5696850000000  0.5237380000000  0.5573330000000 1.0
C      1  0.4958100000000  0.5536160000000  0.4968050000000 1.0
C      1  0.4998310000000  0.4167760000000  0.4507800000000 1.0
C      1  0.5216620000000  0.4895070000000  0.5528770000000 1.0
C      1  0.5489980000000  0.4129070000000  0.5215980000000 1.0
C      1  0.5811320000000  0.5173720000000  0.4448120000000 1.0
C      1  0.6004770000000  0.4796490000000  0.4793880000000 1.0
C      1  0.4864790000000  0.6085660000000  0.4885160000000 1.0
C      1  0.4909890000000  0.5316130000000  0.5576620000000 1.0
C      1  0.4482420000000  0.5138030000000  0.5781830000000 1.0
C      1  0.5276930000000  0.5168490000000  0.4421300000000 1.0
C      1  0.5699500000000  0.4316030000000  0.5260700000000 1.0
C      1  0.4844740000000  0.4715010000000  0.4056520000000 1.0
C      1  0.5799900000000  0.5485640000000  0.4830910000000 1.0
C      1  0.4710600000000  0.4613280000000  0.5662990000000 1.0
C      1  0.4014410000000  0.4674640000000  0.4795900000000 1.0
C      1  0.5049670000000  0.5179590000000  0.4220620000000 1.0
C      1  0.4428980000000  0.5636890000000  0.5627760000000 1.0
C      1  0.4549910000000  0.5776670000000  0.4813440000000 1.0
C      1  0.4866630000000  0.5574940000000  0.5439240000000 1.0
C      1  0.4776150000000  0.4057780000000  0.5042310000000 1.0
C      1  0.4176070000000  0.4534830000000  0.5300870000000 1.0
C      1  0.4791190000000  0.5203190000000  0.4376940000000 1.0
C      1  0.5183740000000  0.4525880000000  0.5702950000000 1.0
C      1  0.6022300000000  0.5037810000000  0.4919210000000 1.0
C      1  0.5193280000000  0.5897480000000  0.5226960000000 1.0
C      1  0.5233480000000  0.5883520000000  0.4486710000000 1.0
C      1  0.5397160000000  0.4365060000000  0.5600150000000 1.0
C      1  0.4330210000000  0.4283830000000  0.5233100000000 1.0
C      1  0.4539250000000  0.4695880000000  0.5881770000000 1.0
C      1  0.5372230000000  0.5662640000000  0.5315740000000 1.0
C      1  0.4570670000000  0.4209790000000  0.4384820000000 1.0
C      1  0.5539260000000  0.4472650000000  0.4311960000000 1.0
C      1  0.5848660000000  0.4888450000000  0.4377390000000 1.0
C      1  0.4852160000000  0.4827300000000  0.5217300000000 1.0
C      1  0.5164100000000  0.5294600000000  0.4653930000000 1.0
C      1  0.5400410000000  0.5503420000000  0.4218570000000 1.0
C      1  0.5199800000000  0.5594660000000  0.5923520000000 1.0
C      1  0.4185080000000  0.4559730000000  0.4558530000000 1.0
C      1  0.4563120000000  0.4662670000000  0.4765550000000 1.0
C      1  0.4372830000000  0.4219880000000  0.4940520000000 1.0
C      1  0.4759200000000  0.6008040000000  0.5157580000000 1.0
C      1  0.3950870000000  0.5074490000000  0.5134760000000 1.0
C      1  0.4020250000000  0.4995010000000  0.5418720000000 1.0
C      1  0.5750350000000  0.5483500000000  0.5415760000000 1.0
C      1  0.5845030000000  0.5053960000000  0.5154500000000 1.0
C      1  0.4309150000000  0.4619470000000  0.4305290000000 1.0
C      1  0.5298290000000  0.4910120000000  0.4018700000000 1.0
C      1  0.5329820000000  0.4122320000000  0.5457130000000 1.0
C      1  0.5144490000000  0.6053590000000  0.4970000000000 1.0
C      1  0.4726800000000  0.5123420000000  0.6017660000000 1.0
C      1  0.5441240000000  0.5738910000000  0.4840230000000 1.0
C      1  0.4939420000000  0.5852520000000  0.5340160000000 1.0
C      1  0.5017040000000  0.5067810000000  0.4786800000000 1.0
C      1  0.4450110000000  0.5165300000000  0.4145420000000 1.0
C      1  0.4761640000000  0.5973100000000  0.4635600000000 1.0
C      1  0.5457670000000  0.5695900000000  0.4426720000000 1.0
C      1  0.5109610000000  0.5479690000000  0.4165690000000 1.0
C      1  0.4731130000000  0.4336010000000  0.5150530000000 1.0
C      1  0.5589200000000  0.5688670000000  0.5553740000000 1.0
C      1  0.5807940000000  0.4993510000000  0.5444390000000 1.0
C      1  0.5681910000000  0.4765290000000  0.5565670000000 1.0
C      1  0.4368320000000  0.4450140000000  0.4757300000000 1.0
C      1  0.5496610000000  0.5183160000000  0.5784870000000 1.0
C      1  0.4599170000000  0.5410930000000  0.4277900000000 1.0
C      1  0.4523620000000  0.5480310000000  0.5181570000000 1.0
C      1  0.5538170000000  0.5225720000000  0.4290030000000 1.0
C      1  0.5043050000000  0.3978840000000  0.5119860000000 1.0
C      1  0.4178540000000  0.5249390000000  0.4536550000000 1.0
C      1  0.5166690000000  0.4432520000000  0.5080410000000 1.0
C      1  0.5980130000000  0.4629820000000  0.4957880000000 1.0
C      1  0.5334610000000  0.4654080000000  0.5079300000000 1.0
C      1  0.4320630000000  0.5370750000000  0.5661800000000 1.0
C      1  0.5022170000000  0.4304740000000  0.4238940000000 1.0
C      1  0.5306270000000  0.5994080000000  0.4739160000000 1.0
C      1  0.4746550000000  0.4628090000000  0.4550070000000 1.0
C      1  0.4937420000000  0.4429680000000  0.4626480000000 1.0
C      1  0.4806130000000  0.5404640000000  0.5190730000000 1.0
C      1  0.5295530000000  0.5352390000000  0.5318320000000 1.0
C      1  0.5382840000000  0.5138730000000  0.5174060000000 1.0
C      1  0.3913020000000  0.4946030000000  0.4862170000000 1.0
C      1  0.5189860000000  0.4536660000000  0.4578690000000 1.0
C      1  0.5458220000000  0.4880330000000  0.5750770000000 1.0
END
