TITL C-883734-4173-455 -1.29058590229209 125000 -10774.1829276105 0 0 73 (C1) n - 1
REM
REM in /home/nfs/bkarasulu/CARBON/AIRSS/Generating-Clusters/ReaxFF-fromJPCA2015/Units_Real/with-SteepDescent/Only-C1/SD-CG/Try1-3A/FIRE-CG
REM
REM
REM
REM
REM
REM ./C.cell (11c1c37f851c82e70ff6c80c92926a4b)
REM
REM compiler GCC version 9.2.1 20190827 (Red Hat 9.2.1-1)
REM options -cpp -mtune=generic -march=x86-64 -g -O0 -fpre-include=/usr/include/finclude/math-vector-fortran.h
REM seed 646944081 162595588 -1663363927 1420414972 940715208 -844130063 -1538174964 824274118 1436584454 -449531730 -75015366 287088317 -1101959340 -1609984980 -1917493591 1449882838 1537274648 -1192704184 1068122955 -60387566 -1417061099 -1737618187 -108137162 163224807 -1894225612 -841146398 1982077258 -725755991 -1384182 306663814 651019497 -1852475554 1709702555
REM
CELL 1.54180   50.00000   50.00000   50.00000   90.00000   90.00000   90.00000
LATT -1
SFAC C  
C      1  0.4930430000000  0.5096310000000  0.5603280000000 1.0
C      1  0.5616060000000  0.5421440000000  0.4633440000000 1.0
C      1  0.5209130000000  0.4518510000000  0.5540180000000 1.0
C      1  0.4213560000000  0.4952890000000  0.5105750000000 1.0
C      1  0.4427070000000  0.5162040000000  0.5051230000000 1.0
C      1  0.5064040000000  0.5344920000000  0.4997120000000 1.0
C      1  0.4956690000000  0.4625460000000  0.5459610000000 1.0
C      1  0.4938950000000  0.4888700000000  0.5336450000000 1.0
C      1  0.4709820000000  0.4416980000000  0.5758610000000 1.0
C      1  0.4818160000000  0.4910640000000  0.5817450000000 1.0
C      1  0.5166860000000  0.5032430000000  0.4665410000000 1.0
C      1  0.4711370000000  0.4959420000000  0.5099560000000 1.0
C      1  0.4622600000000  0.4684250000000  0.5752070000000 1.0
C      1  0.5601110000000  0.4510760000000  0.4626330000000 1.0
C      1  0.4774260000000  0.4390960000000  0.5419960000000 1.0
C      1  0.4959620000000  0.5580190000000  0.5390950000000 1.0
C      1  0.5196430000000  0.4188200000000  0.4671200000000 1.0
C      1  0.4943990000000  0.4459430000000  0.4988580000000 1.0
C      1  0.4546420000000  0.4535860000000  0.5286250000000 1.0
C      1  0.4529250000000  0.5356340000000  0.5513520000000 1.0
C      1  0.5282320000000  0.5839100000000  0.4787950000000 1.0
C      1  0.4211520000000  0.4742540000000  0.4901090000000 1.0
C      1  0.5468790000000  0.5422670000000  0.5364680000000 1.0
C      1  0.5201230000000  0.4935170000000  0.5212380000000 1.0
C      1  0.4508760000000  0.5149760000000  0.4535070000000 1.0
C      1  0.5103450000000  0.4929340000000  0.5802720000000 1.0
C      1  0.4434140000000  0.4694330000000  0.5496020000000 1.0
C      1  0.4928950000000  0.5266430000000  0.4301760000000 1.0
C      1  0.4805750000000  0.4461080000000  0.4422550000000 1.0
C      1  0.4978260000000  0.5473710000000  0.4498320000000 1.0
C      1  0.5491690000000  0.5645570000000  0.4777850000000 1.0
C      1  0.4583210000000  0.5556490000000  0.4810510000000 1.0
C      1  0.5703540000000  0.5291780000000  0.5258960000000 1.0
C      1  0.4958360000000  0.4216280000000  0.4823240000000 1.0
C      1  0.5305020000000  0.4769630000000  0.5659880000000 1.0
C      1  0.5435450000000  0.4323850000000  0.4782300000000 1.0
C      1  0.5359440000000  0.5706570000000  0.5017020000000 1.0
C      1  0.5313230000000  0.5041970000000  0.4423880000000 1.0
C      1  0.5273690000000  0.4892120000000  0.4926140000000 1.0
C      1  0.5390310000000  0.4429040000000  0.5061260000000 1.0
C      1  0.5150370000000  0.5100190000000  0.4198030000000 1.0
C      1  0.4544290000000  0.5630170000000  0.5095520000000 1.0
C      1  0.4865440000000  0.5878370000000  0.5003710000000 1.0
C      1  0.5394980000000  0.4926530000000  0.5428150000000 1.0
C      1  0.4987710000000  0.5876240000000  0.4752830000000 1.0
C      1  0.4890500000000  0.5154550000000  0.5018930000000 1.0
C      1  0.5705820000000  0.4782530000000  0.4697170000000 1.0
C      1  0.4806360000000  0.5661720000000  0.4642980000000 1.0
C      1  0.4776740000000  0.5763120000000  0.5244360000000 1.0
C      1  0.4829890000000  0.5385400000000  0.5546900000000 1.0
C      1  0.5253630000000  0.4338440000000  0.5302930000000 1.0
C      1  0.5120820000000  0.5312050000000  0.4709200000000 1.0
C      1  0.5592620000000  0.4901920000000  0.4934990000000 1.0
C      1  0.4794180000000  0.5073960000000  0.4480250000000 1.0
C      1  0.4983320000000  0.4287020000000  0.5221150000000 1.0
C      1  0.4573220000000  0.4612210000000  0.4532730000000 1.0
C      1  0.4459430000000  0.4601190000000  0.4802300000000 1.0
C      1  0.5828190000000  0.5252290000000  0.4749660000000 1.0
C      1  0.4247570000000  0.4905420000000  0.5406500000000 1.0
C      1  0.4429770000000  0.5407290000000  0.5237410000000 1.0
C      1  0.5191010000000  0.4612900000000  0.4960950000000 1.0
C      1  0.5743240000000  0.5133340000000  0.5011590000000 1.0
C      1  0.5553860000000  0.5202060000000  0.4443050000000 1.0
C      1  0.4945690000000  0.4239710000000  0.4551330000000 1.0
C      1  0.4571870000000  0.4883120000000  0.4426670000000 1.0
C      1  0.4955850000000  0.4635780000000  0.4268630000000 1.0
C      1  0.5774420000000  0.5041630000000  0.4551960000000 1.0
C      1  0.5222760000000  0.5531790000000  0.5216040000000 1.0
C      1  0.4456840000000  0.5298610000000  0.4777820000000 1.0
C      1  0.4655250000000  0.4636560000000  0.5028310000000 1.0
C      1  0.4392310000000  0.5110380000000  0.5526480000000 1.0
C      1  0.5548610000000  0.5170940000000  0.5480390000000 1.0
C      1  0.5080520000000  0.4829400000000  0.4170530000000 1.0
END
