TITL C-884136-4169-4 3085383.17334339 125000 -25968.5829987328 0 0 174 (C1) n - 1
REM
REM in /home/nfs/bkarasulu/CARBON/AIRSS/Generating-Clusters/ReaxFF-fromJPCA2015/Units_Real/with-SteepDescent/Only-C1/SD-CG/Try1-3A/FIRE-CG
REM
REM
REM
REM
REM
REM ./C.cell (11c1c37f851c82e70ff6c80c92926a4b)
REM
REM compiler GCC version 9.2.1 20190827 (Red Hat 9.2.1-1)
REM options -cpp -mtune=generic -march=x86-64 -g -O0 -fpre-include=/usr/include/finclude/math-vector-fortran.h
REM seed -365758694 -746665697 -2116143121 1148585464 -1640542482 1121916777 -669466523 1941848399 -199905487 -1377078840 501531856 614815593 1669418814 541548717 -1201981470 -118254265 -571844928 -1725029228 -1507847360 1379531644 322423057 745748806 -1150688765 1565823696 -1735158298 -231813012 1393121052 -280879067 1466015430 897795563 1565995676 1481063342 1863539420
REM
CELL 1.54180   50.00000   50.00000   50.00000   90.00000   90.00000   90.00000
LATT -1
SFAC C  
C      1  0.5714030000000  0.5080980000000  0.4481460000000 1.0
C      1  0.5566920000000  0.5504660000000  0.4708150000000 1.0
C      1  0.4219840000000  0.4519710000000  0.4362870000000 1.0
C      1  0.4645590000000  0.4100870000000  0.5395080000000 1.0
C      1  0.5354470000000  0.5070410000000  0.5412460000000 1.0
C      1  0.5080660000000  0.5297810000000  0.3789420000000 1.0
C      1  0.5034910000000  0.3957970000000  0.4960920000000 1.0
C      1  0.4868530000000  0.5606810000000  0.4801280000000 1.0
C      1  0.4090860000000  0.5470460000000  0.4485850000000 1.0
C      1  0.4364970000000  0.5196030000000  0.5781310000000 1.0
C      1  0.5052940000000  0.5229820000000  0.6047330000000 1.0
C      1  0.4579640000000  0.5336690000000  0.5970880000000 1.0
C      1  0.5666590000000  0.4295980000000  0.4912500000000 1.0
C      1  0.4862260000000  0.4625740000000  0.3993630000000 1.0
C      1  0.5632610000000  0.5049020000000  0.5341230000000 1.0
C      1  0.5291300000000  0.5911270000000  0.5543690000000 1.0
C      1  0.4587410000000  0.4030470000000  0.5123430000000 1.0
C      1  0.5378890000000  0.4733010000000  0.3976690000000 1.0
C      1  0.4673590000000  0.5107080000000  0.4876780000000 1.0
C      1  0.4281680000000  0.4115070000000  0.4715260000000 1.0
C      1  0.5523950000000  0.4685940000000  0.5964080000000 1.0
C      1  0.4934150000000  0.4904330000000  0.5256120000000 1.0
C      1  0.4533640000000  0.5723900000000  0.5666610000000 1.0
C      1  0.5631770000000  0.4165130000000  0.5389120000000 1.0
C      1  0.4529720000000  0.5620840000000  0.4226960000000 1.0
C      1  0.6155150000000  0.4871360000000  0.4868900000000 1.0
C      1  0.4910750000000  0.4657940000000  0.5978980000000 1.0
C      1  0.5283930000000  0.4224670000000  0.5783080000000 1.0
C      1  0.5038460000000  0.5672960000000  0.4208180000000 1.0
C      1  0.5239560000000  0.5179690000000  0.5646800000000 1.0
C      1  0.5391950000000  0.4080340000000  0.5552260000000 1.0
C      1  0.4820100000000  0.5353330000000  0.4915150000000 1.0
C      1  0.5940380000000  0.4573690000000  0.5255700000000 1.0
C      1  0.5511480000000  0.5748410000000  0.5663250000000 1.0
C      1  0.5219350000000  0.4735410000000  0.4531150000000 1.0
C      1  0.5509790000000  0.4644880000000  0.5337160000000 1.0
C      1  0.5549280000000  0.4912310000000  0.4124670000000 1.0
C      1  0.4065840000000  0.4900450000000  0.5640990000000 1.0
C      1  0.5512720000000  0.5551160000000  0.5238340000000 1.0
C      1  0.4926890000000  0.5451560000000  0.4041480000000 1.0
C      1  0.4599930000000  0.5406030000000  0.4048330000000 1.0
C      1  0.4992190000000  0.5643770000000  0.5854370000000 1.0
C      1  0.5633450000000  0.4581460000000  0.5559190000000 1.0
C      1  0.5284360000000  0.5966160000000  0.5245020000000 1.0
C      1  0.5760490000000  0.4738850000000  0.4234920000000 1.0
C      1  0.4677210000000  0.4398440000000  0.4929610000000 1.0
C      1  0.5320670000000  0.4615670000000  0.5155270000000 1.0
C      1  0.4793580000000  0.5878820000000  0.5491240000000 1.0
C      1  0.4335740000000  0.5604290000000  0.5496820000000 1.0
C      1  0.5468610000000  0.4605200000000  0.4593960000000 1.0
C      1  0.4837840000000  0.5377890000000  0.5473130000000 1.0
C      1  0.5839470000000  0.5748890000000  0.4998640000000 1.0
C      1  0.5028370000000  0.4172680000000  0.4143880000000 1.0
C      1  0.5298350000000  0.5696650000000  0.4370020000000 1.0
C      1  0.5249250000000  0.5503540000000  0.5353740000000 1.0
C      1  0.6147830000000  0.5016500000000  0.5157360000000 1.0
C      1  0.4572210000000  0.6004580000000  0.5119000000000 1.0
C      1  0.4473100000000  0.5697630000000  0.5205450000000 1.0
C      1  0.5731220000000  0.5517760000000  0.4449830000000 1.0
C      1  0.5470630000000  0.5512020000000  0.5836490000000 1.0
C      1  0.5940520000000  0.4700020000000  0.4774930000000 1.0
C      1  0.5684120000000  0.5707990000000  0.5432840000000 1.0
C      1  0.5375630000000  0.4873040000000  0.5010090000000 1.0
C      1  0.4315890000000  0.4907110000000  0.4081030000000 1.0
C      1  0.4785300000000  0.4077910000000  0.4892340000000 1.0
C      1  0.4728940000000  0.5039230000000  0.4617760000000 1.0
C      1  0.6071140000000  0.5366640000000  0.4742500000000 1.0
C      1  0.5033170000000  0.5050770000000  0.5791120000000 1.0
C      1  0.4365340000000  0.5566900000000  0.4956140000000 1.0
C      1  0.4194410000000  0.4759500000000  0.4529690000000 1.0
C      1  0.5341680000000  0.5906930000000  0.4631830000000 1.0
C      1  0.4346530000000  0.4600590000000  0.4120670000000 1.0
C      1  0.4687830000000  0.4756580000000  0.5238750000000 1.0
C      1  0.6187320000000  0.5118840000000  0.4749770000000 1.0
C      1  0.4927830000000  0.5183790000000  0.5289590000000 1.0
C      1  0.5597770000000  0.5062850000000  0.5048060000000 1.0
C      1  0.5454790000000  0.4462760000000  0.5824900000000 1.0
C      1  0.5139990000000  0.6048910000000  0.4778040000000 1.0
C      1  0.5048640000000  0.4108750000000  0.4437070000000 1.0
C      1  0.4524940000000  0.5276750000000  0.4537500000000 1.0
C      1  0.5077070000000  0.5010690000000  0.4623890000000 1.0
C      1  0.4913910000000  0.4068690000000  0.5512280000000 1.0
C      1  0.5809650000000  0.4397020000000  0.5462170000000 1.0
C      1  0.3935340000000  0.5447130000000  0.4733430000000 1.0
C      1  0.4755400000000  0.5144330000000  0.5638600000000 1.0
C      1  0.4461770000000  0.5154390000000  0.4008720000000 1.0
C      1  0.4192940000000  0.5363580000000  0.5576380000000 1.0
C      1  0.6012060000000  0.5252400000000  0.5267830000000 1.0
C      1  0.4816580000000  0.4387730000000  0.5908700000000 1.0
C      1  0.4073990000000  0.4644240000000  0.5485750000000 1.0
C      1  0.5129010000000  0.4999920000000  0.4911410000000 1.0
C      1  0.5037490000000  0.5869860000000  0.5666740000000 1.0
C      1  0.5760160000000  0.4463550000000  0.4132130000000 1.0
C      1  0.4987130000000  0.5253460000000  0.4261080000000 1.0
C      1  0.5488600000000  0.4325360000000  0.4671870000000 1.0
C      1  0.4771860000000  0.5151370000000  0.6082610000000 1.0
C      1  0.5100840000000  0.4757990000000  0.3871550000000 1.0
C      1  0.4738560000000  0.5635750000000  0.5323720000000 1.0
C      1  0.4581190000000  0.4191080000000  0.4393110000000 1.0
C      1  0.5047190000000  0.4710240000000  0.5471650000000 1.0
C      1  0.4993590000000  0.4207020000000  0.5762150000000 1.0
C      1  0.5509050000000  0.5493690000000  0.4276550000000 1.0
C      1  0.4431390000000  0.4906780000000  0.5247380000000 1.0
C      1  0.5999080000000  0.4845240000000  0.5314500000000 1.0
C      1  0.4857490000000  0.5024820000000  0.4233420000000 1.0
C      1  0.5169540000000  0.3988540000000  0.5399890000000 1.0
C      1  0.4797240000000  0.4552350000000  0.4676320000000 1.0
C      1  0.5064080000000  0.4757690000000  0.5755200000000 1.0
C      1  0.4511770000000  0.5039690000000  0.5549400000000 1.0
C      1  0.5869900000000  0.4504810000000  0.4971430000000 1.0
C      1  0.4650520000000  0.6097300000000  0.4867670000000 1.0
C      1  0.4470890000000  0.5524560000000  0.4683800000000 1.0
C      1  0.4257770000000  0.4915390000000  0.5858540000000 1.0
C      1  0.5653790000000  0.5053090000000  0.5845380000000 1.0
C      1  0.4546500000000  0.4448430000000  0.5825290000000 1.0
C      1  0.5202940000000  0.5468800000000  0.5977910000000 1.0
C      1  0.4775870000000  0.5808220000000  0.4602750000000 1.0
C      1  0.5062890000000  0.4555410000000  0.4641430000000 1.0
C      1  0.4859920000000  0.6082990000000  0.4675850000000 1.0
C      1  0.5108740000000  0.5288250000000  0.4961010000000 1.0
C      1  0.5498940000000  0.5181200000000  0.4295530000000 1.0
C      1  0.4541970000000  0.4373610000000  0.4126510000000 1.0
C      1  0.5066080000000  0.4501790000000  0.5273090000000 1.0
C      1  0.4783760000000  0.5748810000000  0.4309800000000 1.0
C      1  0.4035450000000  0.5141070000000  0.5476060000000 1.0
C      1  0.4737620000000  0.4785550000000  0.4225930000000 1.0
C      1  0.5845230000000  0.5183680000000  0.5492890000000 1.0
C      1  0.3799840000000  0.4843780000000  0.5093680000000 1.0
C      1  0.4796990000000  0.4509980000000  0.5165200000000 1.0
C      1  0.4175300000000  0.4968360000000  0.4327860000000 1.0
C      1  0.3918950000000  0.5087150000000  0.5197590000000 1.0
C      1  0.5265280000000  0.4283550000000  0.4098400000000 1.0
C      1  0.5640650000000  0.5349500000000  0.4980470000000 1.0
C      1  0.5286510000000  0.5478240000000  0.4609670000000 1.0
C      1  0.5209390000000  0.5225810000000  0.4462860000000 1.0
C      1  0.4173560000000  0.4606810000000  0.4988920000000 1.0
C      1  0.4385220000000  0.4394540000000  0.4987040000000 1.0
C      1  0.5561910000000  0.4133390000000  0.5121790000000 1.0
C      1  0.4465810000000  0.4280030000000  0.5587500000000 1.0
C      1  0.3970210000000  0.5270160000000  0.4967620000000 1.0
C      1  0.5669050000000  0.5307010000000  0.5765550000000 1.0
C      1  0.5286100000000  0.3951880000000  0.5117130000000 1.0
C      1  0.4256160000000  0.4436860000000  0.5529960000000 1.0
C      1  0.4790090000000  0.4094220000000  0.4561260000000 1.0
C      1  0.4824330000000  0.6070500000000  0.5238920000000 1.0
C      1  0.5075880000000  0.6072650000000  0.5086420000000 1.0
C      1  0.4300880000000  0.4227650000000  0.4458030000000 1.0
C      1  0.5375090000000  0.5759480000000  0.5046480000000 1.0
C      1  0.5098800000000  0.5027780000000  0.3821860000000 1.0
C      1  0.5249540000000  0.3928330000000  0.4818240000000 1.0
C      1  0.4078070000000  0.5541000000000  0.4975640000000 1.0
C      1  0.4477670000000  0.4729260000000  0.5921510000000 1.0
C      1  0.5172510000000  0.5266820000000  0.5231410000000 1.0
C      1  0.3820480000000  0.4601490000000  0.4983940000000 1.0
C      1  0.5123600000000  0.5435440000000  0.5590520000000 1.0
C      1  0.4705300000000  0.4854760000000  0.6049930000000 1.0
C      1  0.4270010000000  0.4811170000000  0.4807300000000 1.0
C      1  0.4328410000000  0.5643500000000  0.4449000000000 1.0
C      1  0.4326100000000  0.4106400000000  0.4995620000000 1.0
C      1  0.4683170000000  0.4774120000000  0.4518740000000 1.0
C      1  0.5929520000000  0.5458180000000  0.5008870000000 1.0
C      1  0.5301140000000  0.4110830000000  0.4602530000000 1.0
C      1  0.5158110000000  0.5561160000000  0.4857620000000 1.0
C      1  0.4804190000000  0.4347570000000  0.4014530000000 1.0
C      1  0.4677570000000  0.5584410000000  0.5874640000000 1.0
C      1  0.5471830000000  0.4445940000000  0.4019300000000 1.0
C      1  0.4169970000000  0.4770260000000  0.5232550000000 1.0
C      1  0.4426280000000  0.4993540000000  0.4960550000000 1.0
C      1  0.5863580000000  0.5885340000000  0.5258310000000 1.0
C      1  0.4254330000000  0.5227600000000  0.4445230000000 1.0
C      1  0.5920100000000  0.5295790000000  0.4495580000000 1.0
C      1  0.5566280000000  0.5810280000000  0.4809980000000 1.0
C      1  0.5726000000000  0.4783860000000  0.5805960000000 1.0
C      1  0.5734650000000  0.4785310000000  0.4558860000000 1.0
END
