TITL C-883741-3679-222 18.6669356298397 125000 -20985.3793041122 0 0 140 (C1) n - 1
REM
REM in /home/nfs/bkarasulu/CARBON/AIRSS/Generating-Clusters/ReaxFF-fromJPCA2015/Units_Real/with-SteepDescent/Only-C1/SD-CG/Try1-3A/FIRE-CG
REM
REM
REM
REM
REM
REM ./C.cell (11c1c37f851c82e70ff6c80c92926a4b)
REM
REM compiler GCC version 9.2.1 20190827 (Red Hat 9.2.1-1)
REM options -cpp -mtune=generic -march=x86-64 -g -O0 -fpre-include=/usr/include/finclude/math-vector-fortran.h
REM seed 289490109 1353829810 452910856 549684658 775695451 -2138905812 423328841 603052393 -666400026 1432289605 -1915012184 -1965419278 -1336900017 314217702 -1907007495 -1586618643 -427931002 -1752433943 844646461 257517937 -1566072660 537194626 1359589637 918436142 -1848058167 1706926487 -51826345 1951035849 624307990 -1219356935 1364238317 1954776494 -1412299673
REM
CELL 1.54180   50.00000   50.00000   50.00000   90.00000   90.00000   90.00000
LATT -1
SFAC C  
C      1  0.4228220000000  0.4561050000000  0.4890070000000 1.0
C      1  0.4947900000000  0.4003070000000  0.5098460000000 1.0
C      1  0.5859810000000  0.4980760000000  0.5213750000000 1.0
C      1  0.5330380000000  0.5510410000000  0.4568380000000 1.0
C      1  0.4989000000000  0.5074900000000  0.4178060000000 1.0
C      1  0.5173150000000  0.4435050000000  0.4210490000000 1.0
C      1  0.5721420000000  0.4773120000000  0.5637800000000 1.0
C      1  0.4762040000000  0.4380860000000  0.5660790000000 1.0
C      1  0.4697870000000  0.4628640000000  0.4148120000000 1.0
C      1  0.4740520000000  0.5588840000000  0.4933810000000 1.0
C      1  0.5449460000000  0.5823020000000  0.5410380000000 1.0
C      1  0.4245060000000  0.4828330000000  0.4352650000000 1.0
C      1  0.3902500000000  0.5138490000000  0.5107610000000 1.0
C      1  0.5079500000000  0.4567690000000  0.5216220000000 1.0
C      1  0.5651220000000  0.4960000000000  0.5428730000000 1.0
C      1  0.5368320000000  0.4119110000000  0.4520170000000 1.0
C      1  0.5163430000000  0.4008820000000  0.4698470000000 1.0
C      1  0.5092430000000  0.4551080000000  0.5981290000000 1.0
C      1  0.4859770000000  0.5471190000000  0.5368000000000 1.0
C      1  0.4718140000000  0.5138500000000  0.4223760000000 1.0
C      1  0.5209930000000  0.4115220000000  0.4989340000000 1.0
C      1  0.5846740000000  0.5444480000000  0.4688110000000 1.0
C      1  0.5949750000000  0.4529560000000  0.5268580000000 1.0
C      1  0.5970130000000  0.5212480000000  0.5270500000000 1.0
C      1  0.4504300000000  0.4174350000000  0.4970180000000 1.0
C      1  0.5401980000000  0.5391170000000  0.4115130000000 1.0
C      1  0.5274570000000  0.4356300000000  0.5572160000000 1.0
C      1  0.4731000000000  0.5074820000000  0.5142350000000 1.0
C      1  0.5412920000000  0.4832350000000  0.4032900000000 1.0
C      1  0.4539180000000  0.5197560000000  0.5657240000000 1.0
C      1  0.4148530000000  0.5387380000000  0.5538250000000 1.0
C      1  0.5091550000000  0.5545580000000  0.5235390000000 1.0
C      1  0.5642070000000  0.4512940000000  0.4400070000000 1.0
C      1  0.6040570000000  0.5517920000000  0.4867350000000 1.0
C      1  0.5291620000000  0.4755610000000  0.5879090000000 1.0
C      1  0.5018160000000  0.5736510000000  0.4269970000000 1.0
C      1  0.5652700000000  0.4324270000000  0.4857060000000 1.0
C      1  0.4066720000000  0.4903000000000  0.4578390000000 1.0
C      1  0.5080720000000  0.4384590000000  0.4993670000000 1.0
C      1  0.5299620000000  0.4473720000000  0.5825740000000 1.0
C      1  0.5471180000000  0.4507910000000  0.5152450000000 1.0
C      1  0.5152250000000  0.4950510000000  0.5648740000000 1.0
C      1  0.5432310000000  0.4592570000000  0.4207200000000 1.0
C      1  0.4796490000000  0.5875520000000  0.4893080000000 1.0
C      1  0.4015270000000  0.4746600000000  0.4819700000000 1.0
C      1  0.4995580000000  0.5066400000000  0.5028670000000 1.0
C      1  0.4124650000000  0.4689490000000  0.5272480000000 1.0
C      1  0.5475800000000  0.5336840000000  0.4963500000000 1.0
C      1  0.6136580000000  0.5609130000000  0.5111320000000 1.0
C      1  0.4747130000000  0.4027040000000  0.4883290000000 1.0
C      1  0.4046440000000  0.5278090000000  0.4889180000000 1.0
C      1  0.4461790000000  0.4618060000000  0.4321800000000 1.0
C      1  0.4345450000000  0.5622960000000  0.5526830000000 1.0
C      1  0.4881830000000  0.4068630000000  0.4630180000000 1.0
C      1  0.4264440000000  0.4473120000000  0.5151080000000 1.0
C      1  0.4643610000000  0.4623610000000  0.5230290000000 1.0
C      1  0.5123860000000  0.4545630000000  0.4750820000000 1.0
C      1  0.4858820000000  0.5577790000000  0.5810410000000 1.0
C      1  0.4587310000000  0.5661200000000  0.5690230000000 1.0
C      1  0.5002370000000  0.5933120000000  0.4470450000000 1.0
C      1  0.5572460000000  0.5453950000000  0.5717520000000 1.0
C      1  0.5201460000000  0.4351230000000  0.4482990000000 1.0
C      1  0.5793770000000  0.5241920000000  0.4466080000000 1.0
C      1  0.4924190000000  0.5305680000000  0.5897360000000 1.0
C      1  0.3935680000000  0.5305880000000  0.5350110000000 1.0
C      1  0.4326650000000  0.5274240000000  0.4978790000000 1.0
C      1  0.4887540000000  0.4909400000000  0.5557350000000 1.0
C      1  0.4534990000000  0.4196210000000  0.5263760000000 1.0
C      1  0.4657980000000  0.4642160000000  0.4940590000000 1.0
C      1  0.5087960000000  0.5733500000000  0.5712480000000 1.0
C      1  0.5794010000000  0.5466290000000  0.5550150000000 1.0
C      1  0.4857880000000  0.4883640000000  0.4563860000000 1.0
C      1  0.5463860000000  0.5715720000000  0.4722460000000 1.0
C      1  0.5467190000000  0.5193400000000  0.5830630000000 1.0
C      1  0.4868210000000  0.4689120000000  0.4759090000000 1.0
C      1  0.5547800000000  0.4595920000000  0.4903520000000 1.0
C      1  0.4486360000000  0.5509440000000  0.5058610000000 1.0
C      1  0.4971490000000  0.5893230000000  0.5500160000000 1.0
C      1  0.5375000000000  0.4957170000000  0.4588510000000 1.0
C      1  0.4546510000000  0.4432480000000  0.5430020000000 1.0
C      1  0.5047780000000  0.5940400000000  0.4754190000000 1.0
C      1  0.6017770000000  0.5459370000000  0.5377400000000 1.0
C      1  0.4750150000000  0.4258730000000  0.4439120000000 1.0
C      1  0.4353650000000  0.5716330000000  0.5232370000000 1.0
C      1  0.5218480000000  0.5528440000000  0.4303200000000 1.0
C      1  0.4411930000000  0.5529180000000  0.4489070000000 1.0
C      1  0.5311320000000  0.5358880000000  0.5194610000000 1.0
C      1  0.4760270000000  0.5843370000000  0.4364040000000 1.0
C      1  0.4827370000000  0.4105310000000  0.5340350000000 1.0
C      1  0.4259840000000  0.5127210000000  0.5611640000000 1.0
C      1  0.5505460000000  0.5127210000000  0.4049040000000 1.0
C      1  0.4840120000000  0.5402870000000  0.4734090000000 1.0
C      1  0.3967180000000  0.4846790000000  0.5086860000000 1.0
C      1  0.5561250000000  0.4912060000000  0.5837350000000 1.0
C      1  0.4623970000000  0.5338240000000  0.4560740000000 1.0
C      1  0.4198100000000  0.4828640000000  0.5539320000000 1.0
C      1  0.5566940000000  0.4261660000000  0.5445910000000 1.0
C      1  0.4183470000000  0.5356050000000  0.4407360000000 1.0
C      1  0.4745720000000  0.5189840000000  0.5418910000000 1.0
C      1  0.4371100000000  0.4338630000000  0.4766620000000 1.0
C      1  0.5616750000000  0.4277220000000  0.4570160000000 1.0
C      1  0.5676520000000  0.4982740000000  0.4519730000000 1.0
C      1  0.5148000000000  0.4768290000000  0.3951810000000 1.0
C      1  0.5179630000000  0.5186660000000  0.5810620000000 1.0
C      1  0.4235910000000  0.5108520000000  0.4240990000000 1.0
C      1  0.5382060000000  0.5686810000000  0.5644500000000 1.0
C      1  0.5309510000000  0.4603870000000  0.5345870000000 1.0
C      1  0.4479360000000  0.5032080000000  0.4999090000000 1.0
C      1  0.5236940000000  0.5093010000000  0.5183590000000 1.0
C      1  0.5344280000000  0.4919770000000  0.5389610000000 1.0
C      1  0.4499080000000  0.4389690000000  0.4500920000000 1.0
C      1  0.5306770000000  0.5901200000000  0.4875490000000 1.0
C      1  0.5676250000000  0.5305730000000  0.4203070000000 1.0
C      1  0.4885440000000  0.4715070000000  0.5341960000000 1.0
C      1  0.4821760000000  0.4556690000000  0.5882480000000 1.0
C      1  0.5033010000000  0.5205410000000  0.4779580000000 1.0
C      1  0.5639100000000  0.5542630000000  0.4861560000000 1.0
C      1  0.4875380000000  0.4838120000000  0.4008180000000 1.0
C      1  0.4515450000000  0.5800370000000  0.4517230000000 1.0
C      1  0.5517410000000  0.4221900000000  0.5106490000000 1.0
C      1  0.4869490000000  0.4415470000000  0.4221800000000 1.0
C      1  0.5088920000000  0.5850340000000  0.5234700000000 1.0
C      1  0.4982360000000  0.4237330000000  0.5546480000000 1.0
C      1  0.4695310000000  0.5122260000000  0.5887230000000 1.0
C      1  0.4033550000000  0.5195870000000  0.4608770000000 1.0
C      1  0.4529870000000  0.5948960000000  0.4779630000000 1.0
C      1  0.5768280000000  0.4497590000000  0.5494340000000 1.0
C      1  0.5345310000000  0.4732250000000  0.4762650000000 1.0
C      1  0.4688350000000  0.4821110000000  0.5816100000000 1.0
C      1  0.4406630000000  0.5911540000000  0.5035840000000 1.0
C      1  0.5919730000000  0.4725310000000  0.4784420000000 1.0
C      1  0.5983090000000  0.4738030000000  0.5052370000000 1.0
C      1  0.5308730000000  0.5267040000000  0.4730870000000 1.0
C      1  0.5360990000000  0.5946400000000  0.5169410000000 1.0
C      1  0.4626820000000  0.5051220000000  0.4473310000000 1.0
C      1  0.5100860000000  0.4991090000000  0.4446050000000 1.0
C      1  0.4731750000000  0.5729150000000  0.5446410000000 1.0
C      1  0.5821580000000  0.4724580000000  0.4518100000000 1.0
C      1  0.4423630000000  0.4783390000000  0.4866870000000 1.0
C      1  0.4397180000000  0.4738530000000  0.5715320000000 1.0
END
