TITL C-883727-9645-98 20.3528351832315 125000 -13301.4293453842 0 0 91 (C1) n - 1
REM
REM in /home/nfs/bkarasulu/CARBON/AIRSS/Generating-Clusters/ReaxFF-fromJPCA2015/Units_Real/with-SteepDescent/Only-C1/SD-CG/Try1-3A/FIRE-CG
REM
REM
REM
REM
REM
REM ./C.cell (11c1c37f851c82e70ff6c80c92926a4b)
REM
REM compiler GCC version 9.2.1 20190827 (Red Hat 9.2.1-1)
REM options -cpp -mtune=generic -march=x86-64 -g -O0 -fpre-include=/usr/include/finclude/math-vector-fortran.h
REM seed -219075798 1408551158 -1148966168 -165684833 -1165618423 1547876655 1015073844 -1097767258 -326695388 49955280 180144716 -1114005407 -484938267 1141373384 249863131 646652012 1763993933 -255385642 1479540120 1057971669 -88185956 -562450487 -347362758 1996529002 -1257394093 -2094230408 2127709067 -804481640 -1620549168 -1154188650 -175647083 -542504328 1909248415
REM
CELL 1.54180   50.00000   50.00000   50.00000   90.00000   90.00000   90.00000
LATT -1
SFAC C  
C      1  0.4228070000000  0.5401800000000  0.5176610000000 1.0
C      1  0.5375630000000  0.4875980000000  0.5836240000000 1.0
C      1  0.5403780000000  0.5507210000000  0.5504030000000 1.0
C      1  0.4141850000000  0.4989800000000  0.4924390000000 1.0
C      1  0.4273650000000  0.5173040000000  0.4733740000000 1.0
C      1  0.4384350000000  0.4771580000000  0.5465360000000 1.0
C      1  0.5424010000000  0.4086420000000  0.5202760000000 1.0
C      1  0.5007750000000  0.4393320000000  0.5566720000000 1.0
C      1  0.4785110000000  0.5118560000000  0.4979420000000 1.0
C      1  0.4804170000000  0.4982150000000  0.4725440000000 1.0
C      1  0.4487980000000  0.5515720000000  0.4402890000000 1.0
C      1  0.5103420000000  0.4916690000000  0.5883960000000 1.0
C      1  0.4968230000000  0.4474160000000  0.4974110000000 1.0
C      1  0.4488330000000  0.4284390000000  0.4811870000000 1.0
C      1  0.4950010000000  0.4212360000000  0.5081150000000 1.0
C      1  0.5662890000000  0.5190280000000  0.4536340000000 1.0
C      1  0.4491840000000  0.5858560000000  0.5076490000000 1.0
C      1  0.5481380000000  0.4301310000000  0.5397060000000 1.0
C      1  0.4929820000000  0.4904180000000  0.5636780000000 1.0
C      1  0.4835270000000  0.4618180000000  0.5602090000000 1.0
C      1  0.4560570000000  0.5717730000000  0.4574410000000 1.0
C      1  0.4737640000000  0.4691840000000  0.4332170000000 1.0
C      1  0.4156830000000  0.5124380000000  0.5200430000000 1.0
C      1  0.5263380000000  0.4853480000000  0.5245330000000 1.0
C      1  0.4353750000000  0.5042500000000  0.5395110000000 1.0
C      1  0.4959860000000  0.4856530000000  0.4225220000000 1.0
C      1  0.5615960000000  0.4787030000000  0.4489840000000 1.0
C      1  0.5691270000000  0.4996530000000  0.5511430000000 1.0
C      1  0.4672540000000  0.4292800000000  0.4607140000000 1.0
C      1  0.5242240000000  0.5746370000000  0.5209390000000 1.0
C      1  0.4858170000000  0.5683230000000  0.4527640000000 1.0
C      1  0.5303790000000  0.4411310000000  0.5596370000000 1.0
C      1  0.4823860000000  0.5617180000000  0.5000720000000 1.0
C      1  0.4868180000000  0.4211960000000  0.5378510000000 1.0
C      1  0.5714630000000  0.4586960000000  0.5046920000000 1.0
C      1  0.4872890000000  0.5068340000000  0.4070650000000 1.0
C      1  0.5354950000000  0.4965920000000  0.4140630000000 1.0
C      1  0.4594350000000  0.4278260000000  0.5322960000000 1.0
C      1  0.4773370000000  0.5857720000000  0.5177210000000 1.0
C      1  0.5480070000000  0.4956220000000  0.5117450000000 1.0
C      1  0.5374080000000  0.5354620000000  0.5729180000000 1.0
C      1  0.5107940000000  0.5008810000000  0.4670040000000 1.0
C      1  0.4984330000000  0.5764630000000  0.5364010000000 1.0
C      1  0.5679620000000  0.4508200000000  0.5321280000000 1.0
C      1  0.5202380000000  0.5251850000000  0.5183470000000 1.0
C      1  0.4488000000000  0.5263220000000  0.4287640000000 1.0
C      1  0.4160340000000  0.4705140000000  0.4875990000000 1.0
C      1  0.4721620000000  0.5369430000000  0.5090310000000 1.0
C      1  0.5726470000000  0.5164430000000  0.4821260000000 1.0
C      1  0.4605770000000  0.4183890000000  0.5052470000000 1.0
C      1  0.4956210000000  0.5150870000000  0.5829380000000 1.0
C      1  0.5188960000000  0.5185660000000  0.4927110000000 1.0
C      1  0.5125510000000  0.4946560000000  0.3989130000000 1.0
C      1  0.5464430000000  0.4157340000000  0.4919090000000 1.0
C      1  0.5672700000000  0.4708990000000  0.5535450000000 1.0
C      1  0.4663800000000  0.4754480000000  0.4832970000000 1.0
C      1  0.4417640000000  0.4606740000000  0.4731450000000 1.0
C      1  0.4768240000000  0.5300300000000  0.4183400000000 1.0
C      1  0.5442620000000  0.5372060000000  0.4495880000000 1.0
C      1  0.4579090000000  0.5296790000000  0.5364040000000 1.0
C      1  0.5075740000000  0.5397770000000  0.5738810000000 1.0
C      1  0.5036100000000  0.4496170000000  0.4689360000000 1.0
C      1  0.4787500000000  0.4663940000000  0.5087180000000 1.0
C      1  0.5488480000000  0.4579040000000  0.4620580000000 1.0
C      1  0.5752070000000  0.4901720000000  0.5006800000000 1.0
C      1  0.4938600000000  0.5502080000000  0.4313370000000 1.0
C      1  0.5597030000000  0.4988700000000  0.4296780000000 1.0
C      1  0.5485890000000  0.5611840000000  0.4894510000000 1.0
C      1  0.4848160000000  0.4444390000000  0.4453060000000 1.0
C      1  0.4415240000000  0.5687070000000  0.4840470000000 1.0
C      1  0.4491670000000  0.4782920000000  0.4459970000000 1.0
C      1  0.5597840000000  0.4414320000000  0.4858860000000 1.0
C      1  0.4881020000000  0.4920390000000  0.5168470000000 1.0
C      1  0.5454210000000  0.4634120000000  0.5709880000000 1.0
C      1  0.5003600000000  0.5695200000000  0.4780480000000 1.0
C      1  0.4903200000000  0.5582860000000  0.5573530000000 1.0
C      1  0.5216540000000  0.5415880000000  0.4316790000000 1.0
C      1  0.4621170000000  0.5504380000000  0.5562240000000 1.0
C      1  0.5512080000000  0.5093600000000  0.5716790000000 1.0
C      1  0.5226770000000  0.4708610000000  0.4637300000000 1.0
C      1  0.4390880000000  0.5518770000000  0.5390800000000 1.0
C      1  0.5714040000000  0.5092030000000  0.5231310000000 1.0
C      1  0.5078800000000  0.4992610000000  0.5339160000000 1.0
C      1  0.4622100000000  0.4577670000000  0.5398260000000 1.0
C      1  0.5255260000000  0.5775500000000  0.4912030000000 1.0
C      1  0.4290490000000  0.5425640000000  0.4888890000000 1.0
C      1  0.4401310000000  0.5058260000000  0.4491260000000 1.0
C      1  0.5226910000000  0.5199430000000  0.4480530000000 1.0
C      1  0.5399100000000  0.5505230000000  0.5271620000000 1.0
C      1  0.5625760000000  0.5388700000000  0.4964410000000 1.0
C      1  0.5206900000000  0.4065190000000  0.5015960000000 1.0
END
