TITL C-883732-77-401 43.5219385843033 125000 -24667.6581130571 0 0 166 (C1) n - 1
REM
REM in /home/nfs/bkarasulu/CARBON/AIRSS/Generating-Clusters/ReaxFF-fromJPCA2015/Units_Real/with-SteepDescent/Only-C1/SD-CG/Try1-3A/FIRE-CG
REM
REM
REM
REM
REM
REM ./C.cell (11c1c37f851c82e70ff6c80c92926a4b)
REM
REM compiler GCC version 9.2.1 20190827 (Red Hat 9.2.1-1)
REM options -cpp -mtune=generic -march=x86-64 -g -O0 -fpre-include=/usr/include/finclude/math-vector-fortran.h
REM seed 1430762696 -399146777 1508636728 1565200947 -1074096516 1349928861 -265778557 -804713391 -332803388 1832457192 771831334 -154289811 -1339693588 1170039901 -1657048002 -839868702 1488888678 -2116906581 1492331995 860026781 -288488250 -1506984889 1036592627 213821442 2007592217 -1944816576 1218961974 -1211868732 -176740186 2101783855 1322447791 -500619333 1568352987
REM
CELL 1.54180   50.00000   50.00000   50.00000   90.00000   90.00000   90.00000
LATT -1
SFAC C  
C      1  0.4540090000000  0.4640760000000  0.4622850000000 1.0
C      1  0.5245580000000  0.5430200000000  0.5586090000000 1.0
C      1  0.4518560000000  0.5946180000000  0.4889650000000 1.0
C      1  0.4825630000000  0.4682860000000  0.4583470000000 1.0
C      1  0.4295420000000  0.4250400000000  0.4765780000000 1.0
C      1  0.4438140000000  0.5564440000000  0.4494640000000 1.0
C      1  0.4252380000000  0.5263210000000  0.5837590000000 1.0
C      1  0.5394270000000  0.4186280000000  0.5235760000000 1.0
C      1  0.4833020000000  0.4623330000000  0.5653930000000 1.0
C      1  0.4539300000000  0.5842560000000  0.4617320000000 1.0
C      1  0.5291670000000  0.4925090000000  0.5682770000000 1.0
C      1  0.5618290000000  0.5710810000000  0.5393180000000 1.0
C      1  0.5643280000000  0.4547890000000  0.4421970000000 1.0
C      1  0.5549480000000  0.4340330000000  0.4237610000000 1.0
C      1  0.4765680000000  0.5229850000000  0.3929890000000 1.0
C      1  0.4954120000000  0.4781160000000  0.5058630000000 1.0
C      1  0.5328340000000  0.5792930000000  0.5741010000000 1.0
C      1  0.4453630000000  0.4110130000000  0.5185730000000 1.0
C      1  0.5839190000000  0.5296790000000  0.4523570000000 1.0
C      1  0.4551930000000  0.5298760000000  0.4655350000000 1.0
C      1  0.4902150000000  0.4829320000000  0.4122480000000 1.0
C      1  0.5082980000000  0.4899280000000  0.6046510000000 1.0
C      1  0.4491110000000  0.5507960000000  0.4208520000000 1.0
C      1  0.4003830000000  0.5518540000000  0.4690640000000 1.0
C      1  0.4676040000000  0.4767030000000  0.5186570000000 1.0
C      1  0.4827230000000  0.5515540000000  0.5681180000000 1.0
C      1  0.5743830000000  0.5654890000000  0.4716650000000 1.0
C      1  0.4411590000000  0.4387050000000  0.4537410000000 1.0
C      1  0.4513470000000  0.4108070000000  0.4899760000000 1.0
C      1  0.4536480000000  0.5231820000000  0.4119250000000 1.0
C      1  0.5604520000000  0.4755110000000  0.4911830000000 1.0
C      1  0.4093890000000  0.4842180000000  0.5542600000000 1.0
C      1  0.5210850000000  0.4449640000000  0.4579320000000 1.0
C      1  0.5348580000000  0.5876960000000  0.4498850000000 1.0
C      1  0.3940390000000  0.5302620000000  0.5311310000000 1.0
C      1  0.4990170000000  0.5027620000000  0.3932160000000 1.0
C      1  0.4294640000000  0.5765490000000  0.5319700000000 1.0
C      1  0.5439820000000  0.5287500000000  0.5995570000000 1.0
C      1  0.3886750000000  0.5218030000000  0.5031520000000 1.0
C      1  0.5462780000000  0.4826930000000  0.4036580000000 1.0
C      1  0.3948970000000  0.4970390000000  0.4878050000000 1.0
C      1  0.5517880000000  0.4847930000000  0.5168940000000 1.0
C      1  0.5474790000000  0.5320510000000  0.5454740000000 1.0
C      1  0.5407650000000  0.4079880000000  0.5516790000000 1.0
C      1  0.4431580000000  0.4996610000000  0.4259250000000 1.0
C      1  0.4957940000000  0.4611000000000  0.5963260000000 1.0
C      1  0.5622100000000  0.4961110000000  0.4713770000000 1.0
C      1  0.4340160000000  0.4385010000000  0.5301660000000 1.0
C      1  0.4316960000000  0.5352930000000  0.5064110000000 1.0
C      1  0.4078580000000  0.4489040000000  0.5154440000000 1.0
C      1  0.5716450000000  0.5263790000000  0.5613560000000 1.0
C      1  0.4769630000000  0.5343020000000  0.5406940000000 1.0
C      1  0.4615040000000  0.4946770000000  0.5994620000000 1.0
C      1  0.5901250000000  0.4456330000000  0.4912140000000 1.0
C      1  0.5629560000000  0.4388490000000  0.5861070000000 1.0
C      1  0.6064270000000  0.4988580000000  0.5352680000000 1.0
C      1  0.5906610000000  0.4812340000000  0.5514300000000 1.0
C      1  0.4817250000000  0.5917070000000  0.5303440000000 1.0
C      1  0.4926790000000  0.5366370000000  0.5917460000000 1.0
C      1  0.4652440000000  0.4389070000000  0.5699080000000 1.0
C      1  0.5710550000000  0.5169700000000  0.4314910000000 1.0
C      1  0.4474270000000  0.4912850000000  0.5052250000000 1.0
C      1  0.5046650000000  0.3980650000000  0.4929730000000 1.0
C      1  0.4984120000000  0.5887250000000  0.4823560000000 1.0
C      1  0.4273810000000  0.5909410000000  0.5061550000000 1.0
C      1  0.5258960000000  0.5600850000000  0.4078940000000 1.0
C      1  0.5980110000000  0.5051140000000  0.5089240000000 1.0
C      1  0.4505510000000  0.4734170000000  0.4189600000000 1.0
C      1  0.4706930000000  0.5675850000000  0.4102810000000 1.0
C      1  0.5915730000000  0.5422560000000  0.4757880000000 1.0
C      1  0.5039650000000  0.4321430000000  0.5867660000000 1.0
C      1  0.5347200000000  0.5060550000000  0.5092010000000 1.0
C      1  0.4762810000000  0.4873690000000  0.5496320000000 1.0
C      1  0.4280470000000  0.4711910000000  0.5695220000000 1.0
C      1  0.5045970000000  0.4996020000000  0.5530100000000 1.0
C      1  0.4151790000000  0.5536700000000  0.4446010000000 1.0
C      1  0.4960520000000  0.4902600000000  0.4430790000000 1.0
C      1  0.4587420000000  0.4496950000000  0.5186050000000 1.0
C      1  0.5115890000000  0.5880780000000  0.5392300000000 1.0
C      1  0.4357460000000  0.5103920000000  0.5231960000000 1.0
C      1  0.5440230000000  0.5315830000000  0.5164780000000 1.0
C      1  0.4062690000000  0.5416040000000  0.4942110000000 1.0
C      1  0.4043390000000  0.5057660000000  0.4616980000000 1.0
C      1  0.4680220000000  0.4676180000000  0.6086830000000 1.0
C      1  0.5388860000000  0.5891140000000  0.5279770000000 1.0
C      1  0.5178970000000  0.4452690000000  0.4848330000000 1.0
C      1  0.5762870000000  0.4215130000000  0.4878810000000 1.0
C      1  0.5212340000000  0.5432650000000  0.5881130000000 1.0
C      1  0.3979560000000  0.4685700000000  0.4964860000000 1.0
C      1  0.5843850000000  0.4748660000000  0.4365960000000 1.0
C      1  0.4721550000000  0.4057460000000  0.5284080000000 1.0
C      1  0.4998870000000  0.5214310000000  0.4792530000000 1.0
C      1  0.5353220000000  0.4478260000000  0.5079750000000 1.0
C      1  0.4900540000000  0.4543500000000  0.4050760000000 1.0
C      1  0.5097070000000  0.5402380000000  0.4171670000000 1.0
C      1  0.5255380000000  0.4902570000000  0.4478920000000 1.0
C      1  0.4805660000000  0.5892690000000  0.4550030000000 1.0
C      1  0.5881920000000  0.4877850000000  0.4629500000000 1.0
C      1  0.5009020000000  0.5196500000000  0.5329850000000 1.0
C      1  0.5649520000000  0.4754430000000  0.5408530000000 1.0
C      1  0.5712750000000  0.4918650000000  0.4164570000000 1.0
C      1  0.5410680000000  0.5403880000000  0.4586870000000 1.0
C      1  0.4801700000000  0.5521140000000  0.3863930000000 1.0
C      1  0.5585550000000  0.5682810000000  0.5692890000000 1.0
C      1  0.5065540000000  0.5063610000000  0.5035250000000 1.0
C      1  0.4579700000000  0.5685360000000  0.5695620000000 1.0
C      1  0.5312700000000  0.5541110000000  0.5022620000000 1.0
C      1  0.4873040000000  0.5100030000000  0.6022190000000 1.0
C      1  0.5537300000000  0.5649270000000  0.4507660000000 1.0
C      1  0.4797630000000  0.4331720000000  0.5264220000000 1.0
C      1  0.5430090000000  0.5971940000000  0.4997390000000 1.0
C      1  0.5377990000000  0.4651420000000  0.4503430000000 1.0
C      1  0.4837420000000  0.4149410000000  0.4512070000000 1.0
C      1  0.4823060000000  0.5192460000000  0.4564700000000 1.0
C      1  0.4894900000000  0.5835980000000  0.4283280000000 1.0
C      1  0.4384870000000  0.5498870000000  0.5779200000000 1.0
C      1  0.4871830000000  0.4177560000000  0.5693060000000 1.0
C      1  0.4780070000000  0.5984030000000  0.5028930000000 1.0
C      1  0.4955230000000  0.4613510000000  0.4834110000000 1.0
C      1  0.5459980000000  0.4688850000000  0.5618500000000 1.0
C      1  0.5458740000000  0.5119080000000  0.4520630000000 1.0
C      1  0.5260320000000  0.5986000000000  0.4757020000000 1.0
C      1  0.5131310000000  0.4008310000000  0.5213930000000 1.0
C      1  0.5426630000000  0.4139640000000  0.4417850000000 1.0
C      1  0.5788830000000  0.5526890000000  0.5246720000000 1.0
C      1  0.5287490000000  0.4465530000000  0.5571110000000 1.0
C      1  0.5131440000000  0.4245850000000  0.4397080000000 1.0
C      1  0.4568500000000  0.5405990000000  0.4933450000000 1.0
C      1  0.5344060000000  0.4255470000000  0.5775430000000 1.0
C      1  0.5903230000000  0.5326970000000  0.5056040000000 1.0
C      1  0.5027310000000  0.4490300000000  0.5433260000000 1.0
C      1  0.4950540000000  0.3993970000000  0.5452010000000 1.0
C      1  0.4616590000000  0.4265410000000  0.4368440000000 1.0
C      1  0.5644290000000  0.5431280000000  0.5841750000000 1.0
C      1  0.4389200000000  0.4459050000000  0.5601540000000 1.0
C      1  0.4787200000000  0.4066420000000  0.4777710000000 1.0
C      1  0.4416890000000  0.4852740000000  0.4781500000000 1.0
C      1  0.5139300000000  0.5421800000000  0.4659490000000 1.0
C      1  0.5149390000000  0.4628940000000  0.5207980000000 1.0
C      1  0.5285210000000  0.4021840000000  0.4791920000000 1.0
C      1  0.4560950000000  0.5101710000000  0.5493290000000 1.0
C      1  0.5145220000000  0.4402380000000  0.4119320000000 1.0
C      1  0.5338600000000  0.5009700000000  0.5966460000000 1.0
C      1  0.3969500000000  0.5312200000000  0.4502020000000 1.0
C      1  0.5394510000000  0.4533550000000  0.4064810000000 1.0
C      1  0.4575200000000  0.5822740000000  0.5439250000000 1.0
C      1  0.4100520000000  0.5544250000000  0.5364120000000 1.0
C      1  0.5792500000000  0.4445550000000  0.5637850000000 1.0
C      1  0.4795660000000  0.5476300000000  0.5106810000000 1.0
C      1  0.4069340000000  0.5028900000000  0.5351290000000 1.0
C      1  0.5792680000000  0.4320440000000  0.5386550000000 1.0
C      1  0.4067560000000  0.4401980000000  0.4886340000000 1.0
C      1  0.4343660000000  0.5052110000000  0.4567870000000 1.0
C      1  0.5930700000000  0.4769660000000  0.4907970000000 1.0
C      1  0.5716430000000  0.4176470000000  0.5165750000000 1.0
C      1  0.5526950000000  0.4089150000000  0.4684170000000 1.0
C      1  0.5939130000000  0.5080870000000  0.5593100000000 1.0
C      1  0.5031800000000  0.5610610000000  0.4999900000000 1.0
C      1  0.5183860000000  0.5820110000000  0.4261650000000 1.0
C      1  0.5118860000000  0.5705840000000  0.5607320000000 1.0
C      1  0.5337950000000  0.5317900000000  0.4064970000000 1.0
C      1  0.5283510000000  0.5050110000000  0.3967520000000 1.0
C      1  0.4970820000000  0.5401710000000  0.4428910000000 1.0
C      1  0.4628670000000  0.4477290000000  0.4152340000000 1.0
C      1  0.5549360000000  0.5711210000000  0.4939510000000 1.0
C      1  0.4430980000000  0.5001750000000  0.5756010000000 1.0
END
