TITL C-883735-9890-188 9.16985086845151 125000 -25324.9382012349 0 0 169 (C1) n - 1
REM
REM in /home/nfs/bkarasulu/CARBON/AIRSS/Generating-Clusters/ReaxFF-fromJPCA2015/Units_Real/with-SteepDescent/Only-C1/SD-CG/Try1-3A/FIRE-CG
REM
REM
REM
REM
REM
REM ./C.cell (11c1c37f851c82e70ff6c80c92926a4b)
REM
REM compiler GCC version 9.2.1 20190827 (Red Hat 9.2.1-1)
REM options -cpp -mtune=generic -march=x86-64 -g -O0 -fpre-include=/usr/include/finclude/math-vector-fortran.h
REM seed -412257972 1549942535 -1362438808 1948862248 1343444569 -971652274 768419475 935946993 -821815867 -263638544 -299435703 -600045137 -954330378 -181235799 479247001 -25223693 -308006155 1677886046 959607305 320329910 -1019304099 2097678159 271964173 -1057261954 1525814664 -1296910933 1722952203 -1875307214 -1528469161 -720252188 -1960730715 2093232268 -265392410
REM
CELL 1.54180   50.00000   50.00000   50.00000   90.00000   90.00000   90.00000
LATT -1
SFAC C  
C      1  0.4730200000000  0.4999720000000  0.4195660000000 1.0
C      1  0.4108190000000  0.5066750000000  0.5610490000000 1.0
C      1  0.5004190000000  0.4740040000000  0.3866360000000 1.0
C      1  0.4788030000000  0.5184460000000  0.3995070000000 1.0
C      1  0.5033900000000  0.6100610000000  0.5207310000000 1.0
C      1  0.4942680000000  0.5855260000000  0.5035720000000 1.0
C      1  0.4462320000000  0.5105120000000  0.5233780000000 1.0
C      1  0.4787280000000  0.5841700000000  0.4375220000000 1.0
C      1  0.5558280000000  0.4546870000000  0.5709570000000 1.0
C      1  0.4825560000000  0.6084200000000  0.5408530000000 1.0
C      1  0.4805380000000  0.6004250000000  0.4781290000000 1.0
C      1  0.5193140000000  0.5049010000000  0.4244500000000 1.0
C      1  0.4801900000000  0.4091420000000  0.5188610000000 1.0
C      1  0.6033410000000  0.4638390000000  0.4811060000000 1.0
C      1  0.5063160000000  0.5571720000000  0.4694950000000 1.0
C      1  0.6110640000000  0.5053750000000  0.5186160000000 1.0
C      1  0.6006090000000  0.5047400000000  0.5452820000000 1.0
C      1  0.5071290000000  0.5952620000000  0.4388910000000 1.0
C      1  0.4252260000000  0.5313010000000  0.5215030000000 1.0
C      1  0.5467860000000  0.4792890000000  0.4663510000000 1.0
C      1  0.4861720000000  0.5178330000000  0.4687990000000 1.0
C      1  0.5869180000000  0.4410750000000  0.4705840000000 1.0
C      1  0.4624550000000  0.4268330000000  0.5671540000000 1.0
C      1  0.4446350000000  0.5840960000000  0.5614590000000 1.0
C      1  0.5365170000000  0.4960300000000  0.5546680000000 1.0
C      1  0.4473570000000  0.4935310000000  0.4258130000000 1.0
C      1  0.5944420000000  0.4602560000000  0.5272220000000 1.0
C      1  0.4232320000000  0.4224740000000  0.4965550000000 1.0
C      1  0.4554840000000  0.4469380000000  0.4078240000000 1.0
C      1  0.5601820000000  0.5408620000000  0.4831280000000 1.0
C      1  0.5540230000000  0.4403490000000  0.4289030000000 1.0
C      1  0.5303800000000  0.5203870000000  0.5446180000000 1.0
C      1  0.4490260000000  0.4714660000000  0.5928310000000 1.0
C      1  0.5046470000000  0.4362380000000  0.4058520000000 1.0
C      1  0.5891060000000  0.5541330000000  0.5209500000000 1.0
C      1  0.5122470000000  0.4162860000000  0.5567410000000 1.0
C      1  0.5505280000000  0.5922180000000  0.4610330000000 1.0
C      1  0.4600180000000  0.5464740000000  0.4922980000000 1.0
C      1  0.4564800000000  0.3921350000000  0.5184580000000 1.0
C      1  0.4027820000000  0.4561930000000  0.4492270000000 1.0
C      1  0.5314890000000  0.4292510000000  0.4467900000000 1.0
C      1  0.5607870000000  0.4330350000000  0.5524190000000 1.0
C      1  0.4329570000000  0.5800980000000  0.4677390000000 1.0
C      1  0.4312450000000  0.5913450000000  0.5221810000000 1.0
C      1  0.5344260000000  0.4576250000000  0.5074570000000 1.0
C      1  0.5049510000000  0.6085580000000  0.4647150000000 1.0
C      1  0.4712520000000  0.4547060000000  0.4787270000000 1.0
C      1  0.4738760000000  0.4095560000000  0.4725500000000 1.0
C      1  0.4814260000000  0.4566590000000  0.5237050000000 1.0
C      1  0.5756420000000  0.5170880000000  0.4907110000000 1.0
C      1  0.5179520000000  0.5166540000000  0.4500510000000 1.0
C      1  0.5167770000000  0.5468820000000  0.4045180000000 1.0
C      1  0.4993970000000  0.5036300000000  0.3853090000000 1.0
C      1  0.4789350000000  0.5468670000000  0.4655450000000 1.0
C      1  0.5607730000000  0.5425210000000  0.4265510000000 1.0
C      1  0.5640220000000  0.5134810000000  0.5780630000000 1.0
C      1  0.5413690000000  0.4061650000000  0.5170490000000 1.0
C      1  0.4939860000000  0.4028900000000  0.4924500000000 1.0
C      1  0.4853440000000  0.4160490000000  0.5509770000000 1.0
C      1  0.4220120000000  0.5748920000000  0.5449480000000 1.0
C      1  0.5429760000000  0.5639970000000  0.5537730000000 1.0
C      1  0.5415650000000  0.5288300000000  0.5885370000000 1.0
C      1  0.4309690000000  0.4094680000000  0.5216650000000 1.0
C      1  0.4889820000000  0.4436050000000  0.4989150000000 1.0
C      1  0.5845000000000  0.5244030000000  0.5603130000000 1.0
C      1  0.4164580000000  0.5455540000000  0.5451700000000 1.0
C      1  0.5385910000000  0.5614530000000  0.4179780000000 1.0
C      1  0.3894750000000  0.4443600000000  0.4729690000000 1.0
C      1  0.4665620000000  0.4465540000000  0.5878240000000 1.0
C      1  0.4435120000000  0.4514190000000  0.4763650000000 1.0
C      1  0.5794670000000  0.4852110000000  0.5367300000000 1.0
C      1  0.4938410000000  0.4815990000000  0.5291910000000 1.0
C      1  0.4454240000000  0.4223740000000  0.4784510000000 1.0
C      1  0.6115120000000  0.5069150000000  0.4655000000000 1.0
C      1  0.4653370000000  0.5344890000000  0.5178910000000 1.0
C      1  0.4347330000000  0.4308160000000  0.5565040000000 1.0
C      1  0.5603810000000  0.4843130000000  0.5639690000000 1.0
C      1  0.5336900000000  0.5838020000000  0.4366320000000 1.0
C      1  0.5148990000000  0.4519200000000  0.4886560000000 1.0
C      1  0.5677750000000  0.4168270000000  0.5106740000000 1.0
C      1  0.5710240000000  0.5757590000000  0.5126790000000 1.0
C      1  0.5243670000000  0.5441480000000  0.4534030000000 1.0
C      1  0.4960610000000  0.5819350000000  0.5490170000000 1.0
C      1  0.5289850000000  0.5986960000000  0.4788030000000 1.0
C      1  0.6043810000000  0.5277610000000  0.4821480000000 1.0
C      1  0.5230960000000  0.4594880000000  0.4616600000000 1.0
C      1  0.4537850000000  0.4573370000000  0.5266890000000 1.0
C      1  0.5344950000000  0.5052850000000  0.4699390000000 1.0
C      1  0.3815150000000  0.5046380000000  0.5194700000000 1.0
C      1  0.4247620000000  0.4724150000000  0.4666910000000 1.0
C      1  0.4581490000000  0.4962150000000  0.4999440000000 1.0
C      1  0.4878420000000  0.5442050000000  0.4109930000000 1.0
C      1  0.5020780000000  0.5425260000000  0.5748980000000 1.0
C      1  0.6087790000000  0.5340550000000  0.5105350000000 1.0
C      1  0.5644690000000  0.5150790000000  0.4165950000000 1.0
C      1  0.4869510000000  0.4663140000000  0.5778370000000 1.0
C      1  0.5270470000000  0.5186090000000  0.4944980000000 1.0
C      1  0.4493390000000  0.5394470000000  0.5844870000000 1.0
C      1  0.3940110000000  0.5015670000000  0.4919810000000 1.0
C      1  0.4994420000000  0.4711390000000  0.6034740000000 1.0
C      1  0.4439400000000  0.4317360000000  0.5326220000000 1.0
C      1  0.5751160000000  0.4774830000000  0.4452510000000 1.0
C      1  0.4547760000000  0.4960230000000  0.6050720000000 1.0
C      1  0.5487050000000  0.5845790000000  0.5350240000000 1.0
C      1  0.5301980000000  0.4533610000000  0.5357610000000 1.0
C      1  0.4904500000000  0.5680710000000  0.5742690000000 1.0
C      1  0.4605060000000  0.5035440000000  0.4723140000000 1.0
C      1  0.5186910000000  0.5721230000000  0.4911120000000 1.0
C      1  0.4949840000000  0.5266870000000  0.5988250000000 1.0
C      1  0.4989440000000  0.5169000000000  0.4950340000000 1.0
C      1  0.5801310000000  0.4349220000000  0.5302320000000 1.0
C      1  0.5299380000000  0.4447790000000  0.5796120000000 1.0
C      1  0.4257340000000  0.5779100000000  0.4963810000000 1.0
C      1  0.4754340000000  0.4556590000000  0.4509800000000 1.0
C      1  0.6073840000000  0.4761510000000  0.5072800000000 1.0
C      1  0.5373480000000  0.4138130000000  0.5451750000000 1.0
C      1  0.5180650000000  0.4782750000000  0.5439260000000 1.0
C      1  0.5475620000000  0.5413660000000  0.5347430000000 1.0
C      1  0.4234920000000  0.5303500000000  0.5700840000000 1.0
C      1  0.5530560000000  0.4758770000000  0.4952770000000 1.0
C      1  0.4611410000000  0.5643770000000  0.5765440000000 1.0
C      1  0.4964980000000  0.4893410000000  0.4286080000000 1.0
C      1  0.5063530000000  0.4217680000000  0.4312580000000 1.0
C      1  0.4818810000000  0.4516290000000  0.3947130000000 1.0
C      1  0.5293610000000  0.5538500000000  0.5773450000000 1.0
C      1  0.4011740000000  0.4609210000000  0.5317110000000 1.0
C      1  0.4323840000000  0.5489570000000  0.4995520000000 1.0
C      1  0.5413460000000  0.4142060000000  0.4717710000000 1.0
C      1  0.4620300000000  0.4354240000000  0.4340760000000 1.0
C      1  0.4217160000000  0.5551240000000  0.4599210000000 1.0
C      1  0.4605840000000  0.5915990000000  0.4601520000000 1.0
C      1  0.5234680000000  0.4578600000000  0.3962840000000 1.0
C      1  0.4877660000000  0.5666430000000  0.5255020000000 1.0
C      1  0.5670640000000  0.5836430000000  0.4850200000000 1.0
C      1  0.5675250000000  0.4956310000000  0.5086250000000 1.0
C      1  0.4657170000000  0.5223600000000  0.6023390000000 1.0
C      1  0.5030090000000  0.5278860000000  0.5483150000000 1.0
C      1  0.4186710000000  0.5275210000000  0.4546690000000 1.0
C      1  0.5201510000000  0.5145060000000  0.6031530000000 1.0
C      1  0.4194810000000  0.4546810000000  0.4266530000000 1.0
C      1  0.4810620000000  0.4151890000000  0.4445030000000 1.0
C      1  0.4366670000000  0.4699570000000  0.4114380000000 1.0
C      1  0.5240460000000  0.5990100000000  0.5372820000000 1.0
C      1  0.5200370000000  0.4867450000000  0.6127120000000 1.0
C      1  0.5776850000000  0.4475870000000  0.4437350000000 1.0
C      1  0.4538650000000  0.6020440000000  0.5396560000000 1.0
C      1  0.5001210000000  0.4692700000000  0.4464270000000 1.0
C      1  0.5240790000000  0.4049730000000  0.4928190000000 1.0
C      1  0.5678690000000  0.4216170000000  0.4819540000000 1.0
C      1  0.5751450000000  0.5416250000000  0.5406200000000 1.0
C      1  0.4208260000000  0.4580980000000  0.5520600000000 1.0
C      1  0.5238060000000  0.4586840000000  0.6050220000000 1.0
C      1  0.4864560000000  0.4960860000000  0.5074030000000 1.0
C      1  0.5377670000000  0.5454340000000  0.5018800000000 1.0
C      1  0.5211170000000  0.5183580000000  0.3988640000000 1.0
C      1  0.4435570000000  0.4787090000000  0.5443570000000 1.0
C      1  0.5128670000000  0.4556950000000  0.5594900000000 1.0
C      1  0.4096170000000  0.4762730000000  0.4896470000000 1.0
C      1  0.4756680000000  0.5557590000000  0.4347540000000 1.0
C      1  0.5486930000000  0.4620270000000  0.4105820000000 1.0
C      1  0.5535630000000  0.5472770000000  0.4548090000000 1.0
C      1  0.6041310000000  0.4816010000000  0.4575540000000 1.0
C      1  0.5658950000000  0.4860710000000  0.4178450000000 1.0
C      1  0.4611740000000  0.4827960000000  0.5678480000000 1.0
C      1  0.4036220000000  0.4492680000000  0.5007860000000 1.0
C      1  0.4918470000000  0.5390070000000  0.5252230000000 1.0
C      1  0.3950870000000  0.4891330000000  0.5408830000000 1.0
C      1  0.4380260000000  0.4993710000000  0.4530720000000 1.0
C      1  0.4028810000000  0.5225910000000  0.4751130000000 1.0
END
