TITL C-883731-9874-424 0.469676815969707 125000 -19413.9462524463 0 0 129 (C1) n - 1
REM
REM in /home/nfs/bkarasulu/CARBON/AIRSS/Generating-Clusters/ReaxFF-fromJPCA2015/Units_Real/with-SteepDescent/Only-C1/SD-CG/Try1-3A/FIRE-CG
REM
REM
REM
REM
REM
REM ./C.cell (11c1c37f851c82e70ff6c80c92926a4b)
REM
REM compiler GCC version 9.2.1 20190827 (Red Hat 9.2.1-1)
REM options -cpp -mtune=generic -march=x86-64 -g -O0 -fpre-include=/usr/include/finclude/math-vector-fortran.h
REM seed 1234217410 1174427518 1882776097 360688132 -100831684 1148694264 -1925827674 1364719978 1348451027 -1965288621 -1670650486 -615175033 609597890 755570990 720333130 -1945283415 223469499 585283296 -1452252447 -301383026 -1059808190 -1578764399 1561992550 220306712 -1926095067 -1241150041 -682304352 295208121 1780153987 -615036238 1594658353 -1696875695 -1386991410
REM
CELL 1.54180   50.00000   50.00000   50.00000   90.00000   90.00000   90.00000
LATT -1
SFAC C  
C      1  0.5998440000000  0.4851730000000  0.5088620000000 1.0
C      1  0.5656450000000  0.4599990000000  0.5361000000000 1.0
C      1  0.5332010000000  0.5261940000000  0.5644060000000 1.0
C      1  0.4781370000000  0.4241840000000  0.5485700000000 1.0
C      1  0.5276870000000  0.4934140000000  0.4463840000000 1.0
C      1  0.5106190000000  0.5801720000000  0.4356740000000 1.0
C      1  0.4674580000000  0.4613280000000  0.4840650000000 1.0
C      1  0.6067950000000  0.5118140000000  0.4977250000000 1.0
C      1  0.5190670000000  0.3993840000000  0.5227370000000 1.0
C      1  0.4922560000000  0.5379880000000  0.5882620000000 1.0
C      1  0.4437430000000  0.5380650000000  0.5774530000000 1.0
C      1  0.5495320000000  0.5831180000000  0.5275730000000 1.0
C      1  0.5006790000000  0.4938800000000  0.4549460000000 1.0
C      1  0.4173880000000  0.4670340000000  0.4538040000000 1.0
C      1  0.4576020000000  0.4454600000000  0.5427050000000 1.0
C      1  0.5884740000000  0.5620670000000  0.4884630000000 1.0
C      1  0.5007670000000  0.4391310000000  0.4330300000000 1.0
C      1  0.4657440000000  0.4723400000000  0.5466160000000 1.0
C      1  0.4297880000000  0.5122830000000  0.4313560000000 1.0
C      1  0.4073840000000  0.4621280000000  0.4817060000000 1.0
C      1  0.4889390000000  0.4591220000000  0.5024500000000 1.0
C      1  0.5184080000000  0.4042460000000  0.4492170000000 1.0
C      1  0.5204140000000  0.4986480000000  0.6069870000000 1.0
C      1  0.4655620000000  0.5234250000000  0.5911390000000 1.0
C      1  0.4788510000000  0.5068610000000  0.4928880000000 1.0
C      1  0.4763340000000  0.5360290000000  0.4537940000000 1.0
C      1  0.4140810000000  0.5358360000000  0.5084390000000 1.0
C      1  0.5690160000000  0.4409160000000  0.4781560000000 1.0
C      1  0.5348680000000  0.4705220000000  0.5020150000000 1.0
C      1  0.4306080000000  0.5571800000000  0.4953010000000 1.0
C      1  0.5226660000000  0.5703800000000  0.5636100000000 1.0
C      1  0.4815490000000  0.4749580000000  0.5722390000000 1.0
C      1  0.5015360000000  0.4891760000000  0.5588000000000 1.0
C      1  0.4604530000000  0.4714890000000  0.4218820000000 1.0
C      1  0.4329160000000  0.5467560000000  0.5516950000000 1.0
C      1  0.4631300000000  0.4941450000000  0.5907080000000 1.0
C      1  0.4538600000000  0.5710870000000  0.5098180000000 1.0
C      1  0.5151450000000  0.5910250000000  0.4631200000000 1.0
C      1  0.5541200000000  0.4317030000000  0.5286560000000 1.0
C      1  0.4958850000000  0.5617250000000  0.5709130000000 1.0
C      1  0.5155000000000  0.5071510000000  0.3990050000000 1.0
C      1  0.4700690000000  0.5566000000000  0.4337260000000 1.0
C      1  0.5383200000000  0.5514190000000  0.4469070000000 1.0
C      1  0.5643470000000  0.5764090000000  0.4808110000000 1.0
C      1  0.5837530000000  0.4678650000000  0.4863000000000 1.0
C      1  0.4916260000000  0.3914360000000  0.5127900000000 1.0
C      1  0.5157840000000  0.5227940000000  0.5910490000000 1.0
C      1  0.5043610000000  0.4968770000000  0.4824000000000 1.0
C      1  0.4209440000000  0.5069650000000  0.4996420000000 1.0
C      1  0.4047860000000  0.5012320000000  0.5454380000000 1.0
C      1  0.4931140000000  0.5097590000000  0.5429990000000 1.0
C      1  0.5201080000000  0.5488110000000  0.4693870000000 1.0
C      1  0.5050050000000  0.4293370000000  0.5589490000000 1.0
C      1  0.5590320000000  0.4617650000000  0.4315290000000 1.0
C      1  0.5043700000000  0.4750960000000  0.6111040000000 1.0
C      1  0.4834090000000  0.5815540000000  0.4326140000000 1.0
C      1  0.5727310000000  0.5341130000000  0.5237040000000 1.0
C      1  0.5263300000000  0.4324880000000  0.4482930000000 1.0
C      1  0.4936270000000  0.3923020000000  0.4591670000000 1.0
C      1  0.5616500000000  0.5207410000000  0.4751370000000 1.0
C      1  0.4610080000000  0.4914030000000  0.4764940000000 1.0
C      1  0.5011460000000  0.4482410000000  0.5801540000000 1.0
C      1  0.4459600000000  0.5869660000000  0.4473920000000 1.0
C      1  0.4566320000000  0.4098010000000  0.4877180000000 1.0
C      1  0.4166220000000  0.4564280000000  0.5133410000000 1.0
C      1  0.5607130000000  0.5134800000000  0.5661320000000 1.0
C      1  0.4551640000000  0.4997760000000  0.4244430000000 1.0
C      1  0.5886770000000  0.4852320000000  0.5351920000000 1.0
C      1  0.5507420000000  0.5273320000000  0.5042480000000 1.0
C      1  0.5215410000000  0.5364350000000  0.4031440000000 1.0
C      1  0.4888510000000  0.4627950000000  0.4194970000000 1.0
C      1  0.5423440000000  0.4990940000000  0.4700640000000 1.0
C      1  0.5216970000000  0.4561520000000  0.5993880000000 1.0
C      1  0.5536370000000  0.4423990000000  0.4527410000000 1.0
C      1  0.4709700000000  0.5981550000000  0.4542350000000 1.0
C      1  0.5076020000000  0.5453800000000  0.4940490000000 1.0
C      1  0.5598720000000  0.4303200000000  0.5019580000000 1.0
C      1  0.5429470000000  0.5167240000000  0.4035240000000 1.0
C      1  0.5161640000000  0.5246770000000  0.5375960000000 1.0
C      1  0.4271320000000  0.5481930000000  0.4692980000000 1.0
C      1  0.5409020000000  0.5851790000000  0.4737350000000 1.0
C      1  0.5104990000000  0.4795520000000  0.4082360000000 1.0
C      1  0.5463550000000  0.4692720000000  0.5569570000000 1.0
C      1  0.5883890000000  0.4857470000000  0.4615540000000 1.0
C      1  0.5296000000000  0.4964190000000  0.4929500000000 1.0
C      1  0.4939520000000  0.5855630000000  0.5285950000000 1.0
C      1  0.5290350000000  0.4198270000000  0.5406410000000 1.0
C      1  0.4473310000000  0.4117920000000  0.5150980000000 1.0
C      1  0.4532730000000  0.5643350000000  0.5374280000000 1.0
C      1  0.5782750000000  0.5107060000000  0.5438670000000 1.0
C      1  0.5619610000000  0.4708190000000  0.5083700000000 1.0
C      1  0.4381110000000  0.4562270000000  0.4353060000000 1.0
C      1  0.4364800000000  0.4372430000000  0.5241990000000 1.0
C      1  0.5924500000000  0.5116760000000  0.4728140000000 1.0
C      1  0.4809750000000  0.3936470000000  0.4854530000000 1.0
C      1  0.4251950000000  0.5399360000000  0.4425550000000 1.0
C      1  0.4695930000000  0.4962280000000  0.5285430000000 1.0
C      1  0.4791220000000  0.5849400000000  0.5029940000000 1.0
C      1  0.4161710000000  0.4909170000000  0.5688110000000 1.0
C      1  0.4352610000000  0.5013490000000  0.4760140000000 1.0
C      1  0.5255880000000  0.5330060000000  0.5136100000000 1.0
C      1  0.5968690000000  0.5385680000000  0.5050660000000 1.0
C      1  0.5198440000000  0.4725040000000  0.5458100000000 1.0
C      1  0.4561790000000  0.4354930000000  0.4732450000000 1.0
C      1  0.3943810000000  0.4849290000000  0.4927590000000 1.0
C      1  0.4408810000000  0.5636340000000  0.4319420000000 1.0
C      1  0.5214870000000  0.5865440000000  0.5393230000000 1.0
C      1  0.5133030000000  0.4611090000000  0.5191260000000 1.0
C      1  0.5745230000000  0.4862200000000  0.4358430000000 1.0
C      1  0.5601920000000  0.5316010000000  0.4464780000000 1.0
C      1  0.4127560000000  0.5304740000000  0.5369030000000 1.0
C      1  0.4894610000000  0.5943710000000  0.4772500000000 1.0
C      1  0.5615780000000  0.5595440000000  0.5403370000000 1.0
C      1  0.5359170000000  0.4779380000000  0.4230910000000 1.0
C      1  0.4185030000000  0.4960010000000  0.4526900000000 1.0
C      1  0.4093580000000  0.4764460000000  0.5318010000000 1.0
C      1  0.4434030000000  0.5077740000000  0.5207120000000 1.0
C      1  0.4744560000000  0.5066230000000  0.4469340000000 1.0
C      1  0.4461360000000  0.4293890000000  0.4452390000000 1.0
C      1  0.5459920000000  0.5523240000000  0.5634490000000 1.0
C      1  0.4922560000000  0.4111450000000  0.4361980000000 1.0
C      1  0.5569700000000  0.4869120000000  0.5754820000000 1.0
C      1  0.4820200000000  0.5348430000000  0.4821410000000 1.0
C      1  0.5243090000000  0.5586910000000  0.4218930000000 1.0
C      1  0.5628790000000  0.5126020000000  0.4257710000000 1.0
C      1  0.5421300000000  0.4794990000000  0.5967100000000 1.0
C      1  0.4787440000000  0.5722750000000  0.5494620000000 1.0
C      1  0.4710540000000  0.4030380000000  0.5300430000000 1.0
C      1  0.4374620000000  0.4910490000000  0.5827490000000 1.0
END
