TITL C-884127-5181-473 16.4819202431919 125000 -23652.9223288697 0 0 159 (C1) n - 1
REM
REM in /home/nfs/bkarasulu/CARBON/AIRSS/Generating-Clusters/ReaxFF-fromJPCA2015/Units_Real/with-SteepDescent/Only-C1/SD-CG/Try1-3A/FIRE-CG
REM
REM
REM
REM
REM
REM ./C.cell (11c1c37f851c82e70ff6c80c92926a4b)
REM
REM compiler GCC version 9.2.1 20190827 (Red Hat 9.2.1-1)
REM options -cpp -mtune=generic -march=x86-64 -g -O0 -fpre-include=/usr/include/finclude/math-vector-fortran.h
REM seed -1908562345 -1109909555 -591953051 -1118819365 997587957 -1875965362 -459375501 1065029614 607184224 -884606552 -2095674687 1667642640 908787856 -679909107 1727997279 -159695053 844655025 -689924309 1068546976 -1294304152 -132422330 1074965483 -2037184130 -1571228329 1715380884 -957851752 -836899241 539537633 -2040342676 -911585890 560137223 -1232433926 168118373
REM
CELL 1.54180   50.00000   50.00000   50.00000   90.00000   90.00000   90.00000
LATT -1
SFAC C  
C      1  0.5911490000000  0.5612620000000  0.4740450000000 1.0
C      1  0.5016880000000  0.5205930000000  0.4043560000000 1.0
C      1  0.5388800000000  0.5958500000000  0.4534740000000 1.0
C      1  0.5342940000000  0.5740180000000  0.4337490000000 1.0
C      1  0.4703030000000  0.5526190000000  0.5943630000000 1.0
C      1  0.4124160000000  0.5438680000000  0.5368490000000 1.0
C      1  0.5495030000000  0.5187100000000  0.5579210000000 1.0
C      1  0.6040620000000  0.5421790000000  0.4944660000000 1.0
C      1  0.4652160000000  0.5803690000000  0.5579250000000 1.0
C      1  0.4116760000000  0.5053250000000  0.5202010000000 1.0
C      1  0.5163050000000  0.4574370000000  0.4675280000000 1.0
C      1  0.4986420000000  0.5244240000000  0.4988930000000 1.0
C      1  0.4217240000000  0.5337850000000  0.5607700000000 1.0
C      1  0.5058260000000  0.4431070000000  0.6014420000000 1.0
C      1  0.5547320000000  0.4748280000000  0.4968770000000 1.0
C      1  0.4082960000000  0.4697500000000  0.5506990000000 1.0
C      1  0.4106490000000  0.5092170000000  0.4568970000000 1.0
C      1  0.5170330000000  0.6186700000000  0.4954590000000 1.0
C      1  0.4514040000000  0.5713470000000  0.5846800000000 1.0
C      1  0.5152980000000  0.5953300000000  0.5161560000000 1.0
C      1  0.5071400000000  0.4730110000000  0.4895310000000 1.0
C      1  0.5047410000000  0.5696240000000  0.4351230000000 1.0
C      1  0.4887130000000  0.4949390000000  0.5403230000000 1.0
C      1  0.5572920000000  0.5452300000000  0.5752680000000 1.0
C      1  0.5406220000000  0.4989980000000  0.4606740000000 1.0
C      1  0.4860090000000  0.5247610000000  0.4475420000000 1.0
C      1  0.4177510000000  0.5487180000000  0.4864920000000 1.0
C      1  0.4890650000000  0.6125000000000  0.4866400000000 1.0
C      1  0.5764810000000  0.5497690000000  0.5250340000000 1.0
C      1  0.4311020000000  0.5587820000000  0.5692070000000 1.0
C      1  0.5490280000000  0.5659650000000  0.4918600000000 1.0
C      1  0.3967740000000  0.4870570000000  0.5039090000000 1.0
C      1  0.5274610000000  0.4426450000000  0.5115390000000 1.0
C      1  0.5581190000000  0.4737190000000  0.5254890000000 1.0
C      1  0.4261300000000  0.4832730000000  0.5710030000000 1.0
C      1  0.5273730000000  0.6164170000000  0.4690590000000 1.0
C      1  0.4520450000000  0.4930530000000  0.4255090000000 1.0
C      1  0.4519490000000  0.4584490000000  0.5397960000000 1.0
C      1  0.4502440000000  0.4491000000000  0.5678700000000 1.0
C      1  0.5744640000000  0.4438310000000  0.5273980000000 1.0
C      1  0.5376590000000  0.4467890000000  0.4839520000000 1.0
C      1  0.5353940000000  0.5639120000000  0.5832540000000 1.0
C      1  0.4832690000000  0.4297960000000  0.5926920000000 1.0
C      1  0.4368630000000  0.4001110000000  0.4923460000000 1.0
C      1  0.6028810000000  0.5161400000000  0.4824330000000 1.0
C      1  0.5548880000000  0.5528270000000  0.4328040000000 1.0
C      1  0.4745540000000  0.4846990000000  0.5963370000000 1.0
C      1  0.5047410000000  0.5623240000000  0.4678870000000 1.0
C      1  0.5777210000000  0.4546290000000  0.4122210000000 1.0
C      1  0.4280300000000  0.5984110000000  0.5025440000000 1.0
C      1  0.4734810000000  0.6028790000000  0.4625700000000 1.0
C      1  0.4927200000000  0.5880900000000  0.5633520000000 1.0
C      1  0.4869710000000  0.4012140000000  0.4401930000000 1.0
C      1  0.5519580000000  0.5295110000000  0.4153750000000 1.0
C      1  0.5121370000000  0.4800160000000  0.5474060000000 1.0
C      1  0.5418480000000  0.5077790000000  0.5860790000000 1.0
C      1  0.4820790000000  0.5006960000000  0.5126550000000 1.0
C      1  0.4451520000000  0.4910100000000  0.4874860000000 1.0
C      1  0.4848010000000  0.5681200000000  0.4874210000000 1.0
C      1  0.5402180000000  0.4093360000000  0.5428400000000 1.0
C      1  0.5028690000000  0.4540430000000  0.5570930000000 1.0
C      1  0.4744900000000  0.4985330000000  0.4451150000000 1.0
C      1  0.4766600000000  0.5437730000000  0.4986490000000 1.0
C      1  0.5869750000000  0.5206270000000  0.4581390000000 1.0
C      1  0.5323260000000  0.4927130000000  0.4915310000000 1.0
C      1  0.5308220000000  0.4666280000000  0.5294600000000 1.0
C      1  0.4923490000000  0.5360120000000  0.5975520000000 1.0
C      1  0.5378760000000  0.4837030000000  0.4041190000000 1.0
C      1  0.4470410000000  0.4078120000000  0.5318110000000 1.0
C      1  0.4495500000000  0.4718360000000  0.5858770000000 1.0
C      1  0.5138220000000  0.5453700000000  0.5783200000000 1.0
C      1  0.4919430000000  0.4929150000000  0.4044000000000 1.0
C      1  0.4648020000000  0.5570990000000  0.5382150000000 1.0
C      1  0.5660040000000  0.4820160000000  0.4028640000000 1.0
C      1  0.4237430000000  0.4955410000000  0.4333200000000 1.0
C      1  0.4524570000000  0.5078770000000  0.5124500000000 1.0
C      1  0.4413520000000  0.4361460000000  0.5256170000000 1.0
C      1  0.5702940000000  0.4745790000000  0.5662450000000 1.0
C      1  0.5982660000000  0.4943060000000  0.5014850000000 1.0
C      1  0.4400130000000  0.5065330000000  0.5577730000000 1.0
C      1  0.4205630000000  0.5363800000000  0.4615050000000 1.0
C      1  0.5753490000000  0.5817960000000  0.4878510000000 1.0
C      1  0.5286420000000  0.5767760000000  0.4749940000000 1.0
C      1  0.5471370000000  0.4201100000000  0.4754710000000 1.0
C      1  0.4452120000000  0.5952160000000  0.4654740000000 1.0
C      1  0.5808610000000  0.4774990000000  0.4874580000000 1.0
C      1  0.5687510000000  0.4470640000000  0.5570680000000 1.0
C      1  0.5520290000000  0.4252180000000  0.5223270000000 1.0
C      1  0.4960430000000  0.4853410000000  0.4324870000000 1.0
C      1  0.5668270000000  0.4289140000000  0.4556870000000 1.0
C      1  0.4085990000000  0.5344490000000  0.5108920000000 1.0
C      1  0.5277750000000  0.5213140000000  0.5091000000000 1.0
C      1  0.4835330000000  0.4829290000000  0.4911830000000 1.0
C      1  0.4676930000000  0.4233830000000  0.4431530000000 1.0
C      1  0.5900300000000  0.5094610000000  0.5257370000000 1.0
C      1  0.5300260000000  0.5782970000000  0.5352140000000 1.0
C      1  0.5139120000000  0.4004410000000  0.5313770000000 1.0
C      1  0.5201810000000  0.4381560000000  0.5750760000000 1.0
C      1  0.4295790000000  0.4246050000000  0.4810380000000 1.0
C      1  0.4840030000000  0.5910800000000  0.4376770000000 1.0
C      1  0.4805530000000  0.4252110000000  0.4894600000000 1.0
C      1  0.5687860000000  0.5661880000000  0.5609760000000 1.0
C      1  0.4561280000000  0.3895620000000  0.5098420000000 1.0
C      1  0.4315870000000  0.4652790000000  0.4855630000000 1.0
C      1  0.4676330000000  0.4872670000000  0.4704980000000 1.0
C      1  0.4380820000000  0.4917620000000  0.5321380000000 1.0
C      1  0.4653900000000  0.4042730000000  0.5544410000000 1.0
C      1  0.4295350000000  0.5782530000000  0.4873460000000 1.0
C      1  0.5334750000000  0.5270000000000  0.4652670000000 1.0
C      1  0.4824600000000  0.3968360000000  0.4968430000000 1.0
C      1  0.5579490000000  0.4440660000000  0.4305400000000 1.0
C      1  0.4955000000000  0.4435190000000  0.5075800000000 1.0
C      1  0.5219620000000  0.5837200000000  0.5634660000000 1.0
C      1  0.4236690000000  0.4455340000000  0.5050690000000 1.0
C      1  0.4025350000000  0.4646520000000  0.5229390000000 1.0
C      1  0.5550870000000  0.4823080000000  0.5899560000000 1.0
C      1  0.4776560000000  0.5121850000000  0.5875150000000 1.0
C      1  0.5463900000000  0.4286790000000  0.5646180000000 1.0
C      1  0.4233680000000  0.4676660000000  0.4363440000000 1.0
C      1  0.5008310000000  0.4728040000000  0.6021270000000 1.0
C      1  0.5054040000000  0.4398010000000  0.4195670000000 1.0
C      1  0.5446290000000  0.5372780000000  0.4896190000000 1.0
C      1  0.5682360000000  0.5007320000000  0.4484490000000 1.0
C      1  0.5259580000000  0.3999300000000  0.4777330000000 1.0
C      1  0.4839150000000  0.4432470000000  0.5358890000000 1.0
C      1  0.5705790000000  0.4969810000000  0.5452710000000 1.0
C      1  0.4584010000000  0.5517370000000  0.4213200000000 1.0
C      1  0.4576510000000  0.4290840000000  0.4706880000000 1.0
C      1  0.4558140000000  0.4652940000000  0.4148350000000 1.0
C      1  0.4848830000000  0.5375860000000  0.5447090000000 1.0
C      1  0.5263860000000  0.4867730000000  0.5992170000000 1.0
C      1  0.5132770000000  0.3956580000000  0.4518550000000 1.0
C      1  0.4355330000000  0.5522760000000  0.4393910000000 1.0
C      1  0.5611310000000  0.5719790000000  0.5345230000000 1.0
C      1  0.4881020000000  0.5902510000000  0.5063190000000 1.0
C      1  0.4688350000000  0.4775640000000  0.3905830000000 1.0
C      1  0.4773850000000  0.4442000000000  0.4252150000000 1.0
C      1  0.5915990000000  0.4535180000000  0.4998140000000 1.0
C      1  0.5781910000000  0.5477290000000  0.4511300000000 1.0
C      1  0.4370840000000  0.5820650000000  0.4404590000000 1.0
C      1  0.5107900000000  0.3932520000000  0.5028020000000 1.0
C      1  0.5104980000000  0.4121530000000  0.4266210000000 1.0
C      1  0.4882870000000  0.5411590000000  0.4234390000000 1.0
C      1  0.4123840000000  0.4649040000000  0.4626390000000 1.0
C      1  0.3992030000000  0.4889900000000  0.4741100000000 1.0
C      1  0.5308770000000  0.4587750000000  0.4216370000000 1.0
C      1  0.5845850000000  0.4388370000000  0.4762920000000 1.0
C      1  0.5198810000000  0.4751750000000  0.4446920000000 1.0
C      1  0.4609200000000  0.5811290000000  0.4222290000000 1.0
C      1  0.4609060000000  0.4220320000000  0.5780080000000 1.0
C      1  0.5046800000000  0.5313830000000  0.4680820000000 1.0
C      1  0.4742370000000  0.5124540000000  0.5578400000000 1.0
C      1  0.5699290000000  0.5062730000000  0.4195860000000 1.0
C      1  0.5294090000000  0.5129130000000  0.4059210000000 1.0
C      1  0.5297660000000  0.5267700000000  0.5381430000000 1.0
C      1  0.5120700000000  0.5451020000000  0.5491050000000 1.0
C      1  0.4901280000000  0.4135830000000  0.5426130000000 1.0
C      1  0.4546620000000  0.5403350000000  0.5169910000000 1.0
C      1  0.5958490000000  0.5370220000000  0.5214650000000 1.0
END
