TITL C-883737-113-437 6.77778664387062 125000 -26398.6986519541 0 0 176 (C1) n - 1
REM
REM in /home/nfs/bkarasulu/CARBON/AIRSS/Generating-Clusters/ReaxFF-fromJPCA2015/Units_Real/with-SteepDescent/Only-C1/SD-CG/Try1-3A/FIRE-CG
REM
REM
REM
REM
REM
REM ./C.cell (11c1c37f851c82e70ff6c80c92926a4b)
REM
REM compiler GCC version 9.2.1 20190827 (Red Hat 9.2.1-1)
REM options -cpp -mtune=generic -march=x86-64 -g -O0 -fpre-include=/usr/include/finclude/math-vector-fortran.h
REM seed -319626092 -1539691961 982852755 -446824018 -769050801 258901032 2129135342 -766955527 -145261997 -543673680 959334265 -1932280061 -813334080 -1967481834 815376867 51265499 -648481325 -1773382151 -1667769908 263891644 1296000508 1346417723 -234651580 1105261739 1870633748 737311080 60590508 809524549 -835984067 1584635907 1515663711 -22219672 1087337785
REM
CELL 1.54180   50.00000   50.00000   50.00000   90.00000   90.00000   90.00000
LATT -1
SFAC C  
C      1  0.4354540000000  0.5868470000000  0.5071210000000 1.0
C      1  0.4741200000000  0.5046050000000  0.5351990000000 1.0
C      1  0.4380230000000  0.4439460000000  0.5795970000000 1.0
C      1  0.4453820000000  0.4873030000000  0.5599740000000 1.0
C      1  0.5818870000000  0.4780350000000  0.4649500000000 1.0
C      1  0.4398150000000  0.4293130000000  0.4474460000000 1.0
C      1  0.4794910000000  0.5589170000000  0.5441490000000 1.0
C      1  0.6029910000000  0.4945460000000  0.5127260000000 1.0
C      1  0.4581570000000  0.4137260000000  0.4656220000000 1.0
C      1  0.5642480000000  0.5435060000000  0.4111980000000 1.0
C      1  0.4912740000000  0.4371270000000  0.5260650000000 1.0
C      1  0.5927210000000  0.4768130000000  0.4926580000000 1.0
C      1  0.5846490000000  0.4646960000000  0.5566980000000 1.0
C      1  0.4006830000000  0.4514380000000  0.5033660000000 1.0
C      1  0.4793850000000  0.5622590000000  0.4123940000000 1.0
C      1  0.5392180000000  0.4166790000000  0.4430420000000 1.0
C      1  0.4783540000000  0.4981740000000  0.6075260000000 1.0
C      1  0.4238510000000  0.4957600000000  0.4427630000000 1.0
C      1  0.5133370000000  0.4955800000000  0.5574180000000 1.0
C      1  0.4968830000000  0.5546160000000  0.5865990000000 1.0
C      1  0.4960350000000  0.5550670000000  0.4910970000000 1.0
C      1  0.4423720000000  0.5334380000000  0.5194290000000 1.0
C      1  0.5987900000000  0.4866610000000  0.5422870000000 1.0
C      1  0.4655240000000  0.5829450000000  0.4317220000000 1.0
C      1  0.5594200000000  0.5244690000000  0.4923080000000 1.0
C      1  0.4783620000000  0.5843500000000  0.4581300000000 1.0
C      1  0.4002050000000  0.5340380000000  0.4695790000000 1.0
C      1  0.5843960000000  0.5288560000000  0.4284000000000 1.0
C      1  0.5848340000000  0.5327630000000  0.5444550000000 1.0
C      1  0.5610850000000  0.4670530000000  0.5774950000000 1.0
C      1  0.5009050000000  0.5245330000000  0.4450680000000 1.0
C      1  0.4180840000000  0.5158970000000  0.5328850000000 1.0
C      1  0.5175800000000  0.5267580000000  0.3966840000000 1.0
C      1  0.4922460000000  0.5463800000000  0.5209990000000 1.0
C      1  0.4759100000000  0.4430850000000  0.4100720000000 1.0
C      1  0.5006270000000  0.5821550000000  0.5788440000000 1.0
C      1  0.5145730000000  0.4792860000000  0.5310800000000 1.0
C      1  0.4892380000000  0.4225360000000  0.5747670000000 1.0
C      1  0.4234360000000  0.4399350000000  0.5541470000000 1.0
C      1  0.5469830000000  0.5247600000000  0.3982730000000 1.0
C      1  0.3992440000000  0.5572820000000  0.4844440000000 1.0
C      1  0.4847720000000  0.3748410000000  0.4677440000000 1.0
C      1  0.4414990000000  0.5593340000000  0.5134970000000 1.0
C      1  0.5249350000000  0.3970820000000  0.4584170000000 1.0
C      1  0.5521360000000  0.4800560000000  0.4648050000000 1.0
C      1  0.4246170000000  0.4513770000000  0.4903300000000 1.0
C      1  0.5539850000000  0.5527590000000  0.4937790000000 1.0
C      1  0.6037080000000  0.5645490000000  0.4826440000000 1.0
C      1  0.4493250000000  0.4355860000000  0.4193220000000 1.0
C      1  0.3811010000000  0.4922570000000  0.5074500000000 1.0
C      1  0.5454730000000  0.5633000000000  0.5783380000000 1.0
C      1  0.4815140000000  0.4568860000000  0.5457150000000 1.0
C      1  0.5522170000000  0.5710640000000  0.4703410000000 1.0
C      1  0.3888230000000  0.4960660000000  0.4814050000000 1.0
C      1  0.4781060000000  0.4910000000000  0.4174430000000 1.0
C      1  0.5069950000000  0.5564260000000  0.4087860000000 1.0
C      1  0.4443930000000  0.4794100000000  0.4562430000000 1.0
C      1  0.4596930000000  0.4256140000000  0.5705520000000 1.0
C      1  0.4443020000000  0.5573310000000  0.5870150000000 1.0
C      1  0.5755920000000  0.4392310000000  0.4340830000000 1.0
C      1  0.4815120000000  0.5854990000000  0.5559380000000 1.0
C      1  0.5840690000000  0.5011570000000  0.4211980000000 1.0
C      1  0.5977660000000  0.5224950000000  0.5037250000000 1.0
C      1  0.3916160000000  0.5183870000000  0.5179330000000 1.0
C      1  0.5467760000000  0.4007320000000  0.5008450000000 1.0
C      1  0.4857650000000  0.5397770000000  0.5642640000000 1.0
C      1  0.5406930000000  0.5582890000000  0.5187020000000 1.0
C      1  0.4291890000000  0.5346830000000  0.5777770000000 1.0
C      1  0.5193480000000  0.4958060000000  0.5073810000000 1.0
C      1  0.5273270000000  0.5649860000000  0.4573860000000 1.0
C      1  0.5532830000000  0.4549710000000  0.4872290000000 1.0
C      1  0.5681670000000  0.5797580000000  0.4466300000000 1.0
C      1  0.4977220000000  0.3874570000000  0.5050320000000 1.0
C      1  0.4879250000000  0.5116920000000  0.5579610000000 1.0
C      1  0.5801400000000  0.5268070000000  0.4573570000000 1.0
C      1  0.5330060000000  0.4538120000000  0.4024530000000 1.0
C      1  0.4794120000000  0.6035180000000  0.4812100000000 1.0
C      1  0.5280430000000  0.5862330000000  0.5799860000000 1.0
C      1  0.5405570000000  0.4450530000000  0.5803910000000 1.0
C      1  0.5258070000000  0.4401900000000  0.4286400000000 1.0
C      1  0.5260560000000  0.5324970000000  0.4587590000000 1.0
C      1  0.5692900000000  0.4300130000000  0.4808420000000 1.0
C      1  0.5997800000000  0.5353820000000  0.4774390000000 1.0
C      1  0.5210090000000  0.4470020000000  0.5248040000000 1.0
C      1  0.5541690000000  0.4969120000000  0.4091150000000 1.0
C      1  0.4522250000000  0.5122630000000  0.6041260000000 1.0
C      1  0.5677450000000  0.4203410000000  0.4525510000000 1.0
C      1  0.3865020000000  0.4650270000000  0.5224250000000 1.0
C      1  0.5577670000000  0.4671180000000  0.4006370000000 1.0
C      1  0.4406660000000  0.4683560000000  0.5968570000000 1.0
C      1  0.4972750000000  0.4630450000000  0.4538950000000 1.0
C      1  0.4206390000000  0.5785420000000  0.4797680000000 1.0
C      1  0.4362500000000  0.5121870000000  0.4262660000000 1.0
C      1  0.4478350000000  0.4928450000000  0.4825870000000 1.0
C      1  0.5012380000000  0.4498910000000  0.4811480000000 1.0
C      1  0.4862320000000  0.4031460000000  0.5279180000000 1.0
C      1  0.4402750000000  0.5801840000000  0.4446810000000 1.0
C      1  0.4543680000000  0.5789850000000  0.5698000000000 1.0
C      1  0.5703560000000  0.5892920000000  0.5163380000000 1.0
C      1  0.4418800000000  0.4749610000000  0.5042830000000 1.0
C      1  0.4865880000000  0.6010230000000  0.5260710000000 1.0
C      1  0.4983770000000  0.4011360000000  0.5574070000000 1.0
C      1  0.4740910000000  0.4776500000000  0.4438740000000 1.0
C      1  0.4704600000000  0.5236060000000  0.5151640000000 1.0
C      1  0.4658650000000  0.6004740000000  0.5060940000000 1.0
C      1  0.5001920000000  0.5046420000000  0.4879110000000 1.0
C      1  0.5195020000000  0.4782660000000  0.6106370000000 1.0
C      1  0.4739820000000  0.5307420000000  0.4566060000000 1.0
C      1  0.4719610000000  0.3786560000000  0.4927190000000 1.0
C      1  0.4502340000000  0.5346510000000  0.4377940000000 1.0
C      1  0.4449730000000  0.4212490000000  0.5448020000000 1.0
C      1  0.4344100000000  0.4959760000000  0.5861510000000 1.0
C      1  0.5241980000000  0.4082510000000  0.5512080000000 1.0
C      1  0.5459590000000  0.5846690000000  0.5592780000000 1.0
C      1  0.5261620000000  0.5697200000000  0.4253340000000 1.0
C      1  0.4841350000000  0.4682380000000  0.3970550000000 1.0
C      1  0.5067580000000  0.5085040000000  0.4234630000000 1.0
C      1  0.5256150000000  0.4477830000000  0.4955930000000 1.0
C      1  0.5214600000000  0.5398380000000  0.5306850000000 1.0
C      1  0.4947180000000  0.4357180000000  0.4336080000000 1.0
C      1  0.5415690000000  0.5878330000000  0.5292670000000 1.0
C      1  0.5722940000000  0.4111000000000  0.5033300000000 1.0
C      1  0.5510710000000  0.4910500000000  0.5891390000000 1.0
C      1  0.5115350000000  0.5309680000000  0.4840690000000 1.0
C      1  0.5814490000000  0.4472980000000  0.5340470000000 1.0
C      1  0.4710530000000  0.5107910000000  0.4843380000000 1.0
C      1  0.4005630000000  0.5076720000000  0.4578410000000 1.0
C      1  0.4729870000000  0.5568550000000  0.4701970000000 1.0
C      1  0.5297950000000  0.4930740000000  0.4275750000000 1.0
C      1  0.5297820000000  0.4712830000000  0.4459210000000 1.0
C      1  0.5542660000000  0.5146560000000  0.4659560000000 1.0
C      1  0.5231250000000  0.3929220000000  0.4891200000000 1.0
C      1  0.5969510000000  0.5454490000000  0.5242460000000 1.0
C      1  0.5927140000000  0.4790540000000  0.4373420000000 1.0
C      1  0.5449030000000  0.5078870000000  0.5104430000000 1.0
C      1  0.4672870000000  0.4695200000000  0.5661650000000 1.0
C      1  0.4019750000000  0.5593850000000  0.5367420000000 1.0
C      1  0.5401270000000  0.4257050000000  0.5393910000000 1.0
C      1  0.5109780000000  0.4429310000000  0.5811020000000 1.0
C      1  0.4619300000000  0.5392830000000  0.4107020000000 1.0
C      1  0.5600080000000  0.4912280000000  0.5281910000000 1.0
C      1  0.4683100000000  0.4679840000000  0.5056300000000 1.0
C      1  0.5392890000000  0.5344410000000  0.5768900000000 1.0
C      1  0.5344000000000  0.5129860000000  0.5973130000000 1.0
C      1  0.5709350000000  0.4672520000000  0.5122530000000 1.0
C      1  0.5137050000000  0.6021280000000  0.5180880000000 1.0
C      1  0.4825510000000  0.4126140000000  0.4492800000000 1.0
C      1  0.4888910000000  0.5397090000000  0.6107960000000 1.0
C      1  0.4289860000000  0.4850910000000  0.5352860000000 1.0
C      1  0.5768030000000  0.5058710000000  0.5489720000000 1.0
C      1  0.5084670000000  0.6023400000000  0.4897670000000 1.0
C      1  0.4402420000000  0.5624840000000  0.4666800000000 1.0
C      1  0.5026680000000  0.5142050000000  0.6094040000000 1.0
C      1  0.5093210000000  0.4736220000000  0.5842020000000 1.0
C      1  0.5132550000000  0.5748650000000  0.4803650000000 1.0
C      1  0.5927680000000  0.5731210000000  0.5107000000000 1.0
C      1  0.5920420000000  0.5760550000000  0.4599970000000 1.0
C      1  0.4819830000000  0.4793020000000  0.5275390000000 1.0
C      1  0.4091670000000  0.4630900000000  0.5414260000000 1.0
C      1  0.4565370000000  0.4072750000000  0.5213070000000 1.0
C      1  0.4699410000000  0.4717190000000  0.5962730000000 1.0
C      1  0.4565580000000  0.5105310000000  0.4062930000000 1.0
C      1  0.5283100000000  0.5228220000000  0.5531920000000 1.0
C      1  0.5545410000000  0.5690420000000  0.4215710000000 1.0
C      1  0.5114110000000  0.4712640000000  0.3874390000000 1.0
C      1  0.4300940000000  0.4516640000000  0.4621360000000 1.0
C      1  0.5823770000000  0.4587880000000  0.4161340000000 1.0
C      1  0.3909420000000  0.5467010000000  0.5119200000000 1.0
C      1  0.4590080000000  0.5402280000000  0.6066730000000 1.0
C      1  0.5684430000000  0.4214310000000  0.5313280000000 1.0
C      1  0.4990890000000  0.3877410000000  0.4472290000000 1.0
C      1  0.4144970000000  0.5848630000000  0.5326140000000 1.0
C      1  0.4128110000000  0.5356100000000  0.5552220000000 1.0
C      1  0.5096460000000  0.4997360000000  0.3836870000000 1.0
C      1  0.4806700000000  0.4446920000000  0.5002670000000 1.0
C      1  0.4527080000000  0.4024060000000  0.4926870000000 1.0
END
