TITL C-883733-4178-336 100.194706663687 125000 -22749.8544620031 0 0 155 (C1) n - 1
REM
REM in /home/nfs/bkarasulu/CARBON/AIRSS/Generating-Clusters/ReaxFF-fromJPCA2015/Units_Real/with-SteepDescent/Only-C1/SD-CG/Try1-3A/FIRE-CG
REM
REM
REM
REM
REM
REM ./C.cell (11c1c37f851c82e70ff6c80c92926a4b)
REM
REM compiler GCC version 9.2.1 20190827 (Red Hat 9.2.1-1)
REM options -cpp -mtune=generic -march=x86-64 -g -O0 -fpre-include=/usr/include/finclude/math-vector-fortran.h
REM seed -1820607888 -890678383 -1230361453 -275731795 -68744402 832807375 -1565313984 122832236 -1825988001 478728720 -713783679 -842435419 -820892150 1969972288 -1634745782 -511286078 -262892802 1294964351 256627361 -1293429803 -1436420217 1174097630 -1957440545 229983732 1875441519 -221036386 436964086 -745498096 178455231 356871370 -311592648 -1000344004 -2139445934
REM
CELL 1.54180   50.00000   50.00000   50.00000   90.00000   90.00000   90.00000
LATT -1
SFAC C  
C      1  0.5092090000000  0.4244170000000  0.5706520000000 1.0
C      1  0.4522780000000  0.5845150000000  0.5064830000000 1.0
C      1  0.4706510000000  0.5329660000000  0.5351860000000 1.0
C      1  0.5035630000000  0.4871580000000  0.5219990000000 1.0
C      1  0.5430410000000  0.4486840000000  0.4330020000000 1.0
C      1  0.5094080000000  0.4749250000000  0.4019690000000 1.0
C      1  0.4147060000000  0.4395150000000  0.4970440000000 1.0
C      1  0.4783020000000  0.4590350000000  0.5556880000000 1.0
C      1  0.5052550000000  0.5115440000000  0.5680810000000 1.0
C      1  0.4630060000000  0.4938900000000  0.4061090000000 1.0
C      1  0.5447300000000  0.4647260000000  0.4582570000000 1.0
C      1  0.4337920000000  0.4685640000000  0.4381410000000 1.0
C      1  0.4563690000000  0.4846330000000  0.4485900000000 1.0
C      1  0.3964780000000  0.4870770000000  0.5170930000000 1.0
C      1  0.5407240000000  0.5822250000000  0.5460450000000 1.0
C      1  0.4923590000000  0.5529750000000  0.5301060000000 1.0
C      1  0.5958040000000  0.5017590000000  0.4511180000000 1.0
C      1  0.5200860000000  0.4961710000000  0.5875780000000 1.0
C      1  0.4814950000000  0.5188580000000  0.4608660000000 1.0
C      1  0.4629060000000  0.4213510000000  0.4401770000000 1.0
C      1  0.5964100000000  0.5058870000000  0.5444970000000 1.0
C      1  0.5112290000000  0.5152100000000  0.4183660000000 1.0
C      1  0.5340450000000  0.4470210000000  0.4751020000000 1.0
C      1  0.4014070000000  0.5164870000000  0.5121280000000 1.0
C      1  0.5294520000000  0.4121770000000  0.5096150000000 1.0
C      1  0.5147840000000  0.5378310000000  0.5240370000000 1.0
C      1  0.4690610000000  0.4021110000000  0.5346540000000 1.0
C      1  0.5485140000000  0.4916700000000  0.4687590000000 1.0
C      1  0.5177250000000  0.4356620000000  0.4252020000000 1.0
C      1  0.4677710000000  0.4434100000000  0.4209830000000 1.0
C      1  0.5695450000000  0.5529180000000  0.4584490000000 1.0
C      1  0.4868250000000  0.4084050000000  0.4499710000000 1.0
C      1  0.5317350000000  0.5537240000000  0.5073770000000 1.0
C      1  0.4173910000000  0.4374050000000  0.5387840000000 1.0
C      1  0.5884320000000  0.4607440000000  0.5194820000000 1.0
C      1  0.4569430000000  0.5821580000000  0.4576340000000 1.0
C      1  0.5175840000000  0.5797960000000  0.4374810000000 1.0
C      1  0.5871620000000  0.4636910000000  0.4649480000000 1.0
C      1  0.5600860000000  0.5409300000000  0.5551470000000 1.0
C      1  0.4245430000000  0.5745620000000  0.5122820000000 1.0
C      1  0.5604380000000  0.4159910000000  0.5107200000000 1.0
C      1  0.4370650000000  0.4980960000000  0.4634570000000 1.0
C      1  0.5212610000000  0.6052350000000  0.4889990000000 1.0
C      1  0.5265100000000  0.5554110000000  0.4798190000000 1.0
C      1  0.3984220000000  0.4840020000000  0.5460120000000 1.0
C      1  0.5485340000000  0.5079320000000  0.5921000000000 1.0
C      1  0.5036520000000  0.4464960000000  0.5862150000000 1.0
C      1  0.5850180000000  0.5358500000000  0.4763820000000 1.0
C      1  0.4159900000000  0.4684850000000  0.5054900000000 1.0
C      1  0.4411490000000  0.5299720000000  0.5868010000000 1.0
C      1  0.5515150000000  0.5698570000000  0.5201380000000 1.0
C      1  0.5772360000000  0.5800360000000  0.5017080000000 1.0
C      1  0.4945540000000  0.5829200000000  0.5238700000000 1.0
C      1  0.5958670000000  0.5678930000000  0.5191960000000 1.0
C      1  0.5686160000000  0.5793500000000  0.4726710000000 1.0
C      1  0.5074810000000  0.5659090000000  0.4618100000000 1.0
C      1  0.4530660000000  0.5474130000000  0.4199580000000 1.0
C      1  0.4886590000000  0.4641070000000  0.4766370000000 1.0
C      1  0.4137780000000  0.5081050000000  0.5520250000000 1.0
C      1  0.4520530000000  0.4665910000000  0.4142860000000 1.0
C      1  0.4857820000000  0.4373850000000  0.5410300000000 1.0
C      1  0.5880510000000  0.4786970000000  0.5427570000000 1.0
C      1  0.5576290000000  0.4999580000000  0.4948100000000 1.0
C      1  0.6072210000000  0.5167000000000  0.4715920000000 1.0
C      1  0.4141680000000  0.5677970000000  0.4853760000000 1.0
C      1  0.4358890000000  0.4707610000000  0.5680450000000 1.0
C      1  0.4809220000000  0.5531060000000  0.4231740000000 1.0
C      1  0.4562140000000  0.5133350000000  0.4465430000000 1.0
C      1  0.4446790000000  0.4135470000000  0.4628360000000 1.0
C      1  0.5386910000000  0.5601360000000  0.5641380000000 1.0
C      1  0.4089950000000  0.5252800000000  0.4644830000000 1.0
C      1  0.4332350000000  0.5097830000000  0.6044050000000 1.0
C      1  0.5443310000000  0.5174820000000  0.4245260000000 1.0
C      1  0.5523650000000  0.5435520000000  0.4351890000000 1.0
C      1  0.4755160000000  0.5087690000000  0.4871790000000 1.0
C      1  0.5629880000000  0.4877690000000  0.5586190000000 1.0
C      1  0.5164050000000  0.5979810000000  0.5397610000000 1.0
C      1  0.4929550000000  0.5942040000000  0.4963960000000 1.0
C      1  0.5763860000000  0.4350170000000  0.5276910000000 1.0
C      1  0.5041100000000  0.4713810000000  0.5982700000000 1.0
C      1  0.5768930000000  0.4204260000000  0.4889750000000 1.0
C      1  0.5125890000000  0.4162520000000  0.4429010000000 1.0
C      1  0.4380460000000  0.4526440000000  0.4610730000000 1.0
C      1  0.4643530000000  0.5848910000000  0.5603100000000 1.0
C      1  0.4962120000000  0.4555650000000  0.4221500000000 1.0
C      1  0.4848670000000  0.4422810000000  0.5122860000000 1.0
C      1  0.4648210000000  0.5574410000000  0.4703440000000 1.0
C      1  0.5305040000000  0.4577750000000  0.5010600000000 1.0
C      1  0.4679260000000  0.5074380000000  0.5491510000000 1.0
C      1  0.4879370000000  0.3996250000000  0.4779480000000 1.0
C      1  0.4507900000000  0.5182940000000  0.4169030000000 1.0
C      1  0.4236870000000  0.4207340000000  0.5180050000000 1.0
C      1  0.5365880000000  0.4342760000000  0.5630540000000 1.0
C      1  0.4603120000000  0.4578830000000  0.5076020000000 1.0
C      1  0.5419850000000  0.5912090000000  0.4444900000000 1.0
C      1  0.4859610000000  0.5485580000000  0.4544390000000 1.0
C      1  0.5165130000000  0.5091160000000  0.5382610000000 1.0
C      1  0.4650840000000  0.5019330000000  0.6080840000000 1.0
C      1  0.4600430000000  0.4024890000000  0.4860330000000 1.0
C      1  0.4172790000000  0.5555320000000  0.4591420000000 1.0
C      1  0.5242880000000  0.5059920000000  0.4661540000000 1.0
C      1  0.5020150000000  0.5017620000000  0.4476760000000 1.0
C      1  0.5308020000000  0.4175560000000  0.4647860000000 1.0
C      1  0.4386260000000  0.5652500000000  0.4411810000000 1.0
C      1  0.5276970000000  0.6078500000000  0.5156570000000 1.0
C      1  0.5461490000000  0.5992620000000  0.4704460000000 1.0
C      1  0.6089210000000  0.4977580000000  0.4948210000000 1.0
C      1  0.5256440000000  0.5308570000000  0.4732780000000 1.0
C      1  0.4433770000000  0.5620730000000  0.5587230000000 1.0
C      1  0.4657510000000  0.5956530000000  0.4829570000000 1.0
C      1  0.4091640000000  0.5322390000000  0.5362140000000 1.0
C      1  0.5577260000000  0.4929560000000  0.4220840000000 1.0
C      1  0.5604990000000  0.4428940000000  0.5800820000000 1.0
C      1  0.5747710000000  0.5250140000000  0.5030870000000 1.0
C      1  0.4840400000000  0.4837810000000  0.5430330000000 1.0
C      1  0.4932040000000  0.4876320000000  0.4950450000000 1.0
C      1  0.4236840000000  0.5576780000000  0.5367920000000 1.0
C      1  0.4896050000000  0.4105550000000  0.5508080000000 1.0
C      1  0.4115300000000  0.4585770000000  0.5566870000000 1.0
C      1  0.5817800000000  0.4812390000000  0.4411100000000 1.0
C      1  0.4530870000000  0.5345940000000  0.5132690000000 1.0
C      1  0.4414920000000  0.4794200000000  0.5160360000000 1.0
C      1  0.4838780000000  0.5237060000000  0.6081610000000 1.0
C      1  0.4582510000000  0.5432020000000  0.5745140000000 1.0
C      1  0.5619110000000  0.4155680000000  0.4515790000000 1.0
C      1  0.4499680000000  0.4032020000000  0.5137340000000 1.0
C      1  0.5453000000000  0.4814520000000  0.5121580000000 1.0
C      1  0.5651940000000  0.4280480000000  0.5544650000000 1.0
C      1  0.4603710000000  0.4600310000000  0.5790940000000 1.0
C      1  0.4750030000000  0.4744270000000  0.6003380000000 1.0
C      1  0.5999080000000  0.5141480000000  0.5172010000000 1.0
C      1  0.5958490000000  0.4715820000000  0.4923250000000 1.0
C      1  0.4919820000000  0.5793180000000  0.5659420000000 1.0
C      1  0.5389800000000  0.4823960000000  0.4004820000000 1.0
C      1  0.4212750000000  0.5210190000000  0.4913300000000 1.0
C      1  0.4232750000000  0.4323260000000  0.4699750000000 1.0
C      1  0.5310980000000  0.5589460000000  0.4213540000000 1.0
C      1  0.4912000000000  0.5358280000000  0.5800310000000 1.0
C      1  0.4622400000000  0.5578780000000  0.4986890000000 1.0
C      1  0.5145710000000  0.4368620000000  0.5133810000000 1.0
C      1  0.4616890000000  0.4522840000000  0.4790050000000 1.0
C      1  0.5107830000000  0.5600100000000  0.5742040000000 1.0
C      1  0.5708170000000  0.5483050000000  0.5280660000000 1.0
C      1  0.4922380000000  0.4973730000000  0.4018920000000 1.0
C      1  0.4408830000000  0.4931820000000  0.5481470000000 1.0
C      1  0.5706630000000  0.5163010000000  0.5661570000000 1.0
C      1  0.4120660000000  0.5002700000000  0.4503150000000 1.0
C      1  0.5064320000000  0.5438360000000  0.4132940000000 1.0
C      1  0.4882320000000  0.4749280000000  0.4491100000000 1.0
C      1  0.5821490000000  0.4323990000000  0.4633730000000 1.0
C      1  0.5410610000000  0.4903130000000  0.5397990000000 1.0
C      1  0.5472080000000  0.4561540000000  0.4063870000000 1.0
C      1  0.5425150000000  0.5204190000000  0.6129890000000 1.0
C      1  0.5159810000000  0.4017260000000  0.4865310000000 1.0
C      1  0.4485880000000  0.5085250000000  0.4996440000000 1.0
END
