TITL C-884136-4169-90 1.87258879675812 125000 -7241.03142972015 0 0 49 (C1) n - 1
REM
REM in /home/nfs/bkarasulu/CARBON/AIRSS/Generating-Clusters/ReaxFF-fromJPCA2015/Units_Real/with-SteepDescent/Only-C1/SD-CG/Try1-3A/FIRE-CG
REM
REM
REM
REM
REM
REM ./C.cell (11c1c37f851c82e70ff6c80c92926a4b)
REM
REM compiler GCC version 9.2.1 20190827 (Red Hat 9.2.1-1)
REM options -cpp -mtune=generic -march=x86-64 -g -O0 -fpre-include=/usr/include/finclude/math-vector-fortran.h
REM seed -874504594 894637966 -780522984 -110577483 -2050146257 1597460447 -1322093687 632389591 -481940066 869617711 -2001592298 -2119183248 -467728445 -100712615 -100038166 928086453 271517753 135655572 208149997 -2147143575 1340729957 -1141273382 -1868203219 -311060848 -666035560 1094086687 407549622 -1379760842 1252229903 -243337456 -49247918 -187646019 -933542376
REM
CELL 1.54180   50.00000   50.00000   50.00000   90.00000   90.00000   90.00000
LATT -1
SFAC C  
C      1  0.4427350000000  0.4920570000000  0.5385970000000 1.0
C      1  0.4902470000000  0.4526220000000  0.4563790000000 1.0
C      1  0.5098120000000  0.5023200000000  0.4387520000000 1.0
C      1  0.4625470000000  0.4708390000000  0.5372740000000 1.0
C      1  0.4347720000000  0.5100680000000  0.5160260000000 1.0
C      1  0.5421270000000  0.5482120000000  0.4742890000000 1.0
C      1  0.4871170000000  0.5495500000000  0.4522070000000 1.0
C      1  0.4587990000000  0.4913860000000  0.4571980000000 1.0
C      1  0.5267340000000  0.4715570000000  0.4887390000000 1.0
C      1  0.5131720000000  0.4394520000000  0.4683550000000 1.0
C      1  0.4479930000000  0.5167200000000  0.4661100000000 1.0
C      1  0.4990490000000  0.5019870000000  0.5044940000000 1.0
C      1  0.5382370000000  0.4560210000000  0.4661250000000 1.0
C      1  0.4329390000000  0.5025980000000  0.4877490000000 1.0
C      1  0.4547420000000  0.4538300000000  0.4892550000000 1.0
C      1  0.5132140000000  0.4515250000000  0.5211790000000 1.0
C      1  0.4732020000000  0.4468010000000  0.4763880000000 1.0
C      1  0.4891830000000  0.4841970000000  0.4545330000000 1.0
C      1  0.4720290000000  0.5580390000000  0.4905480000000 1.0
C      1  0.5550660000000  0.5191430000000  0.5475030000000 1.0
C      1  0.5025500000000  0.5284470000000  0.5557840000000 1.0
C      1  0.5235500000000  0.4852810000000  0.5566060000000 1.0
C      1  0.4810680000000  0.5096830000000  0.5605100000000 1.0
C      1  0.5383690000000  0.5019460000000  0.4456550000000 1.0
C      1  0.4873150000000  0.4818740000000  0.5506120000000 1.0
C      1  0.5244730000000  0.5719190000000  0.4768630000000 1.0
C      1  0.5027790000000  0.4855660000000  0.4816140000000 1.0
C      1  0.4894280000000  0.4346390000000  0.5173140000000 1.0
C      1  0.5394740000000  0.5360240000000  0.5019590000000 1.0
C      1  0.5109190000000  0.4330240000000  0.4978290000000 1.0
C      1  0.5521180000000  0.4873030000000  0.4900380000000 1.0
C      1  0.5365470000000  0.5317030000000  0.4502600000000 1.0
C      1  0.4432190000000  0.4770950000000  0.4770520000000 1.0
C      1  0.5609870000000  0.4779480000000  0.5162870000000 1.0
C      1  0.4947340000000  0.5692260000000  0.4732740000000 1.0
C      1  0.5439580000000  0.4716550000000  0.5412740000000 1.0
C      1  0.4974970000000  0.5427970000000  0.5304770000000 1.0
C      1  0.4535760000000  0.5159100000000  0.5530750000000 1.0
C      1  0.5655540000000  0.4922200000000  0.5407900000000 1.0
C      1  0.4628910000000  0.5421580000000  0.4673650000000 1.0
C      1  0.4712210000000  0.5488870000000  0.5184580000000 1.0
C      1  0.4487760000000  0.5328020000000  0.5290420000000 1.0
C      1  0.5578560000000  0.5389750000000  0.5253650000000 1.0
C      1  0.5280530000000  0.5134260000000  0.5592930000000 1.0
C      1  0.5116600000000  0.5285250000000  0.5092180000000 1.0
C      1  0.5024350000000  0.4797550000000  0.5239060000000 1.0
C      1  0.5534500000000  0.4809440000000  0.4604820000000 1.0
C      1  0.5080800000000  0.5313380000000  0.4412120000000 1.0
C      1  0.4637490000000  0.4500050000000  0.5166860000000 1.0
END
