TITL C-883734-4173-304 129.092979961467 125000 -27520.2793429231 0 0 186 (C1) n - 1
REM
REM in /home/nfs/bkarasulu/CARBON/AIRSS/Generating-Clusters/ReaxFF-fromJPCA2015/Units_Real/with-SteepDescent/Only-C1/SD-CG/Try1-3A/FIRE-CG
REM
REM
REM
REM
REM
REM ./C.cell (11c1c37f851c82e70ff6c80c92926a4b)
REM
REM compiler GCC version 9.2.1 20190827 (Red Hat 9.2.1-1)
REM options -cpp -mtune=generic -march=x86-64 -g -O0 -fpre-include=/usr/include/finclude/math-vector-fortran.h
REM seed 1786074926 -1971125084 1997117940 1358412947 -1647969754 -1322846840 681880096 -1088846394 1533209954 -416490957 -327218849 359891845 -243842853 1069359269 854351665 1929641062 969162346 -539531511 639345507 -284212890 672340661 8684397 1218237451 33544545 -2004029805 -74506506 676552542 267950046 -218689841 -1627906472 -1249663166 -140863000 819365044
REM
CELL 1.54180   50.00000   50.00000   50.00000   90.00000   90.00000   90.00000
LATT -1
SFAC C  
C      1  0.4489900000000  0.5445180000000  0.5086160000000 1.0
C      1  0.4531700000000  0.5544970000000  0.4816050000000 1.0
C      1  0.4620360000000  0.4843040000000  0.5695220000000 1.0
C      1  0.5414730000000  0.4501100000000  0.5141720000000 1.0
C      1  0.4295680000000  0.5507040000000  0.5646100000000 1.0
C      1  0.4174120000000  0.5161450000000  0.4166500000000 1.0
C      1  0.5197200000000  0.6102550000000  0.4894740000000 1.0
C      1  0.4915680000000  0.4309100000000  0.4225380000000 1.0
C      1  0.4992060000000  0.5926650000000  0.5022580000000 1.0
C      1  0.4882890000000  0.5989650000000  0.5842170000000 1.0
C      1  0.5218940000000  0.5453730000000  0.5474890000000 1.0
C      1  0.5762430000000  0.5708200000000  0.4782390000000 1.0
C      1  0.4722820000000  0.5176120000000  0.5333950000000 1.0
C      1  0.5164100000000  0.5563600000000  0.5965820000000 1.0
C      1  0.4296410000000  0.5723320000000  0.5445100000000 1.0
C      1  0.5249990000000  0.4529880000000  0.6001170000000 1.0
C      1  0.5749280000000  0.4320480000000  0.5407790000000 1.0
C      1  0.4041820000000  0.4763160000000  0.5342880000000 1.0
C      1  0.5380200000000  0.5059510000000  0.4943980000000 1.0
C      1  0.4886270000000  0.4793900000000  0.5581370000000 1.0
C      1  0.3914310000000  0.5025690000000  0.5295380000000 1.0
C      1  0.5342960000000  0.3949700000000  0.4661350000000 1.0
C      1  0.4143280000000  0.5692100000000  0.5183020000000 1.0
C      1  0.5740360000000  0.4878840000000  0.4678280000000 1.0
C      1  0.5817430000000  0.5474940000000  0.5374400000000 1.0
C      1  0.5976480000000  0.4487810000000  0.5320790000000 1.0
C      1  0.4208420000000  0.5820960000000  0.4932210000000 1.0
C      1  0.4896680000000  0.5021040000000  0.3976150000000 1.0
C      1  0.5317350000000  0.5341720000000  0.4171860000000 1.0
C      1  0.5561420000000  0.5415420000000  0.5838550000000 1.0
C      1  0.5660760000000  0.5308050000000  0.5175530000000 1.0
C      1  0.5376560000000  0.5229100000000  0.4485320000000 1.0
C      1  0.5340470000000  0.4676760000000  0.4588940000000 1.0
C      1  0.5576480000000  0.5015010000000  0.5871390000000 1.0
C      1  0.6005310000000  0.5033010000000  0.5315370000000 1.0
C      1  0.4500500000000  0.5851220000000  0.4830020000000 1.0
C      1  0.5503050000000  0.5107410000000  0.5345550000000 1.0
C      1  0.4845370000000  0.4852070000000  0.4238950000000 1.0
C      1  0.5158960000000  0.5829540000000  0.5876950000000 1.0
C      1  0.4771030000000  0.4333420000000  0.4884460000000 1.0
C      1  0.5637760000000  0.4918540000000  0.4953600000000 1.0
C      1  0.4612630000000  0.4667200000000  0.4584930000000 1.0
C      1  0.4382860000000  0.3931480000000  0.5046160000000 1.0
C      1  0.5641520000000  0.5863280000000  0.4983590000000 1.0
C      1  0.4779340000000  0.5879060000000  0.4377500000000 1.0
C      1  0.5558420000000  0.4114000000000  0.4532310000000 1.0
C      1  0.5110490000000  0.4661390000000  0.4752140000000 1.0
C      1  0.4968290000000  0.5071290000000  0.5235440000000 1.0
C      1  0.4977720000000  0.5598980000000  0.5042550000000 1.0
C      1  0.4918430000000  0.5007460000000  0.4988370000000 1.0
C      1  0.4948520000000  0.6040030000000  0.5558750000000 1.0
C      1  0.5678360000000  0.5691850000000  0.5512870000000 1.0
C      1  0.5431270000000  0.5787630000000  0.5185560000000 1.0
C      1  0.5266430000000  0.4946480000000  0.4496420000000 1.0
C      1  0.4804080000000  0.4568010000000  0.4063550000000 1.0
C      1  0.5388140000000  0.5961510000000  0.4544370000000 1.0
C      1  0.4243400000000  0.4869600000000  0.6020870000000 1.0
C      1  0.4616300000000  0.5124340000000  0.5619390000000 1.0
C      1  0.5340650000000  0.4716580000000  0.4056240000000 1.0
C      1  0.4307720000000  0.4114830000000  0.4861150000000 1.0
C      1  0.4038790000000  0.4495320000000  0.5222220000000 1.0
C      1  0.6059530000000  0.4762750000000  0.5226350000000 1.0
C      1  0.5212310000000  0.5126740000000  0.5412060000000 1.0
C      1  0.3931040000000  0.5187370000000  0.5048350000000 1.0
C      1  0.4974270000000  0.5507610000000  0.5619030000000 1.0
C      1  0.5126220000000  0.4138310000000  0.4612210000000 1.0
C      1  0.4842950000000  0.4083400000000  0.4693850000000 1.0
C      1  0.5454900000000  0.5542970000000  0.5628150000000 1.0
C      1  0.5478640000000  0.6057560000000  0.4830650000000 1.0
C      1  0.3976560000000  0.5118930000000  0.5566940000000 1.0
C      1  0.4743410000000  0.5477720000000  0.5227590000000 1.0
C      1  0.4143960000000  0.5335110000000  0.5466280000000 1.0
C      1  0.5144520000000  0.6139060000000  0.4606180000000 1.0
C      1  0.5145630000000  0.4921870000000  0.5651180000000 1.0
C      1  0.4735910000000  0.5412790000000  0.4648190000000 1.0
C      1  0.5146460000000  0.4897500000000  0.4919270000000 1.0
C      1  0.5379730000000  0.4635960000000  0.6197900000000 1.0
C      1  0.5833970000000  0.5606880000000  0.4538230000000 1.0
C      1  0.4715320000000  0.5995610000000  0.5039860000000 1.0
C      1  0.3968730000000  0.4732240000000  0.4875670000000 1.0
C      1  0.5080680000000  0.5381120000000  0.3730680000000 1.0
C      1  0.4930860000000  0.4752820000000  0.3850780000000 1.0
C      1  0.4850060000000  0.5048320000000  0.6023270000000 1.0
C      1  0.5769850000000  0.5075300000000  0.4224070000000 1.0
C      1  0.5009910000000  0.5577380000000  0.3825470000000 1.0
C      1  0.4873810000000  0.5677340000000  0.4182750000000 1.0
C      1  0.4074440000000  0.5612320000000  0.4771190000000 1.0
C      1  0.4410240000000  0.5625850000000  0.4375270000000 1.0
C      1  0.4200740000000  0.4338390000000  0.4735390000000 1.0
C      1  0.4569910000000  0.5835630000000  0.5484390000000 1.0
C      1  0.4236580000000  0.4467120000000  0.5628040000000 1.0
C      1  0.5472040000000  0.4803350000000  0.5689640000000 1.0
C      1  0.6149080000000  0.4756830000000  0.4933460000000 1.0
C      1  0.4614690000000  0.4111320000000  0.5508340000000 1.0
C      1  0.5574780000000  0.4333300000000  0.5648780000000 1.0
C      1  0.5822000000000  0.4209220000000  0.4947000000000 1.0
C      1  0.5469670000000  0.4285110000000  0.4300080000000 1.0
C      1  0.4673290000000  0.4935800000000  0.4884120000000 1.0
C      1  0.5286750000000  0.4298880000000  0.4962970000000 1.0
C      1  0.5755560000000  0.5214850000000  0.5763100000000 1.0
C      1  0.4192450000000  0.4320770000000  0.5393480000000 1.0
C      1  0.5009510000000  0.4345550000000  0.5040130000000 1.0
C      1  0.5050000000000  0.4897670000000  0.4364100000000 1.0
C      1  0.4733850000000  0.4185150000000  0.4405170000000 1.0
C      1  0.4883100000000  0.4031940000000  0.5458430000000 1.0
C      1  0.6247350000000  0.4487700000000  0.4884410000000 1.0
C      1  0.5623190000000  0.4531650000000  0.4282050000000 1.0
C      1  0.4175930000000  0.5511110000000  0.4510930000000 1.0
C      1  0.5388950000000  0.5346310000000  0.4976670000000 1.0
C      1  0.5600620000000  0.4709750000000  0.5158550000000 1.0
C      1  0.5844020000000  0.5333360000000  0.4641400000000 1.0
C      1  0.4394750000000  0.4418780000000  0.5851070000000 1.0
C      1  0.4191300000000  0.4762640000000  0.4399110000000 1.0
C      1  0.4064180000000  0.4987450000000  0.4530570000000 1.0
C      1  0.5481170000000  0.4786210000000  0.3839970000000 1.0
C      1  0.5508810000000  0.4551500000000  0.5824800000000 1.0
C      1  0.5393030000000  0.5229750000000  0.5966560000000 1.0
C      1  0.5670040000000  0.4131810000000  0.5188140000000 1.0
C      1  0.5873610000000  0.5132280000000  0.5058230000000 1.0
C      1  0.4576050000000  0.4601550000000  0.5236690000000 1.0
C      1  0.3990720000000  0.5473580000000  0.5022290000000 1.0
C      1  0.5656260000000  0.5606010000000  0.4277340000000 1.0
C      1  0.5295070000000  0.4282540000000  0.5578290000000 1.0
C      1  0.5708030000000  0.4294890000000  0.4693530000000 1.0
C      1  0.5614920000000  0.5351510000000  0.4157240000000 1.0
C      1  0.4525420000000  0.5849500000000  0.4517430000000 1.0
C      1  0.4428530000000  0.4178650000000  0.5282180000000 1.0
C      1  0.5913400000000  0.5234730000000  0.5509470000000 1.0
C      1  0.4334230000000  0.4772660000000  0.4147240000000 1.0
C      1  0.4721100000000  0.6031870000000  0.5325380000000 1.0
C      1  0.6052030000000  0.4342320000000  0.5081420000000 1.0
C      1  0.5187990000000  0.5626300000000  0.4186940000000 1.0
C      1  0.4471630000000  0.5058880000000  0.5220460000000 1.0
C      1  0.4296440000000  0.5275660000000  0.5214670000000 1.0
C      1  0.4344610000000  0.4519250000000  0.4529150000000 1.0
C      1  0.4637160000000  0.5218730000000  0.4155700000000 1.0
C      1  0.4980710000000  0.5441210000000  0.4792320000000 1.0
C      1  0.4527980000000  0.4387740000000  0.5083120000000 1.0
C      1  0.4951800000000  0.3943600000000  0.5196040000000 1.0
C      1  0.4973380000000  0.5397700000000  0.5888640000000 1.0
C      1  0.3940520000000  0.4990660000000  0.4814340000000 1.0
C      1  0.6040820000000  0.4938300000000  0.4692750000000 1.0
C      1  0.4748400000000  0.5600690000000  0.5478430000000 1.0
C      1  0.5590510000000  0.4846350000000  0.5410950000000 1.0
C      1  0.4480200000000  0.4800490000000  0.5071380000000 1.0
C      1  0.5245720000000  0.5544450000000  0.5176630000000 1.0
C      1  0.4624040000000  0.5515520000000  0.4187830000000 1.0
C      1  0.5259740000000  0.5443390000000  0.4688740000000 1.0
C      1  0.5038770000000  0.4188320000000  0.5685590000000 1.0
C      1  0.6022690000000  0.5199020000000  0.4818990000000 1.0
C      1  0.4610690000000  0.4955720000000  0.4604820000000 1.0
C      1  0.4450980000000  0.4657060000000  0.6023830000000 1.0
C      1  0.5624030000000  0.4587820000000  0.4582500000000 1.0
C      1  0.4673540000000  0.5191140000000  0.4456190000000 1.0
C      1  0.4943780000000  0.4518950000000  0.5930850000000 1.0
C      1  0.4817110000000  0.4623060000000  0.5368990000000 1.0
C      1  0.5475250000000  0.5905800000000  0.5445050000000 1.0
C      1  0.4398780000000  0.5051540000000  0.4048900000000 1.0
C      1  0.4057640000000  0.5262450000000  0.4399420000000 1.0
C      1  0.5417420000000  0.5770610000000  0.4281890000000 1.0
C      1  0.5398250000000  0.4060800000000  0.5101180000000 1.0
C      1  0.4236720000000  0.4747610000000  0.5568480000000 1.0
C      1  0.5176440000000  0.4260640000000  0.4340720000000 1.0
C      1  0.4499620000000  0.5331320000000  0.5781770000000 1.0
C      1  0.4841020000000  0.4559490000000  0.4708420000000 1.0
C      1  0.5014060000000  0.4478260000000  0.5269040000000 1.0
C      1  0.4499190000000  0.4334600000000  0.4322240000000 1.0
C      1  0.4984970000000  0.5899700000000  0.4584890000000 1.0
C      1  0.4752880000000  0.4757590000000  0.5976930000000 1.0
C      1  0.5626810000000  0.4771760000000  0.4095480000000 1.0
C      1  0.4969750000000  0.3891580000000  0.4927690000000 1.0
C      1  0.4005620000000  0.4467090000000  0.4922040000000 1.0
C      1  0.4105710000000  0.4926130000000  0.5760130000000 1.0
C      1  0.5230570000000  0.5942680000000  0.5611120000000 1.0
C      1  0.4853490000000  0.4282160000000  0.5865970000000 1.0
C      1  0.5210460000000  0.4703660000000  0.3797500000000 1.0
C      1  0.5130810000000  0.5201530000000  0.3946350000000 1.0
C      1  0.4513330000000  0.4535120000000  0.4114810000000 1.0
C      1  0.5257370000000  0.4481710000000  0.5379810000000 1.0
C      1  0.5214470000000  0.5738630000000  0.4638530000000 1.0
C      1  0.6025960000000  0.5013000000000  0.4344530000000 1.0
C      1  0.5655920000000  0.5136470000000  0.4535630000000 1.0
C      1  0.4594190000000  0.4233490000000  0.5765840000000 1.0
C      1  0.4710010000000  0.5300030000000  0.5986960000000 1.0
C      1  0.5263120000000  0.3857100000000  0.4932160000000 1.0
C      1  0.5121450000000  0.5090290000000  0.5909270000000 1.0
END
