TITL C-884129-4740-324 6.84058640809621 125000 -8796.14264191937 0 0 59 (C1) n - 1
REM
REM in /home/nfs/bkarasulu/CARBON/AIRSS/Generating-Clusters/ReaxFF-fromJPCA2015/Units_Real/with-SteepDescent/Only-C1/SD-CG/Try1-3A/FIRE-CG
REM
REM
REM
REM
REM
REM ./C.cell (11c1c37f851c82e70ff6c80c92926a4b)
REM
REM compiler GCC version 9.2.1 20190827 (Red Hat 9.2.1-1)
REM options -cpp -mtune=generic -march=x86-64 -g -O0 -fpre-include=/usr/include/finclude/math-vector-fortran.h
REM seed 335906502 -463602290 1022706617 261430144 1585904638 342994484 1702341629 1663912588 520814980 457495075 429350066 -342232610 513801511 -1781603069 43585128 482905147 1446893679 1274183833 -1809421258 1696474236 265102543 -904864515 -720889936 -1126682239 -58363145 -458867821 1116324332 -690511808 -1262435276 -1384163505 488863582 -1569301200 379715776
REM
CELL 1.54180   50.00000   50.00000   50.00000   90.00000   90.00000   90.00000
LATT -1
SFAC C  
C      1  0.4376600000000  0.4856700000000  0.5509810000000 1.0
C      1  0.5353850000000  0.4590490000000  0.5438710000000 1.0
C      1  0.5209010000000  0.5442650000000  0.5486640000000 1.0
C      1  0.4468350000000  0.4550890000000  0.5140430000000 1.0
C      1  0.5399190000000  0.5134130000000  0.4329120000000 1.0
C      1  0.4834050000000  0.4843000000000  0.4552930000000 1.0
C      1  0.5328890000000  0.5572040000000  0.5279750000000 1.0
C      1  0.5555550000000  0.4656210000000  0.5238380000000 1.0
C      1  0.5550190000000  0.5116730000000  0.5318880000000 1.0
C      1  0.5573550000000  0.5053810000000  0.4715340000000 1.0
C      1  0.4957920000000  0.5320860000000  0.4393710000000 1.0
C      1  0.4614680000000  0.5020600000000  0.4596260000000 1.0
C      1  0.5282830000000  0.5679050000000  0.4996170000000 1.0
C      1  0.5244510000000  0.4723320000000  0.4865610000000 1.0
C      1  0.5688510000000  0.5013810000000  0.4961760000000 1.0
C      1  0.4921220000000  0.4423490000000  0.5229830000000 1.0
C      1  0.4939620000000  0.5350780000000  0.5493290000000 1.0
C      1  0.4677730000000  0.4429120000000  0.4657800000000 1.0
C      1  0.5654970000000  0.4923230000000  0.5196090000000 1.0
C      1  0.4658180000000  0.4475050000000  0.5354250000000 1.0
C      1  0.4762830000000  0.4890720000000  0.5666560000000 1.0
C      1  0.5221340000000  0.5035840000000  0.5663180000000 1.0
C      1  0.4982810000000  0.4675200000000  0.4800100000000 1.0
C      1  0.5115550000000  0.5742680000000  0.5198100000000 1.0
C      1  0.5508930000000  0.4284840000000  0.4806100000000 1.0
C      1  0.5285920000000  0.5010550000000  0.4842220000000 1.0
C      1  0.4835430000000  0.5642710000000  0.4868560000000 1.0
C      1  0.4316800000000  0.5277440000000  0.5082290000000 1.0
C      1  0.4993330000000  0.4834900000000  0.4313140000000 1.0
C      1  0.4890880000000  0.4672660000000  0.5079620000000 1.0
C      1  0.4970790000000  0.4871890000000  0.5277760000000 1.0
C      1  0.4607800000000  0.4678190000000  0.5578470000000 1.0
C      1  0.5103950000000  0.5635990000000  0.4774800000000 1.0
C      1  0.4454290000000  0.5398340000000  0.4891570000000 1.0
C      1  0.4456340000000  0.5363580000000  0.5350710000000 1.0
C      1  0.4942970000000  0.5101000000000  0.5711850000000 1.0
C      1  0.5121750000000  0.5151670000000  0.5020930000000 1.0
C      1  0.4501660000000  0.4587530000000  0.4844980000000 1.0
C      1  0.5467350000000  0.4435560000000  0.4584630000000 1.0
C      1  0.4698480000000  0.5293040000000  0.4521620000000 1.0
C      1  0.5107570000000  0.5102470000000  0.4275090000000 1.0
C      1  0.4615020000000  0.5515670000000  0.4705590000000 1.0
C      1  0.5423100000000  0.4641740000000  0.4409270000000 1.0
C      1  0.5398890000000  0.5242460000000  0.5516440000000 1.0
C      1  0.4439310000000  0.4871740000000  0.4789930000000 1.0
C      1  0.5383590000000  0.4517960000000  0.5026980000000 1.0
C      1  0.4391230000000  0.5155720000000  0.5546330000000 1.0
C      1  0.5427200000000  0.5427390000000  0.4416660000000 1.0
C      1  0.4314030000000  0.4780790000000  0.5228220000000 1.0
C      1  0.5160340000000  0.5513730000000  0.4506370000000 1.0
C      1  0.4960880000000  0.4441180000000  0.4588380000000 1.0
C      1  0.5213170000000  0.4410230000000  0.5263270000000 1.0
C      1  0.4841900000000  0.5674650000000  0.5155690000000 1.0
C      1  0.4303530000000  0.4982200000000  0.5017780000000 1.0
C      1  0.4717340000000  0.5501110000000  0.5355750000000 1.0
C      1  0.5538850000000  0.4914960000000  0.4457920000000 1.0
C      1  0.4942590000000  0.5161170000000  0.5221040000000 1.0
C      1  0.5131920000000  0.4582430000000  0.4380190000000 1.0
C      1  0.5160970000000  0.4802090000000  0.5507150000000 1.0
END
