TITL C-883726-8501-115 -17.8435473396623 125000 -14447.7273195422 0 0 98 (C1) n - 1
REM
REM in /home/nfs/bkarasulu/CARBON/AIRSS/Generating-Clusters/ReaxFF-fromJPCA2015/Units_Real/with-SteepDescent/Only-C1/SD-CG/Try1-3A/FIRE-CG
REM
REM
REM
REM
REM
REM ./C.cell (11c1c37f851c82e70ff6c80c92926a4b)
REM
REM compiler GCC version 9.2.1 20190827 (Red Hat 9.2.1-1)
REM options -cpp -mtune=generic -march=x86-64 -g -O0 -fpre-include=/usr/include/finclude/math-vector-fortran.h
REM seed -149250485 -1267151075 299025264 170530190 -229140677 195092957 1678448134 1535252028 141048939 -1231202117 229336424 -1514809076 -1654491696 2017335677 698558041 -561491720 -470095376 -85759248 122878531 1631060628 711636776 135989648 965606551 -1725413164 1393860372 -1043233663 566542761 -730564300 89010736 -317947203 171356240 -1199147753 -521678154
REM
CELL 1.54180   50.00000   50.00000   50.00000   90.00000   90.00000   90.00000
LATT -1
SFAC C  
C      1  0.5010760000000  0.5730860000000  0.4750800000000 1.0
C      1  0.5577840000000  0.4725140000000  0.4416000000000 1.0
C      1  0.5229680000000  0.4274770000000  0.4775110000000 1.0
C      1  0.4471420000000  0.5682850000000  0.5187110000000 1.0
C      1  0.4352340000000  0.4506700000000  0.5381250000000 1.0
C      1  0.4956370000000  0.4730610000000  0.4714420000000 1.0
C      1  0.4478820000000  0.5630260000000  0.4761330000000 1.0
C      1  0.4956840000000  0.4949790000000  0.5347000000000 1.0
C      1  0.5087160000000  0.4164630000000  0.5223310000000 1.0
C      1  0.4889620000000  0.4957760000000  0.4450830000000 1.0
C      1  0.4819320000000  0.4424840000000  0.5648890000000 1.0
C      1  0.5049060000000  0.5509960000000  0.5156320000000 1.0
C      1  0.5499670000000  0.5460950000000  0.5406950000000 1.0
C      1  0.4609420000000  0.5573440000000  0.5432520000000 1.0
C      1  0.4871990000000  0.5329120000000  0.5018100000000 1.0
C      1  0.5544650000000  0.5564140000000  0.4679610000000 1.0
C      1  0.5164180000000  0.5108160000000  0.5448040000000 1.0
C      1  0.4373850000000  0.4901240000000  0.5019110000000 1.0
C      1  0.4118040000000  0.4977500000000  0.4543630000000 1.0
C      1  0.4346610000000  0.4472130000000  0.5085890000000 1.0
C      1  0.4239810000000  0.4688570000000  0.4917010000000 1.0
C      1  0.5565100000000  0.5270610000000  0.4683650000000 1.0
C      1  0.4608410000000  0.4405300000000  0.4971980000000 1.0
C      1  0.4920020000000  0.4663040000000  0.5789490000000 1.0
C      1  0.4142670000000  0.5282630000000  0.4972830000000 1.0
C      1  0.5378130000000  0.4477460000000  0.4920040000000 1.0
C      1  0.5537900000000  0.5065640000000  0.5721800000000 1.0
C      1  0.4862980000000  0.4301470000000  0.4369210000000 1.0
C      1  0.4743530000000  0.4184880000000  0.4838240000000 1.0
C      1  0.4622450000000  0.5510340000000  0.4531360000000 1.0
C      1  0.4502510000000  0.4713540000000  0.4449950000000 1.0
C      1  0.5142340000000  0.5639800000000  0.4357180000000 1.0
C      1  0.4494900000000  0.4924750000000  0.5712430000000 1.0
C      1  0.4633070000000  0.4965970000000  0.4322180000000 1.0
C      1  0.4619910000000  0.4454030000000  0.4420910000000 1.0
C      1  0.4589080000000  0.5842120000000  0.4960530000000 1.0
C      1  0.4748720000000  0.5127240000000  0.5199620000000 1.0
C      1  0.5011620000000  0.5245860000000  0.4793540000000 1.0
C      1  0.5362570000000  0.4709940000000  0.4213840000000 1.0
C      1  0.5077930000000  0.5367640000000  0.4276380000000 1.0
C      1  0.5925650000000  0.4947740000000  0.5095210000000 1.0
C      1  0.5275440000000  0.4932350000000  0.5067880000000 1.0
C      1  0.5216430000000  0.4496670000000  0.4310280000000 1.0
C      1  0.5583000000000  0.5658600000000  0.4963810000000 1.0
C      1  0.5829500000000  0.4819180000000  0.5351200000000 1.0
C      1  0.5432470000000  0.4610960000000  0.5645020000000 1.0
C      1  0.5019070000000  0.4155170000000  0.4934650000000 1.0
C      1  0.5199670000000  0.4654810000000  0.5079260000000 1.0
C      1  0.4165510000000  0.5032240000000  0.5136330000000 1.0
C      1  0.4270330000000  0.4740210000000  0.4618380000000 1.0
C      1  0.5312320000000  0.4388730000000  0.5503290000000 1.0
C      1  0.5850010000000  0.4781470000000  0.4861360000000 1.0
C      1  0.4981170000000  0.5223160000000  0.4515780000000 1.0
C      1  0.4071440000000  0.5223260000000  0.4697600000000 1.0
C      1  0.4892020000000  0.5889270000000  0.5665260000000 1.0
C      1  0.5666170000000  0.4573960000000  0.4948400000000 1.0
C      1  0.5222820000000  0.5369430000000  0.5344830000000 1.0
C      1  0.4773100000000  0.4918480000000  0.5809960000000 1.0
C      1  0.5669170000000  0.5449840000000  0.5168470000000 1.0
C      1  0.4190360000000  0.5002470000000  0.5430620000000 1.0
C      1  0.4545210000000  0.4366190000000  0.5561670000000 1.0
C      1  0.5773220000000  0.4894830000000  0.4558770000000 1.0
C      1  0.5202980000000  0.4716290000000  0.5775710000000 1.0
C      1  0.5235820000000  0.5004440000000  0.5746650000000 1.0
C      1  0.4823610000000  0.5646380000000  0.5645460000000 1.0
C      1  0.4682550000000  0.4218560000000  0.4562530000000 1.0
C      1  0.4966450000000  0.5136920000000  0.5851330000000 1.0
C      1  0.5115020000000  0.5760460000000  0.5009590000000 1.0
C      1  0.5367290000000  0.4145850000000  0.5331670000000 1.0
C      1  0.5640080000000  0.4832350000000  0.5579510000000 1.0
C      1  0.5002300000000  0.5418270000000  0.5805120000000 1.0
C      1  0.5142290000000  0.4303400000000  0.4480740000000 1.0
C      1  0.4379930000000  0.5170710000000  0.5590820000000 1.0
C      1  0.5505110000000  0.4851090000000  0.4649600000000 1.0
C      1  0.5183840000000  0.4944900000000  0.4127400000000 1.0
C      1  0.5741090000000  0.5181780000000  0.5073900000000 1.0
C      1  0.4241800000000  0.5232170000000  0.4451070000000 1.0
C      1  0.5334220000000  0.5071090000000  0.4634930000000 1.0
C      1  0.5720220000000  0.5195740000000  0.4453590000000 1.0
C      1  0.5537590000000  0.5339380000000  0.4275260000000 1.0
C      1  0.5291310000000  0.5212140000000  0.4151040000000 1.0
C      1  0.5547870000000  0.5355430000000  0.5682620000000 1.0
C      1  0.4903360000000  0.4907450000000  0.4174790000000 1.0
C      1  0.4574390000000  0.5291650000000  0.5414400000000 1.0
C      1  0.4891170000000  0.5677820000000  0.4517990000000 1.0
C      1  0.4311830000000  0.4761000000000  0.5538050000000 1.0
C      1  0.5282940000000  0.5413570000000  0.5776310000000 1.0
C      1  0.5428740000000  0.5585810000000  0.4413850000000 1.0
C      1  0.5006390000000  0.4416150000000  0.5401770000000 1.0
C      1  0.5137110000000  0.5006540000000  0.4832260000000 1.0
C      1  0.4524860000000  0.5265950000000  0.4415900000000 1.0
C      1  0.5597540000000  0.4736070000000  0.5193940000000 1.0
C      1  0.5538610000000  0.4969330000000  0.5021690000000 1.0
C      1  0.4970630000000  0.4675790000000  0.5248590000000 1.0
C      1  0.4729510000000  0.4665260000000  0.4905500000000 1.0
C      1  0.5401240000000  0.5873270000000  0.5045880000000 1.0
C      1  0.4327090000000  0.5506250000000  0.4982720000000 1.0
C      1  0.4637880000000  0.4866050000000  0.5101420000000 1.0
END
