TITL C-883730-8503-279 -0.178340404144998 125000 -3033.66700085854 0 0 22 (C1) n - 1
REM
REM in /home/nfs/bkarasulu/CARBON/AIRSS/Generating-Clusters/ReaxFF-fromJPCA2015/Units_Real/with-SteepDescent/Only-C1/SD-CG/Try1-3A/FIRE-CG
REM
REM
REM
REM
REM
REM ./C.cell (11c1c37f851c82e70ff6c80c92926a4b)
REM
REM compiler GCC version 9.2.1 20190827 (Red Hat 9.2.1-1)
REM options -cpp -mtune=generic -march=x86-64 -g -O0 -fpre-include=/usr/include/finclude/math-vector-fortran.h
REM seed 757956795 -1945759583 -469511389 927955537 -542701605 674254526 420548792 -196687794 -1925812964 349439489 -2071100274 740776324 -1905902425 -2059237629 -318285241 -626438788 -687535571 1277831314 -600108646 -1095248603 -262470960 -429777770 -791337268 1473863427 239103868 1553575796 -117451702 -1317291928 728653393 201262267 -1655914143 -1953480455 1608828966
REM
CELL 1.54180   50.00000   50.00000   50.00000   90.00000   90.00000   90.00000
LATT -1
SFAC C  
C      1  0.4304700000000  0.4786250000000  0.4961080000000 1.0
C      1  0.4919000000000  0.5459570000000  0.5473110000000 1.0
C      1  0.5344280000000  0.4791840000000  0.4279500000000 1.0
C      1  0.5137250000000  0.4723540000000  0.5073890000000 1.0
C      1  0.5420820000000  0.5125310000000  0.5025920000000 1.0
C      1  0.4706520000000  0.5260940000000  0.5043790000000 1.0
C      1  0.5363610000000  0.4851820000000  0.4924200000000 1.0
C      1  0.4835630000000  0.5583640000000  0.5270600000000 1.0
C      1  0.5236520000000  0.5322800000000  0.4960310000000 1.0
C      1  0.4554790000000  0.4785140000000  0.4963860000000 1.0
C      1  0.5022240000000  0.5265360000000  0.5646580000000 1.0
C      1  0.5042790000000  0.5483120000000  0.4930850000000 1.0
C      1  0.5433960000000  0.4591720000000  0.4450740000000 1.0
C      1  0.5144700000000  0.5043810000000  0.5441680000000 1.0
C      1  0.4726360000000  0.4997680000000  0.5125330000000 1.0
C      1  0.5247720000000  0.4752360000000  0.4671100000000 1.0
C      1  0.4766930000000  0.5537740000000  0.4995110000000 1.0
C      1  0.5038510000000  0.4610450000000  0.4821160000000 1.0
C      1  0.5409810000000  0.5096680000000  0.5332920000000 1.0
C      1  0.4631480000000  0.4444140000000  0.4585330000000 1.0
C      1  0.4733460000000  0.4592100000000  0.4768710000000 1.0
C      1  0.4978920000000  0.4894010000000  0.5254240000000 1.0
END
