TITL C-883737-113-367 43.9861643282549 125000 -26078.0585807865 0 0 175 (C1) n - 1
REM
REM in /home/nfs/bkarasulu/CARBON/AIRSS/Generating-Clusters/ReaxFF-fromJPCA2015/Units_Real/with-SteepDescent/Only-C1/SD-CG/Try1-3A/FIRE-CG
REM
REM
REM
REM
REM
REM ./C.cell (11c1c37f851c82e70ff6c80c92926a4b)
REM
REM compiler GCC version 9.2.1 20190827 (Red Hat 9.2.1-1)
REM options -cpp -mtune=generic -march=x86-64 -g -O0 -fpre-include=/usr/include/finclude/math-vector-fortran.h
REM seed 528595824 -1924143481 1678365867 1709648356 1770034616 -1442930055 1151812385 1544738912 -1743445962 821514046 -747438810 -282279152 -1115439728 981901274 -2028442688 -1450624209 -1469369390 -1818002968 360404298 -1657653352 24670408 2101614738 954632830 1540250734 914138546 1733373784 -288113055 -986045206 -1571251865 980351709 154016929 1622801484 372888879
REM
CELL 1.54180   50.00000   50.00000   50.00000   90.00000   90.00000   90.00000
LATT -1
SFAC C  
C      1  0.4170140000000  0.4378740000000  0.5126350000000 1.0
C      1  0.5122030000000  0.5879650000000  0.4158890000000 1.0
C      1  0.4377120000000  0.5259420000000  0.5969130000000 1.0
C      1  0.5778520000000  0.5718500000000  0.5466980000000 1.0
C      1  0.4002520000000  0.5504570000000  0.4608240000000 1.0
C      1  0.5864640000000  0.4968440000000  0.5303670000000 1.0
C      1  0.5151630000000  0.5046270000000  0.5971340000000 1.0
C      1  0.6104290000000  0.5275180000000  0.4630740000000 1.0
C      1  0.4542950000000  0.5202280000000  0.5360220000000 1.0
C      1  0.4460610000000  0.4869780000000  0.4054860000000 1.0
C      1  0.5091450000000  0.4458250000000  0.4661220000000 1.0
C      1  0.6010180000000  0.5594950000000  0.5324300000000 1.0
C      1  0.4683770000000  0.4705580000000  0.4005370000000 1.0
C      1  0.4328340000000  0.4487520000000  0.4361870000000 1.0
C      1  0.4444590000000  0.3907970000000  0.4886510000000 1.0
C      1  0.4858660000000  0.5013740000000  0.6077980000000 1.0
C      1  0.4656880000000  0.5135550000000  0.5072480000000 1.0
C      1  0.6066490000000  0.5043360000000  0.4809230000000 1.0
C      1  0.5085590000000  0.5006760000000  0.4524290000000 1.0
C      1  0.5347820000000  0.5204700000000  0.5518080000000 1.0
C      1  0.4607370000000  0.4065700000000  0.5049060000000 1.0
C      1  0.5023790000000  0.5642060000000  0.5419840000000 1.0
C      1  0.5059290000000  0.5680930000000  0.4682810000000 1.0
C      1  0.4390750000000  0.4512650000000  0.5029310000000 1.0
C      1  0.5161420000000  0.4603450000000  0.5934990000000 1.0
C      1  0.4790160000000  0.5279650000000  0.4850080000000 1.0
C      1  0.5098360000000  0.4851690000000  0.5731070000000 1.0
C      1  0.5428760000000  0.5930120000000  0.4780500000000 1.0
C      1  0.4316980000000  0.5878260000000  0.4796900000000 1.0
C      1  0.5218120000000  0.5802740000000  0.5532650000000 1.0
C      1  0.6080590000000  0.5438720000000  0.5088070000000 1.0
C      1  0.5754790000000  0.4805210000000  0.4189090000000 1.0
C      1  0.5743400000000  0.4188660000000  0.5390470000000 1.0
C      1  0.5559940000000  0.4872810000000  0.4915160000000 1.0
C      1  0.4435950000000  0.5087980000000  0.4888650000000 1.0
C      1  0.5450440000000  0.4285920000000  0.4396980000000 1.0
C      1  0.4841640000000  0.4884970000000  0.5583870000000 1.0
C      1  0.5543680000000  0.4439060000000  0.5715390000000 1.0
C      1  0.4777900000000  0.4033560000000  0.4379130000000 1.0
C      1  0.5189610000000  0.5500140000000  0.4442740000000 1.0
C      1  0.4816030000000  0.4728070000000  0.5364370000000 1.0
C      1  0.4780060000000  0.4866260000000  0.5117340000000 1.0
C      1  0.5661140000000  0.5055080000000  0.5828200000000 1.0
C      1  0.4674010000000  0.5227170000000  0.6027120000000 1.0
C      1  0.4565850000000  0.6021780000000  0.5145270000000 1.0
C      1  0.5669790000000  0.5339300000000  0.5004570000000 1.0
C      1  0.5794190000000  0.4402980000000  0.5572500000000 1.0
C      1  0.4793150000000  0.5980040000000  0.5304040000000 1.0
C      1  0.5011980000000  0.4793760000000  0.4030670000000 1.0
C      1  0.5254940000000  0.4602050000000  0.4056200000000 1.0
C      1  0.4270690000000  0.5222110000000  0.4378640000000 1.0
C      1  0.5126140000000  0.6063580000000  0.4353850000000 1.0
C      1  0.5487010000000  0.4738210000000  0.4673700000000 1.0
C      1  0.5105350000000  0.4163330000000  0.5694830000000 1.0
C      1  0.5026240000000  0.4190690000000  0.4753770000000 1.0
C      1  0.5656940000000  0.4796900000000  0.5189400000000 1.0
C      1  0.5128210000000  0.5515260000000  0.4921580000000 1.0
C      1  0.4549770000000  0.5075610000000  0.4426040000000 1.0
C      1  0.6014710000000  0.4789060000000  0.4660920000000 1.0
C      1  0.5638810000000  0.5831270000000  0.4905000000000 1.0
C      1  0.4334270000000  0.4313290000000  0.4594640000000 1.0
C      1  0.6015780000000  0.5500330000000  0.4806870000000 1.0
C      1  0.5727590000000  0.5559110000000  0.4781290000000 1.0
C      1  0.4800220000000  0.5634330000000  0.5764860000000 1.0
C      1  0.4424550000000  0.4317020000000  0.5531280000000 1.0
C      1  0.5034480000000  0.3930930000000  0.5498590000000 1.0
C      1  0.4393390000000  0.5467710000000  0.4501060000000 1.0
C      1  0.4961670000000  0.4559150000000  0.6148640000000 1.0
C      1  0.5522670000000  0.5470740000000  0.4515760000000 1.0
C      1  0.5236050000000  0.4349050000000  0.4206890000000 1.0
C      1  0.4746660000000  0.4695310000000  0.4712720000000 1.0
C      1  0.5493370000000  0.4761300000000  0.4036360000000 1.0
C      1  0.5932740000000  0.4363760000000  0.5319060000000 1.0
C      1  0.4041880000000  0.5160270000000  0.5575170000000 1.0
C      1  0.4812990000000  0.4190880000000  0.5760000000000 1.0
C      1  0.5314200000000  0.4418410000000  0.5284350000000 1.0
C      1  0.5582950000000  0.5228160000000  0.4091780000000 1.0
C      1  0.5477250000000  0.5152920000000  0.4915920000000 1.0
C      1  0.3836090000000  0.5017270000000  0.4643650000000 1.0
C      1  0.5041990000000  0.4451010000000  0.5135160000000 1.0
C      1  0.5136610000000  0.3883220000000  0.5238060000000 1.0
C      1  0.5507540000000  0.4187440000000  0.5239220000000 1.0
C      1  0.4883200000000  0.4587920000000  0.4482220000000 1.0
C      1  0.4714520000000  0.6120740000000  0.4908810000000 1.0
C      1  0.4753620000000  0.4004060000000  0.5546760000000 1.0
C      1  0.5646450000000  0.4483790000000  0.4554770000000 1.0
C      1  0.4312460000000  0.5636250000000  0.5572120000000 1.0
C      1  0.5174700000000  0.3939410000000  0.4683000000000 1.0
C      1  0.4961260000000  0.3828650000000  0.4461030000000 1.0
C      1  0.3958020000000  0.4752230000000  0.4591790000000 1.0
C      1  0.5548840000000  0.5493280000000  0.5215380000000 1.0
C      1  0.4040190000000  0.5267120000000  0.5110540000000 1.0
C      1  0.4290200000000  0.5510720000000  0.5843110000000 1.0
C      1  0.5326660000000  0.5366490000000  0.5301910000000 1.0
C      1  0.5409170000000  0.5025140000000  0.3945520000000 1.0
C      1  0.3993340000000  0.5250430000000  0.4531350000000 1.0
C      1  0.4131590000000  0.5664390000000  0.5352320000000 1.0
C      1  0.4993580000000  0.4611260000000  0.4891810000000 1.0
C      1  0.4951410000000  0.4815550000000  0.4318040000000 1.0
C      1  0.3971850000000  0.4909490000000  0.5449490000000 1.0
C      1  0.5218430000000  0.5571860000000  0.5996910000000 1.0
C      1  0.4337430000000  0.4953800000000  0.5262830000000 1.0
C      1  0.5019630000000  0.5264840000000  0.4411440000000 1.0
C      1  0.5998520000000  0.5191020000000  0.4379500000000 1.0
C      1  0.4733440000000  0.4750510000000  0.6080140000000 1.0
C      1  0.4045960000000  0.4968030000000  0.5148650000000 1.0
C      1  0.4226260000000  0.5076080000000  0.5790890000000 1.0
C      1  0.5260600000000  0.5314370000000  0.5904520000000 1.0
C      1  0.4581930000000  0.4387070000000  0.5764750000000 1.0
C      1  0.5096400000000  0.5485320000000  0.5209650000000 1.0
C      1  0.4277160000000  0.5323590000000  0.4952610000000 1.0
C      1  0.5559650000000  0.5799120000000  0.5206620000000 1.0
C      1  0.5195700000000  0.5562430000000  0.4130410000000 1.0
C      1  0.4217090000000  0.4419010000000  0.4842890000000 1.0
C      1  0.5505410000000  0.5314460000000  0.5746720000000 1.0
C      1  0.5625330000000  0.4071320000000  0.4786160000000 1.0
C      1  0.5934280000000  0.4413910000000  0.5018220000000 1.0
C      1  0.5493670000000  0.5524620000000  0.4069390000000 1.0
C      1  0.5301210000000  0.4344350000000  0.5586460000000 1.0
C      1  0.5318410000000  0.5947080000000  0.5306380000000 1.0
C      1  0.5635360000000  0.5621030000000  0.5696820000000 1.0
C      1  0.5457700000000  0.4610740000000  0.5944320000000 1.0
C      1  0.5398650000000  0.4960890000000  0.4510780000000 1.0
C      1  0.5960600000000  0.5156910000000  0.5071990000000 1.0
C      1  0.4550310000000  0.4481030000000  0.4147470000000 1.0
C      1  0.4738310000000  0.4195060000000  0.4815070000000 1.0
C      1  0.4836940000000  0.4455420000000  0.5329340000000 1.0
C      1  0.5129340000000  0.5079100000000  0.3927480000000 1.0
C      1  0.4421630000000  0.5548400000000  0.5085560000000 1.0
C      1  0.4735430000000  0.5145830000000  0.5566610000000 1.0
C      1  0.4585730000000  0.5942460000000  0.4706750000000 1.0
C      1  0.4123550000000  0.4684220000000  0.5567610000000 1.0
C      1  0.3918880000000  0.4853300000000  0.4860410000000 1.0
C      1  0.5774520000000  0.4312540000000  0.4789180000000 1.0
C      1  0.5496800000000  0.3975360000000  0.5041160000000 1.0
C      1  0.5304340000000  0.4911610000000  0.5506990000000 1.0
C      1  0.4232130000000  0.4951310000000  0.4196540000000 1.0
C      1  0.5294400000000  0.5781980000000  0.5816160000000 1.0
C      1  0.5829050000000  0.5001860000000  0.5591190000000 1.0
C      1  0.4643810000000  0.5456520000000  0.4658460000000 1.0
C      1  0.5839420000000  0.4677050000000  0.4426020000000 1.0
C      1  0.4525140000000  0.4642880000000  0.5892790000000 1.0
C      1  0.5006350000000  0.6119180000000  0.4917610000000 1.0
C      1  0.5176930000000  0.6009370000000  0.4680330000000 1.0
C      1  0.5866400000000  0.5085000000000  0.4163290000000 1.0
C      1  0.4518440000000  0.5500130000000  0.5362930000000 1.0
C      1  0.4758350000000  0.5226210000000  0.4305100000000 1.0
C      1  0.5637700000000  0.5652030000000  0.4287370000000 1.0
C      1  0.4293870000000  0.4786820000000  0.5781490000000 1.0
C      1  0.4765030000000  0.5705010000000  0.5471310000000 1.0
C      1  0.5213710000000  0.5238120000000  0.4869360000000 1.0
C      1  0.5436470000000  0.4058570000000  0.4563410000000 1.0
C      1  0.4019950000000  0.5394410000000  0.5371300000000 1.0
C      1  0.5014680000000  0.5737990000000  0.5925400000000 1.0
C      1  0.5423250000000  0.4722520000000  0.5342430000000 1.0
C      1  0.4158080000000  0.4725160000000  0.4371120000000 1.0
C      1  0.4982010000000  0.5068290000000  0.4823130000000 1.0
C      1  0.4314810000000  0.5827680000000  0.5094480000000 1.0
C      1  0.5537720000000  0.5194440000000  0.4406990000000 1.0
C      1  0.4763460000000  0.5715830000000  0.4642110000000 1.0
C      1  0.5063570000000  0.6041550000000  0.5186060000000 1.0
C      1  0.4194420000000  0.4441450000000  0.5416240000000 1.0
C      1  0.4487940000000  0.4764950000000  0.5131980000000 1.0
C      1  0.4697410000000  0.5588740000000  0.3921370000000 1.0
C      1  0.6016100000000  0.4640740000000  0.4886780000000 1.0
C      1  0.4775370000000  0.5347440000000  0.5778790000000 1.0
C      1  0.5458460000000  0.4897170000000  0.5960860000000 1.0
C      1  0.4737860000000  0.5339870000000  0.4009650000000 1.0
C      1  0.4563930000000  0.4926730000000  0.4680570000000 1.0
C      1  0.4982780000000  0.4195360000000  0.4252400000000 1.0
C      1  0.5036210000000  0.5348480000000  0.3953650000000 1.0
C      1  0.4209070000000  0.5687020000000  0.4594410000000 1.0
C      1  0.4541490000000  0.4103160000000  0.4607860000000 1.0
C      1  0.4645200000000  0.4213260000000  0.5346510000000 1.0
C      1  0.5242250000000  0.3842510000000  0.4992060000000 1.0
END
