TITL C-884141-4321-117 2.14395106770884 125000 -8931.6736862946 0 0 61 (C1) n - 1
REM
REM in /home/nfs/bkarasulu/CARBON/AIRSS/Generating-Clusters/ReaxFF-fromJPCA2015/Units_Real/with-SteepDescent/Only-C1/SD-CG/Try1-3A/FIRE-CG
REM
REM
REM
REM
REM
REM ./C.cell (11c1c37f851c82e70ff6c80c92926a4b)
REM
REM compiler GCC version 9.2.1 20190827 (Red Hat 9.2.1-1)
REM options -cpp -mtune=generic -march=x86-64 -g -O0 -fpre-include=/usr/include/finclude/math-vector-fortran.h
REM seed 1583625171 -785336068 -1552674247 -663970185 1819859568 166463075 -912529510 -2082077867 1500144428 -1237244938 -645105672 -1487287033 1037086867 865343011 -893952688 -374546904 -343894484 -1821474440 529915745 -1164653079 -546496083 -1409167036 745987472 -232021553 -1184405295 -1747840003 801000133 840772065 1981347132 536355275 1060426015 -416898828 -15161977
REM
CELL 1.54180   50.00000   50.00000   50.00000   90.00000   90.00000   90.00000
LATT -1
SFAC C  
C      1  0.4951440000000  0.4809560000000  0.5597370000000 1.0
C      1  0.4324150000000  0.4994240000000  0.4956520000000 1.0
C      1  0.5652730000000  0.4745270000000  0.4969440000000 1.0
C      1  0.5182470000000  0.4375910000000  0.5513880000000 1.0
C      1  0.5477990000000  0.5487670000000  0.4865230000000 1.0
C      1  0.5056790000000  0.4554780000000  0.5716880000000 1.0
C      1  0.5324300000000  0.4532380000000  0.4346990000000 1.0
C      1  0.4940640000000  0.5315500000000  0.4787470000000 1.0
C      1  0.4611540000000  0.5130930000000  0.5579610000000 1.0
C      1  0.5020070000000  0.5469370000000  0.5502230000000 1.0
C      1  0.5604360000000  0.4841820000000  0.5235310000000 1.0
C      1  0.5033040000000  0.5411880000000  0.4370550000000 1.0
C      1  0.4365790000000  0.5410940000000  0.5215030000000 1.0
C      1  0.5172040000000  0.5628110000000  0.5333360000000 1.0
C      1  0.5358510000000  0.4343710000000  0.5066750000000 1.0
C      1  0.5122270000000  0.5662760000000  0.4507960000000 1.0
C      1  0.5368920000000  0.5523960000000  0.4591460000000 1.0
C      1  0.4811250000000  0.5351620000000  0.5654350000000 1.0
C      1  0.4240220000000  0.5286850000000  0.4991110000000 1.0
C      1  0.4959880000000  0.5912630000000  0.4964010000000 1.0
C      1  0.5350190000000  0.4350440000000  0.4559800000000 1.0
C      1  0.4501310000000  0.5411860000000  0.4517020000000 1.0
C      1  0.4424080000000  0.5336240000000  0.5491100000000 1.0
C      1  0.4765770000000  0.4252920000000  0.5360250000000 1.0
C      1  0.5106030000000  0.4201250000000  0.4639640000000 1.0
C      1  0.5277030000000  0.4530070000000  0.5274260000000 1.0
C      1  0.4598730000000  0.5464950000000  0.5086450000000 1.0
C      1  0.5552550000000  0.4892410000000  0.4546090000000 1.0
C      1  0.5339900000000  0.4751770000000  0.4704180000000 1.0
C      1  0.5118250000000  0.4910130000000  0.5369000000000 1.0
C      1  0.5089570000000  0.4724510000000  0.5145980000000 1.0
C      1  0.5402140000000  0.5017750000000  0.5380790000000 1.0
C      1  0.5456350000000  0.5193790000000  0.4881070000000 1.0
C      1  0.5412430000000  0.5035140000000  0.4332980000000 1.0
C      1  0.4880400000000  0.4646400000000  0.4950870000000 1.0
C      1  0.5664150000000  0.4985210000000  0.4800700000000 1.0
C      1  0.4612320000000  0.5553470000000  0.5558720000000 1.0
C      1  0.5305460000000  0.5302120000000  0.4389380000000 1.0
C      1  0.4723630000000  0.4979900000000  0.4594390000000 1.0
C      1  0.5031140000000  0.4160050000000  0.5376500000000 1.0
C      1  0.5454290000000  0.4496150000000  0.4828830000000 1.0
C      1  0.4678560000000  0.5661140000000  0.5287600000000 1.0
C      1  0.4936600000000  0.5791990000000  0.5232560000000 1.0
C      1  0.4509530000000  0.4669640000000  0.5363200000000 1.0
C      1  0.5103150000000  0.4825340000000  0.4549370000000 1.0
C      1  0.4347220000000  0.5358990000000  0.4736290000000 1.0
C      1  0.4749740000000  0.4388440000000  0.4980720000000 1.0
C      1  0.4799420000000  0.5269400000000  0.4502640000000 1.0
C      1  0.4620770000000  0.4392360000000  0.5251030000000 1.0
C      1  0.4771260000000  0.5229530000000  0.5003190000000 1.0
C      1  0.4611840000000  0.5022460000000  0.4863650000000 1.0
C      1  0.4980980000000  0.5868600000000  0.4675050000000 1.0
C      1  0.5405750000000  0.5283710000000  0.5299340000000 1.0
C      1  0.5148510000000  0.4143260000000  0.5105530000000 1.0
C      1  0.5408380000000  0.5516060000000  0.5159910000000 1.0
C      1  0.4950770000000  0.4178580000000  0.4890240000000 1.0
C      1  0.4398900000000  0.4825320000000  0.5164150000000 1.0
C      1  0.4659580000000  0.4848500000000  0.5547880000000 1.0
C      1  0.4859710000000  0.4737510000000  0.4669100000000 1.0
C      1  0.5241530000000  0.4797180000000  0.4276830000000 1.0
C      1  0.5173680000000  0.5205560000000  0.4888190000000 1.0
END
