TITL C-884130-5973-7 17603667.8638871 125000 -28258.8569809481 0 0 193 (C1) n - 1
REM
REM in /home/nfs/bkarasulu/CARBON/AIRSS/Generating-Clusters/ReaxFF-fromJPCA2015/Units_Real/with-SteepDescent/Only-C1/SD-CG/Try1-3A/FIRE-CG
REM
REM
REM
REM
REM
REM ./C.cell (11c1c37f851c82e70ff6c80c92926a4b)
REM
REM compiler GCC version 9.2.1 20190827 (Red Hat 9.2.1-1)
REM options -cpp -mtune=generic -march=x86-64 -g -O0 -fpre-include=/usr/include/finclude/math-vector-fortran.h
REM seed -779494951 -733802596 -1158284594 -1865131455 1480060022 1234338295 189467308 -1459065588 1602406018 -667303684 1694411859 1565958289 838931408 -529202828 -102915111 931387013 -910243014 -573689597 357743500 -1706565360 1168764695 -1176475067 -1776251560 423622991 -1860075131 -442559633 -101418194 651371596 1125840753 -1337798491 -885091492 293709768 935289562
REM
CELL 1.54180   50.00000   50.00000   50.00000   90.00000   90.00000   90.00000
LATT -1
SFAC C  
C      1  0.4267640000000  0.5065360000000  0.5853900000000 1.0
C      1  0.4475770000000  0.4729360000000  0.4472370000000 1.0
C      1  0.5910710000000  0.4360920000000  0.5014330000000 1.0
C      1  0.5693880000000  0.4176870000000  0.5103570000000 1.0
C      1  0.5590850000000  0.5940150000000  0.4773450000000 1.0
C      1  0.3924650000000  0.5060560000000  0.5432050000000 1.0
C      1  0.4163640000000  0.4916590000000  0.5433010000000 1.0
C      1  0.4137290000000  0.5413480000000  0.4257780000000 1.0
C      1  0.5445620000000  0.6066620000000  0.4989240000000 1.0
C      1  0.5665320000000  0.5550260000000  0.4354490000000 1.0
C      1  0.5167870000000  0.6131460000000  0.4895610000000 1.0
C      1  0.4754500000000  0.4716350000000  0.4423320000000 1.0
C      1  0.3918240000000  0.4772010000000  0.4719390000000 1.0
C      1  0.5998210000000  0.5004730000000  0.4513350000000 1.0
C      1  0.4601500000000  0.4775660000000  0.5532080000000 1.0
C      1  0.5371670000000  0.5467890000000  0.4006730000000 1.0
C      1  0.4232300000000  0.4222230000000  0.4989680000000 1.0
C      1  0.5531400000000  0.4139710000000  0.5362680000000 1.0
C      1  0.5251100000000  0.4543930000000  0.5888410000000 1.0
C      1  0.3849260000000  0.5242590000000  0.5230640000000 1.0
C      1  0.5595900000000  0.5544290000000  0.5620210000000 1.0
C      1  0.4987720000000  0.4005180000000  0.5368600000000 1.0
C      1  0.5198430000000  0.5561530000000  0.4645170000000 1.0
C      1  0.4946580000000  0.5202050000000  0.4957580000000 1.0
C      1  0.5051840000000  0.4454970000000  0.4595460000000 1.0
C      1  0.4746680000000  0.4542500000000  0.5402400000000 1.0
C      1  0.5885410000000  0.4676250000000  0.5814850000000 1.0
C      1  0.5063410000000  0.3974760000000  0.4619720000000 1.0
C      1  0.5198410000000  0.5741900000000  0.5533040000000 1.0
C      1  0.5274710000000  0.5996540000000  0.5400940000000 1.0
C      1  0.5134690000000  0.6050130000000  0.4623030000000 1.0
C      1  0.4772830000000  0.4547080000000  0.6094140000000 1.0
C      1  0.5637360000000  0.5059620000000  0.5490090000000 1.0
C      1  0.4865810000000  0.5952590000000  0.4525710000000 1.0
C      1  0.5899130000000  0.5249160000000  0.4645350000000 1.0
C      1  0.5437980000000  0.4497310000000  0.4178880000000 1.0
C      1  0.5467370000000  0.5283440000000  0.4903740000000 1.0
C      1  0.4366370000000  0.5552920000000  0.4153440000000 1.0
C      1  0.6094370000000  0.4853190000000  0.5039650000000 1.0
C      1  0.4111640000000  0.4383080000000  0.5194730000000 1.0
C      1  0.5666860000000  0.4742040000000  0.4913950000000 1.0
C      1  0.5404930000000  0.4597250000000  0.4941640000000 1.0
C      1  0.5748900000000  0.5568120000000  0.5061290000000 1.0
C      1  0.4999890000000  0.6085000000000  0.5342530000000 1.0
C      1  0.5355260000000  0.3880260000000  0.5062820000000 1.0
C      1  0.4425570000000  0.4064120000000  0.5149970000000 1.0
C      1  0.3829550000000  0.4805050000000  0.4995250000000 1.0
C      1  0.5609430000000  0.5353750000000  0.4147270000000 1.0
C      1  0.4415580000000  0.5742600000000  0.4791300000000 1.0
C      1  0.5774370000000  0.5712260000000  0.4828750000000 1.0
C      1  0.4499130000000  0.4155040000000  0.5421090000000 1.0
C      1  0.4863700000000  0.5484950000000  0.3976580000000 1.0
C      1  0.4452360000000  0.6074810000000  0.5158320000000 1.0
C      1  0.5100670000000  0.4236200000000  0.4770950000000 1.0
C      1  0.4777510000000  0.4484350000000  0.4594560000000 1.0
C      1  0.4196310000000  0.5738500000000  0.4980700000000 1.0
C      1  0.4833860000000  0.5239480000000  0.5594550000000 1.0
C      1  0.5201730000000  0.4987420000000  0.5849180000000 1.0
C      1  0.5000990000000  0.4201840000000  0.5742760000000 1.0
C      1  0.4934070000000  0.6156700000000  0.5069140000000 1.0
C      1  0.4830900000000  0.4535170000000  0.3987720000000 1.0
C      1  0.4617620000000  0.5355120000000  0.4424010000000 1.0
C      1  0.4501010000000  0.5946990000000  0.5391440000000 1.0
C      1  0.5729330000000  0.5022240000000  0.5968970000000 1.0
C      1  0.5305110000000  0.5168470000000  0.4446170000000 1.0
C      1  0.5054810000000  0.4646960000000  0.3850250000000 1.0
C      1  0.3935290000000  0.4613760000000  0.5204690000000 1.0
C      1  0.5511380000000  0.4673270000000  0.5431750000000 1.0
C      1  0.4821610000000  0.5153370000000  0.5335700000000 1.0
C      1  0.4416060000000  0.4270180000000  0.4426710000000 1.0
C      1  0.4164300000000  0.4911490000000  0.4798740000000 1.0
C      1  0.5862640000000  0.4383880000000  0.4446300000000 1.0
C      1  0.5011780000000  0.4250290000000  0.5034220000000 1.0
C      1  0.4618960000000  0.4406480000000  0.4822750000000 1.0
C      1  0.4705070000000  0.5622230000000  0.4860310000000 1.0
C      1  0.5031340000000  0.4947460000000  0.5302650000000 1.0
C      1  0.5247330000000  0.5265370000000  0.5429620000000 1.0
C      1  0.4437310000000  0.5223990000000  0.4833630000000 1.0
C      1  0.4798250000000  0.4208150000000  0.5499800000000 1.0
C      1  0.5273220000000  0.4070430000000  0.4422620000000 1.0
C      1  0.5304520000000  0.4797770000000  0.4751390000000 1.0
C      1  0.5382740000000  0.5513740000000  0.5425680000000 1.0
C      1  0.4283010000000  0.5311610000000  0.5725430000000 1.0
C      1  0.4328860000000  0.4799650000000  0.5950670000000 1.0
C      1  0.5560920000000  0.4905890000000  0.4690170000000 1.0
C      1  0.5414930000000  0.4745020000000  0.5749710000000 1.0
C      1  0.4937250000000  0.4939190000000  0.4839920000000 1.0
C      1  0.5413690000000  0.5725200000000  0.4373590000000 1.0
C      1  0.6094450000000  0.4849800000000  0.4743950000000 1.0
C      1  0.5152840000000  0.4714660000000  0.4516240000000 1.0
C      1  0.4911000000000  0.5678930000000  0.5386060000000 1.0
C      1  0.5129210000000  0.5234360000000  0.5685140000000 1.0
C      1  0.4268080000000  0.4321090000000  0.5453420000000 1.0
C      1  0.5512650000000  0.4038000000000  0.4598680000000 1.0
C      1  0.6061490000000  0.5094890000000  0.5470730000000 1.0
C      1  0.5403600000000  0.5960540000000  0.4553250000000 1.0
C      1  0.5438440000000  0.5508430000000  0.5089370000000 1.0
C      1  0.4002180000000  0.4673760000000  0.5490010000000 1.0
C      1  0.5855180000000  0.4865370000000  0.4288440000000 1.0
C      1  0.5108840000000  0.3777530000000  0.4889560000000 1.0
C      1  0.5555550000000  0.4283060000000  0.5613680000000 1.0
C      1  0.5464500000000  0.4941530000000  0.4375390000000 1.0
C      1  0.4468170000000  0.5411850000000  0.5940740000000 1.0
C      1  0.5032020000000  0.5195120000000  0.4359380000000 1.0
C      1  0.5640190000000  0.4760530000000  0.5960680000000 1.0
C      1  0.4207910000000  0.4528610000000  0.5654620000000 1.0
C      1  0.5834710000000  0.5574140000000  0.5454950000000 1.0
C      1  0.4698640000000  0.4789520000000  0.3987050000000 1.0
C      1  0.4280470000000  0.5856770000000  0.5231970000000 1.0
C      1  0.4769690000000  0.5872750000000  0.4256570000000 1.0
C      1  0.5939870000000  0.5326700000000  0.5321540000000 1.0
C      1  0.5006270000000  0.4659780000000  0.5383400000000 1.0
C      1  0.4579760000000  0.4771610000000  0.6122320000000 1.0
C      1  0.5755820000000  0.5772030000000  0.5241310000000 1.0
C      1  0.5522830000000  0.5969370000000  0.5248180000000 1.0
C      1  0.4671270000000  0.5000100000000  0.5703380000000 1.0
C      1  0.4383780000000  0.4917830000000  0.5218760000000 1.0
C      1  0.4917350000000  0.4333250000000  0.4183690000000 1.0
C      1  0.4599600000000  0.5045250000000  0.4011260000000 1.0
C      1  0.5256690000000  0.5703680000000  0.4121030000000 1.0
C      1  0.5988150000000  0.4824710000000  0.5580790000000 1.0
C      1  0.5802630000000  0.4456390000000  0.5639790000000 1.0
C      1  0.4760780000000  0.4993570000000  0.6147720000000 1.0
C      1  0.4615280000000  0.3947330000000  0.4959950000000 1.0
C      1  0.5658400000000  0.5059470000000  0.4188660000000 1.0
C      1  0.4508620000000  0.4760830000000  0.5017870000000 1.0
C      1  0.4065850000000  0.4688520000000  0.4283410000000 1.0
C      1  0.4391930000000  0.5246700000000  0.4566140000000 1.0
C      1  0.5297160000000  0.4293780000000  0.5759630000000 1.0
C      1  0.4446670000000  0.4666590000000  0.5724960000000 1.0
C      1  0.4253130000000  0.5101730000000  0.5009580000000 1.0
C      1  0.5693520000000  0.5131900000000  0.4819120000000 1.0
C      1  0.3967510000000  0.4904720000000  0.4451910000000 1.0
C      1  0.5966430000000  0.4402660000000  0.4731190000000 1.0
C      1  0.5286750000000  0.5053390000000  0.5243610000000 1.0
C      1  0.4779260000000  0.5917840000000  0.5451160000000 1.0
C      1  0.5331000000000  0.5324840000000  0.4667740000000 1.0
C      1  0.4089470000000  0.5215200000000  0.4486130000000 1.0
C      1  0.6107310000000  0.5114860000000  0.5194440000000 1.0
C      1  0.5051250000000  0.4653700000000  0.6083790000000 1.0
C      1  0.6008490000000  0.4596790000000  0.5155080000000 1.0
C      1  0.4996770000000  0.4690280000000  0.4977230000000 1.0
C      1  0.5207180000000  0.4300830000000  0.4248510000000 1.0
C      1  0.4831850000000  0.4353190000000  0.5895590000000 1.0
C      1  0.5325390000000  0.4648600000000  0.3961660000000 1.0
C      1  0.5179210000000  0.5623590000000  0.4945140000000 1.0
C      1  0.4936410000000  0.5662360000000  0.5059260000000 1.0
C      1  0.5553010000000  0.4021520000000  0.4910730000000 1.0
C      1  0.4422590000000  0.5906460000000  0.4550190000000 1.0
C      1  0.4752870000000  0.5527120000000  0.5571180000000 1.0
C      1  0.4322230000000  0.4529150000000  0.4320100000000 1.0
C      1  0.5552920000000  0.5373150000000  0.5853400000000 1.0
C      1  0.5052400000000  0.4944500000000  0.6096160000000 1.0
C      1  0.5112690000000  0.5347090000000  0.3913960000000 1.0
C      1  0.4961980000000  0.5731980000000  0.4084020000000 1.0
C      1  0.5869970000000  0.4625060000000  0.5413720000000 1.0
C      1  0.4730560000000  0.4565680000000  0.5067780000000 1.0
C      1  0.4905330000000  0.3966130000000  0.5081330000000 1.0
C      1  0.3917600000000  0.5286770000000  0.4757040000000 1.0
C      1  0.4487790000000  0.5799070000000  0.4282410000000 1.0
C      1  0.4658660000000  0.5180720000000  0.5942550000000 1.0
C      1  0.4361470000000  0.4313200000000  0.4732440000000 1.0
C      1  0.5122310000000  0.5789790000000  0.5837060000000 1.0
C      1  0.4778680000000  0.3966100000000  0.4488860000000 1.0
C      1  0.4642690000000  0.5335650000000  0.4981750000000 1.0
C      1  0.5748250000000  0.5176600000000  0.5736380000000 1.0
C      1  0.4686970000000  0.4185070000000  0.4322880000000 1.0
C      1  0.3809140000000  0.5099770000000  0.4967370000000 1.0
C      1  0.4636310000000  0.6076040000000  0.4671150000000 1.0
C      1  0.4764470000000  0.5562780000000  0.4568930000000 1.0
C      1  0.5058450000000  0.5113380000000  0.4069600000000 1.0
C      1  0.4575760000000  0.3987070000000  0.4680990000000 1.0
C      1  0.4992640000000  0.5445500000000  0.4505150000000 1.0
C      1  0.4619390000000  0.5345170000000  0.4098680000000 1.0
C      1  0.5115490000000  0.4416610000000  0.5254180000000 1.0
C      1  0.5901280000000  0.4659770000000  0.4764040000000 1.0
C      1  0.4936150000000  0.5729890000000  0.5945540000000 1.0
C      1  0.4690040000000  0.5578830000000  0.5848370000000 1.0
C      1  0.5825810000000  0.5528830000000  0.4592740000000 1.0
C      1  0.5160070000000  0.4874000000000  0.3963710000000 1.0
C      1  0.5553180000000  0.4915010000000  0.5257740000000 1.0
C      1  0.5281510000000  0.3984400000000  0.5325320000000 1.0
C      1  0.4130540000000  0.5334980000000  0.5211820000000 1.0
C      1  0.4337920000000  0.5342490000000  0.5413580000000 1.0
C      1  0.5662300000000  0.4196590000000  0.4436800000000 1.0
C      1  0.5706450000000  0.4583170000000  0.4287430000000 1.0
C      1  0.5372070000000  0.4531700000000  0.5225750000000 1.0
C      1  0.4664900000000  0.6118770000000  0.4960280000000 1.0
C      1  0.4581070000000  0.5284350000000  0.5266070000000 1.0
C      1  0.4938180000000  0.4924780000000  0.4511930000000 1.0
C      1  0.5295170000000  0.5246270000000  0.5931130000000 1.0
C      1  0.3988970000000  0.5539840000000  0.4873910000000 1.0
C      1  0.4414380000000  0.4795670000000  0.4749080000000 1.0
END
