TITL C-883734-4173-55 29.6687182542319 125000 -24229.6827091607 0 0 163 (C1) n - 1
REM
REM in /home/nfs/bkarasulu/CARBON/AIRSS/Generating-Clusters/ReaxFF-fromJPCA2015/Units_Real/with-SteepDescent/Only-C1/SD-CG/Try1-3A/FIRE-CG
REM
REM
REM
REM
REM
REM ./C.cell (11c1c37f851c82e70ff6c80c92926a4b)
REM
REM compiler GCC version 9.2.1 20190827 (Red Hat 9.2.1-1)
REM options -cpp -mtune=generic -march=x86-64 -g -O0 -fpre-include=/usr/include/finclude/math-vector-fortran.h
REM seed 455327823 -756542915 1231309383 -1071978912 1793495275 -125669176 874433472 954342888 152832795 -1487595758 525880404 -1462308020 -831039364 219630592 783149830 -1134743175 495857817 642886593 -965010526 705829131 -1082315324 -1661227542 1290859973 -197307679 1473464022 -1548257201 920712919 1699451748 2029981105 -430029882 -194290671 -842676922 -1943754429
REM
CELL 1.54180   50.00000   50.00000   50.00000   90.00000   90.00000   90.00000
LATT -1
SFAC C  
C      1  0.3905820000000  0.4924360000000  0.5402600000000 1.0
C      1  0.4697490000000  0.4538070000000  0.5245500000000 1.0
C      1  0.6076910000000  0.4936010000000  0.4946270000000 1.0
C      1  0.4496370000000  0.4663610000000  0.4218280000000 1.0
C      1  0.4961330000000  0.5896120000000  0.5424620000000 1.0
C      1  0.5741010000000  0.5358930000000  0.5385110000000 1.0
C      1  0.4888090000000  0.4348790000000  0.5849220000000 1.0
C      1  0.4703580000000  0.4031560000000  0.4516150000000 1.0
C      1  0.5573620000000  0.4757640000000  0.5708580000000 1.0
C      1  0.4667850000000  0.5695850000000  0.4102930000000 1.0
C      1  0.4919180000000  0.4521820000000  0.5051060000000 1.0
C      1  0.5081600000000  0.5449710000000  0.4811620000000 1.0
C      1  0.5379380000000  0.4258810000000  0.5977940000000 1.0
C      1  0.5778410000000  0.4563400000000  0.4820080000000 1.0
C      1  0.4099610000000  0.5241220000000  0.4781990000000 1.0
C      1  0.4055930000000  0.4688130000000  0.4821420000000 1.0
C      1  0.5533170000000  0.5810590000000  0.5372570000000 1.0
C      1  0.4948500000000  0.5702360000000  0.4752450000000 1.0
C      1  0.5590840000000  0.4656170000000  0.4355080000000 1.0
C      1  0.5991870000000  0.5164220000000  0.4714890000000 1.0
C      1  0.4738210000000  0.5061380000000  0.5448250000000 1.0
C      1  0.4429330000000  0.4450720000000  0.5645260000000 1.0
C      1  0.5375350000000  0.5764980000000  0.5666690000000 1.0
C      1  0.5259140000000  0.5983100000000  0.4715120000000 1.0
C      1  0.5564900000000  0.5409720000000  0.4525800000000 1.0
C      1  0.5386340000000  0.5983290000000  0.5174000000000 1.0
C      1  0.5475710000000  0.4803320000000  0.5172890000000 1.0
C      1  0.4939100000000  0.4924040000000  0.4088870000000 1.0
C      1  0.4350910000000  0.5816850000000  0.4733920000000 1.0
C      1  0.5182180000000  0.5225280000000  0.3840450000000 1.0
C      1  0.4159110000000  0.4429480000000  0.4703210000000 1.0
C      1  0.4230010000000  0.4655570000000  0.5607220000000 1.0
C      1  0.4443210000000  0.4974080000000  0.5927770000000 1.0
C      1  0.4858500000000  0.5624390000000  0.5478580000000 1.0
C      1  0.5095470000000  0.5976150000000  0.5175660000000 1.0
C      1  0.5224260000000  0.4320560000000  0.4860420000000 1.0
C      1  0.5931710000000  0.4719390000000  0.5335770000000 1.0
C      1  0.5619960000000  0.5710220000000  0.4574170000000 1.0
C      1  0.4518850000000  0.5046930000000  0.5256700000000 1.0
C      1  0.4200730000000  0.4249660000000  0.4950570000000 1.0
C      1  0.5152220000000  0.4450690000000  0.5924600000000 1.0
C      1  0.4501240000000  0.5161260000000  0.4156730000000 1.0
C      1  0.5884570000000  0.4983060000000  0.4481120000000 1.0
C      1  0.5968080000000  0.4692600000000  0.5048940000000 1.0
C      1  0.5660600000000  0.5028220000000  0.5738660000000 1.0
C      1  0.5185810000000  0.5189860000000  0.5334850000000 1.0
C      1  0.5397800000000  0.5558830000000  0.5286780000000 1.0
C      1  0.5369190000000  0.5373000000000  0.4018190000000 1.0
C      1  0.4967640000000  0.4012950000000  0.4626460000000 1.0
C      1  0.4687070000000  0.5748790000000  0.5697660000000 1.0
C      1  0.5558560000000  0.5122780000000  0.4948660000000 1.0
C      1  0.4357490000000  0.5275920000000  0.5196710000000 1.0
C      1  0.4627500000000  0.5287840000000  0.4805540000000 1.0
C      1  0.5340120000000  0.5075340000000  0.4772300000000 1.0
C      1  0.4341930000000  0.5730400000000  0.4458580000000 1.0
C      1  0.4650340000000  0.4254220000000  0.4335040000000 1.0
C      1  0.5644360000000  0.4815970000000  0.4104210000000 1.0
C      1  0.5490160000000  0.5959450000000  0.4901890000000 1.0
C      1  0.5688850000000  0.4266350000000  0.4751980000000 1.0
C      1  0.4897320000000  0.5314560000000  0.3845040000000 1.0
C      1  0.5463890000000  0.4141860000000  0.4892890000000 1.0
C      1  0.4598350000000  0.3951490000000  0.4785060000000 1.0
C      1  0.4874280000000  0.4404840000000  0.4235950000000 1.0
C      1  0.4871200000000  0.5258120000000  0.5970940000000 1.0
C      1  0.5860150000000  0.5154220000000  0.5560100000000 1.0
C      1  0.4459190000000  0.4105890000000  0.4992870000000 1.0
C      1  0.4477810000000  0.5324420000000  0.4366630000000 1.0
C      1  0.4548960000000  0.5005120000000  0.4822400000000 1.0
C      1  0.5422600000000  0.4202530000000  0.4257660000000 1.0
C      1  0.5352510000000  0.5802790000000  0.4502350000000 1.0
C      1  0.5487370000000  0.5286320000000  0.5214710000000 1.0
C      1  0.4652600000000  0.4512370000000  0.5827770000000 1.0
C      1  0.5018460000000  0.5445290000000  0.5790340000000 1.0
C      1  0.5174400000000  0.5594710000000  0.4052270000000 1.0
C      1  0.4620270000000  0.4191610000000  0.5229790000000 1.0
C      1  0.4758810000000  0.5680780000000  0.4554790000000 1.0
C      1  0.5398430000000  0.5498140000000  0.5573990000000 1.0
C      1  0.4491890000000  0.4925170000000  0.4336840000000 1.0
C      1  0.5065160000000  0.5081580000000  0.4332530000000 1.0
C      1  0.5439480000000  0.4040710000000  0.5169230000000 1.0
C      1  0.5000820000000  0.5970260000000  0.4877730000000 1.0
C      1  0.5055430000000  0.4287840000000  0.5086070000000 1.0
C      1  0.4764970000000  0.5871230000000  0.4326200000000 1.0
C      1  0.6120150000000  0.5139010000000  0.5142130000000 1.0
C      1  0.5706890000000  0.5248650000000  0.4735770000000 1.0
C      1  0.5147610000000  0.5622640000000  0.4342710000000 1.0
C      1  0.4009700000000  0.5077210000000  0.5631370000000 1.0
C      1  0.4882010000000  0.4964020000000  0.6019040000000 1.0
C      1  0.4710470000000  0.5394960000000  0.4521250000000 1.0
C      1  0.5223370000000  0.5294760000000  0.5649970000000 1.0
C      1  0.4956080000000  0.4931310000000  0.4746470000000 1.0
C      1  0.4807180000000  0.4757170000000  0.5454490000000 1.0
C      1  0.5619930000000  0.4201670000000  0.4470000000000 1.0
C      1  0.4214560000000  0.4906730000000  0.5757400000000 1.0
C      1  0.5747200000000  0.4594420000000  0.5550520000000 1.0
C      1  0.4671100000000  0.4836670000000  0.4613160000000 1.0
C      1  0.4597390000000  0.5865550000000  0.4886170000000 1.0
C      1  0.4488940000000  0.4603760000000  0.5043350000000 1.0
C      1  0.4731860000000  0.5543680000000  0.5253870000000 1.0
C      1  0.4206560000000  0.4673070000000  0.5090840000000 1.0
C      1  0.5235410000000  0.4019550000000  0.5585430000000 1.0
C      1  0.5471210000000  0.4522660000000  0.5165090000000 1.0
C      1  0.4401930000000  0.4261390000000  0.5414770000000 1.0
C      1  0.4577900000000  0.5244140000000  0.5928360000000 1.0
C      1  0.4871250000000  0.3919750000000  0.4881030000000 1.0
C      1  0.4409530000000  0.4438920000000  0.4632410000000 1.0
C      1  0.5660740000000  0.4314310000000  0.5545340000000 1.0
C      1  0.5316310000000  0.4640870000000  0.4442740000000 1.0
C      1  0.4067150000000  0.4678990000000  0.5359830000000 1.0
C      1  0.5025580000000  0.5988700000000  0.4362540000000 1.0
C      1  0.5461050000000  0.5223350000000  0.5848210000000 1.0
C      1  0.5198630000000  0.4901890000000  0.4554880000000 1.0
C      1  0.4921960000000  0.4034030000000  0.5152030000000 1.0
C      1  0.5118250000000  0.5733060000000  0.5788870000000 1.0
C      1  0.4402310000000  0.5527560000000  0.5343700000000 1.0
C      1  0.4952540000000  0.4075920000000  0.5711850000000 1.0
C      1  0.4504480000000  0.5523620000000  0.5634060000000 1.0
C      1  0.5175100000000  0.4388480000000  0.4368060000000 1.0
C      1  0.4126950000000  0.5709490000000  0.4931790000000 1.0
C      1  0.5259550000000  0.5120850000000  0.6013530000000 1.0
C      1  0.3951830000000  0.5473160000000  0.4912870000000 1.0
C      1  0.4057130000000  0.4961810000000  0.4775700000000 1.0
C      1  0.5316910000000  0.5348240000000  0.4702560000000 1.0
C      1  0.4149800000000  0.5666290000000  0.5219230000000 1.0
C      1  0.5011660000000  0.5353110000000  0.4404310000000 1.0
C      1  0.5716950000000  0.5777490000000  0.4834940000000 1.0
C      1  0.4913950000000  0.5938140000000  0.5713740000000 1.0
C      1  0.5470210000000  0.4157510000000  0.5711680000000 1.0
C      1  0.5191470000000  0.3964080000000  0.5307460000000 1.0
C      1  0.4916640000000  0.5263280000000  0.5225950000000 1.0
C      1  0.5535500000000  0.4649720000000  0.4946340000000 1.0
C      1  0.4955300000000  0.4819960000000  0.5024700000000 1.0
C      1  0.5264080000000  0.4695190000000  0.5762250000000 1.0
C      1  0.6029500000000  0.5353750000000  0.4961940000000 1.0
C      1  0.4911770000000  0.5238960000000  0.4924700000000 1.0
C      1  0.4432010000000  0.5562770000000  0.4228050000000 1.0
C      1  0.3974640000000  0.5206720000000  0.5368230000000 1.0
C      1  0.4580410000000  0.4602830000000  0.4773670000000 1.0
C      1  0.5085910000000  0.4741100000000  0.5509190000000 1.0
C      1  0.5797890000000  0.4724900000000  0.4546410000000 1.0
C      1  0.5105380000000  0.4246910000000  0.4610740000000 1.0
C      1  0.4181030000000  0.4312600000000  0.5229220000000 1.0
C      1  0.5742660000000  0.5072520000000  0.4236620000000 1.0
C      1  0.5197180000000  0.4891910000000  0.5266390000000 1.0
C      1  0.4349590000000  0.5337670000000  0.4917030000000 1.0
C      1  0.5798210000000  0.5631860000000  0.5299040000000 1.0
C      1  0.5414910000000  0.4855260000000  0.3967560000000 1.0
C      1  0.4400730000000  0.4417270000000  0.4367930000000 1.0
C      1  0.4777530000000  0.4646940000000  0.4137620000000 1.0
C      1  0.4731400000000  0.5783550000000  0.5089380000000 1.0
C      1  0.4889080000000  0.5585180000000  0.3953840000000 1.0
C      1  0.4679370000000  0.4948140000000  0.5054950000000 1.0
C      1  0.4654690000000  0.4784830000000  0.5951460000000 1.0
C      1  0.3939210000000  0.5459070000000  0.5211420000000 1.0
C      1  0.5563480000000  0.5294640000000  0.4222610000000 1.0
C      1  0.5159160000000  0.4862530000000  0.6013510000000 1.0
C      1  0.5586340000000  0.4275510000000  0.5269300000000 1.0
C      1  0.6023720000000  0.4991340000000  0.5385390000000 1.0
C      1  0.4739830000000  0.5118150000000  0.3981280000000 1.0
C      1  0.4596170000000  0.5252650000000  0.5643950000000 1.0
C      1  0.5881940000000  0.5602630000000  0.5019700000000 1.0
C      1  0.5180130000000  0.4931930000000  0.3870490000000 1.0
C      1  0.4844480000000  0.3899290000000  0.5540910000000 1.0
END
