TITL C-884133-6611-368 19.9580184719556 125000 -27959.9460945574 0 0 186 (C1) n - 1
REM
REM in /home/nfs/bkarasulu/CARBON/AIRSS/Generating-Clusters/ReaxFF-fromJPCA2015/Units_Real/with-SteepDescent/Only-C1/SD-CG/Try1-3A/FIRE-CG
REM
REM
REM
REM
REM
REM ./C.cell (11c1c37f851c82e70ff6c80c92926a4b)
REM
REM compiler GCC version 9.2.1 20190827 (Red Hat 9.2.1-1)
REM options -cpp -mtune=generic -march=x86-64 -g -O0 -fpre-include=/usr/include/finclude/math-vector-fortran.h
REM seed 2044509121 777369843 1288160587 -949511899 -2041441008 399434752 -1196236667 -1610403428 -1925681244 -392952833 393159322 -725580051 -757950777 -83026727 795324683 462178106 319819657 1127870463 -819921594 1940304746 -103002373 2098943394 -618555073 -24320553 -557700335 1349999522 -541739026 942367513 -1516573830 -1680196517 -1410131595 -1118024174 -138853342
REM
CELL 1.54180   50.00000   50.00000   50.00000   90.00000   90.00000   90.00000
LATT -1
SFAC C  
C      1  0.4725570000000  0.4846900000000  0.5675770000000 1.0
C      1  0.4594980000000  0.4644430000000  0.5150390000000 1.0
C      1  0.4139330000000  0.4792920000000  0.5705410000000 1.0
C      1  0.5414120000000  0.5155160000000  0.4665480000000 1.0
C      1  0.5528440000000  0.4997950000000  0.5522970000000 1.0
C      1  0.5000260000000  0.4162480000000  0.4267740000000 1.0
C      1  0.4278990000000  0.5037690000000  0.4971080000000 1.0
C      1  0.4614880000000  0.4353660000000  0.4099080000000 1.0
C      1  0.4412650000000  0.5912980000000  0.5446590000000 1.0
C      1  0.6078290000000  0.4901600000000  0.5117980000000 1.0
C      1  0.4050760000000  0.5383530000000  0.4290660000000 1.0
C      1  0.4171230000000  0.5300760000000  0.5709130000000 1.0
C      1  0.4023320000000  0.5577350000000  0.5049600000000 1.0
C      1  0.4690660000000  0.6137480000000  0.5044620000000 1.0
C      1  0.5973050000000  0.4694970000000  0.4756400000000 1.0
C      1  0.4773270000000  0.5010830000000  0.5393590000000 1.0
C      1  0.4583620000000  0.4466430000000  0.4601890000000 1.0
C      1  0.4901410000000  0.4346450000000  0.4056070000000 1.0
C      1  0.4091590000000  0.5113270000000  0.4168520000000 1.0
C      1  0.5704790000000  0.4715430000000  0.4627240000000 1.0
C      1  0.4988080000000  0.3852940000000  0.4954690000000 1.0
C      1  0.4741500000000  0.4464080000000  0.5911190000000 1.0
C      1  0.5486960000000  0.5415310000000  0.4148740000000 1.0
C      1  0.5194940000000  0.5510550000000  0.4140720000000 1.0
C      1  0.5050780000000  0.4781680000000  0.5727580000000 1.0
C      1  0.4856650000000  0.4554190000000  0.4634590000000 1.0
C      1  0.5099080000000  0.4346390000000  0.4683350000000 1.0
C      1  0.5721900000000  0.4740940000000  0.4324640000000 1.0
C      1  0.4652940000000  0.6064260000000  0.5522480000000 1.0
C      1  0.5158680000000  0.5434250000000  0.6066620000000 1.0
C      1  0.4893940000000  0.4639330000000  0.6088120000000 1.0
C      1  0.4968000000000  0.5583630000000  0.5542850000000 1.0
C      1  0.4155600000000  0.4483550000000  0.4912930000000 1.0
C      1  0.4680000000000  0.5929000000000  0.4519590000000 1.0
C      1  0.4003860000000  0.5316790000000  0.5472670000000 1.0
C      1  0.5717190000000  0.4537790000000  0.5826570000000 1.0
C      1  0.4558440000000  0.5035990000000  0.5846630000000 1.0
C      1  0.5412140000000  0.4619150000000  0.5449420000000 1.0
C      1  0.5518760000000  0.4237240000000  0.4303390000000 1.0
C      1  0.5165470000000  0.4786160000000  0.4429180000000 1.0
C      1  0.5297150000000  0.5507420000000  0.5209440000000 1.0
C      1  0.5385560000000  0.4881180000000  0.6019100000000 1.0
C      1  0.6048360000000  0.5656460000000  0.4850630000000 1.0
C      1  0.5152670000000  0.4688330000000  0.5037210000000 1.0
C      1  0.4361180000000  0.5316750000000  0.4918650000000 1.0
C      1  0.4485480000000  0.5020190000000  0.4278610000000 1.0
C      1  0.5736910000000  0.5030190000000  0.4223700000000 1.0
C      1  0.4657180000000  0.5474600000000  0.4472020000000 1.0
C      1  0.4039040000000  0.5578010000000  0.5334430000000 1.0
C      1  0.5993060000000  0.4476860000000  0.5525280000000 1.0
C      1  0.4898010000000  0.4033190000000  0.4545830000000 1.0
C      1  0.4507780000000  0.5925470000000  0.4979510000000 1.0
C      1  0.5114440000000  0.4876860000000  0.5239070000000 1.0
C      1  0.5250880000000  0.4218950000000  0.4245300000000 1.0
C      1  0.5660070000000  0.4489930000000  0.4200810000000 1.0
C      1  0.4857410000000  0.4221760000000  0.5749770000000 1.0
C      1  0.5250150000000  0.5063160000000  0.4457400000000 1.0
C      1  0.4226160000000  0.5721920000000  0.5543830000000 1.0
C      1  0.5112850000000  0.5992100000000  0.5615540000000 1.0
C      1  0.4633110000000  0.5036410000000  0.4718900000000 1.0
C      1  0.4996180000000  0.5188090000000  0.5458550000000 1.0
C      1  0.4727890000000  0.3974300000000  0.4984440000000 1.0
C      1  0.4481200000000  0.4843240000000  0.4899030000000 1.0
C      1  0.4262910000000  0.5607760000000  0.4308010000000 1.0
C      1  0.5649180000000  0.4776470000000  0.5392710000000 1.0
C      1  0.5199610000000  0.4000650000000  0.5121260000000 1.0
C      1  0.5790910000000  0.4212940000000  0.4756030000000 1.0
C      1  0.5110930000000  0.4432940000000  0.5148510000000 1.0
C      1  0.5067700000000  0.5699560000000  0.5996970000000 1.0
C      1  0.4784580000000  0.5719260000000  0.4355440000000 1.0
C      1  0.5450660000000  0.4612060000000  0.5925480000000 1.0
C      1  0.5765860000000  0.4336900000000  0.5598010000000 1.0
C      1  0.4991330000000  0.5332890000000  0.5689190000000 1.0
C      1  0.5887720000000  0.4771800000000  0.5788720000000 1.0
C      1  0.4039030000000  0.4989480000000  0.4438150000000 1.0
C      1  0.5692530000000  0.5473870000000  0.4353350000000 1.0
C      1  0.5606470000000  0.5639670000000  0.4577620000000 1.0
C      1  0.5949710000000  0.4422510000000  0.4876330000000 1.0
C      1  0.4790730000000  0.5750240000000  0.5913480000000 1.0
C      1  0.6112950000000  0.4984860000000  0.5405570000000 1.0
C      1  0.5496680000000  0.5482070000000  0.5021470000000 1.0
C      1  0.4672240000000  0.5271490000000  0.5963340000000 1.0
C      1  0.5523600000000  0.5147590000000  0.4059090000000 1.0
C      1  0.4991870000000  0.4609500000000  0.3937770000000 1.0
C      1  0.4982930000000  0.5362390000000  0.3947020000000 1.0
C      1  0.5035660000000  0.5895420000000  0.4982120000000 1.0
C      1  0.4004490000000  0.5264430000000  0.4546600000000 1.0
C      1  0.4663890000000  0.4157460000000  0.5240440000000 1.0
C      1  0.5270880000000  0.4571530000000  0.4606180000000 1.0
C      1  0.5961840000000  0.5191190000000  0.5528890000000 1.0
C      1  0.4051650000000  0.4944750000000  0.5111070000000 1.0
C      1  0.5280030000000  0.4698300000000  0.3904000000000 1.0
C      1  0.5464220000000  0.3916120000000  0.5003810000000 1.0
C      1  0.4911110000000  0.6132220000000  0.4864910000000 1.0
C      1  0.5424400000000  0.5597060000000  0.5724050000000 1.0
C      1  0.4454270000000  0.5871230000000  0.4698160000000 1.0
C      1  0.4933140000000  0.6013370000000  0.4612690000000 1.0
C      1  0.4234280000000  0.4213350000000  0.4951120000000 1.0
C      1  0.4231940000000  0.4271060000000  0.5472660000000 1.0
C      1  0.4350330000000  0.4640690000000  0.5302220000000 1.0
C      1  0.4322380000000  0.5546000000000  0.5754670000000 1.0
C      1  0.5747480000000  0.5051760000000  0.5726620000000 1.0
C      1  0.4631770000000  0.5363200000000  0.4740960000000 1.0
C      1  0.4895270000000  0.5038110000000  0.4802530000000 1.0
C      1  0.5239670000000  0.4524080000000  0.5732510000000 1.0
C      1  0.5657840000000  0.4057600000000  0.5166680000000 1.0
C      1  0.4556400000000  0.4281340000000  0.4381640000000 1.0
C      1  0.5720820000000  0.4314130000000  0.5034690000000 1.0
C      1  0.5719500000000  0.5325570000000  0.5108510000000 1.0
C      1  0.5013910000000  0.5077000000000  0.3900510000000 1.0
C      1  0.4944380000000  0.5323820000000  0.4828430000000 1.0
C      1  0.5124520000000  0.4242130000000  0.5662900000000 1.0
C      1  0.6048150000000  0.5426700000000  0.4747320000000 1.0
C      1  0.5864730000000  0.5411920000000  0.5356520000000 1.0
C      1  0.5297790000000  0.4993960000000  0.3923180000000 1.0
C      1  0.4834890000000  0.6137400000000  0.5302070000000 1.0
C      1  0.4351700000000  0.4627300000000  0.4713700000000 1.0
C      1  0.4273670000000  0.4248210000000  0.4438020000000 1.0
C      1  0.4955900000000  0.4772790000000  0.4845250000000 1.0
C      1  0.6036230000000  0.5179880000000  0.4639710000000 1.0
C      1  0.4331240000000  0.4559500000000  0.5600530000000 1.0
C      1  0.5531130000000  0.5119260000000  0.5942090000000 1.0
C      1  0.5562150000000  0.4195370000000  0.5409840000000 1.0
C      1  0.5581770000000  0.4116110000000  0.4575270000000 1.0
C      1  0.4594030000000  0.4604390000000  0.5706080000000 1.0
C      1  0.5261820000000  0.5574870000000  0.5479600000000 1.0
C      1  0.4708620000000  0.5403200000000  0.4042500000000 1.0
C      1  0.5124560000000  0.5482830000000  0.4644090000000 1.0
C      1  0.4821800000000  0.4843040000000  0.3906020000000 1.0
C      1  0.5296300000000  0.5979700000000  0.5093430000000 1.0
C      1  0.4526360000000  0.4805450000000  0.3929800000000 1.0
C      1  0.5418940000000  0.5387670000000  0.5938680000000 1.0
C      1  0.4102630000000  0.4654100000000  0.5138070000000 1.0
C      1  0.5123170000000  0.4241530000000  0.4951800000000 1.0
C      1  0.4967300000000  0.5219000000000  0.5989150000000 1.0
C      1  0.4422850000000  0.4566180000000  0.4066580000000 1.0
C      1  0.4453780000000  0.5406290000000  0.5194630000000 1.0
C      1  0.5403900000000  0.3937880000000  0.4719680000000 1.0
C      1  0.4512020000000  0.5733480000000  0.5218620000000 1.0
C      1  0.5080040000000  0.5733290000000  0.4311050000000 1.0
C      1  0.5462000000000  0.4699590000000  0.4784650000000 1.0
C      1  0.5893160000000  0.5832770000000  0.5005640000000 1.0
C      1  0.5074220000000  0.4886190000000  0.6013880000000 1.0
C      1  0.5258960000000  0.4867290000000  0.5492120000000 1.0
C      1  0.4799050000000  0.5297390000000  0.4302760000000 1.0
C      1  0.5848780000000  0.5223200000000  0.4402280000000 1.0
C      1  0.5041280000000  0.5374360000000  0.5109760000000 1.0
C      1  0.4888470000000  0.4728530000000  0.4406050000000 1.0
C      1  0.5672740000000  0.5844950000000  0.4773380000000 1.0
C      1  0.4582830000000  0.5541390000000  0.5897810000000 1.0
C      1  0.4787950000000  0.5624170000000  0.5312410000000 1.0
C      1  0.4643620000000  0.4031540000000  0.4717370000000 1.0
C      1  0.4341930000000  0.4166820000000  0.5234760000000 1.0
C      1  0.5182320000000  0.4028020000000  0.5463530000000 1.0
C      1  0.5157920000000  0.5813080000000  0.4581640000000 1.0
C      1  0.5399090000000  0.5919040000000  0.4823340000000 1.0
C      1  0.5264880000000  0.5825060000000  0.5809780000000 1.0
C      1  0.5396670000000  0.4398590000000  0.5283310000000 1.0
C      1  0.5089010000000  0.5310870000000  0.4392310000000 1.0
C      1  0.4229400000000  0.4516180000000  0.4296030000000 1.0
C      1  0.5106120000000  0.3889070000000  0.4686120000000 1.0
C      1  0.4259110000000  0.5687320000000  0.4590260000000 1.0
C      1  0.4776920000000  0.4431360000000  0.5195780000000 1.0
C      1  0.5118790000000  0.6069940000000  0.5332420000000 1.0
C      1  0.4356570000000  0.5036520000000  0.4041180000000 1.0
C      1  0.4355920000000  0.4122510000000  0.4698930000000 1.0
C      1  0.5417080000000  0.5008140000000  0.4904060000000 1.0
C      1  0.5794960000000  0.4837280000000  0.5151080000000 1.0
C      1  0.6091260000000  0.4736770000000  0.5586290000000 1.0
C      1  0.5196940000000  0.5115810000000  0.5109500000000 1.0
C      1  0.4482520000000  0.5597050000000  0.4106680000000 1.0
C      1  0.4838620000000  0.5968880000000  0.5723140000000 1.0
C      1  0.4762130000000  0.4048570000000  0.5535810000000 1.0
C      1  0.6094840000000  0.4949560000000  0.4827720000000 1.0
C      1  0.5416180000000  0.5435310000000  0.4738290000000 1.0
C      1  0.3888910000000  0.4853910000000  0.5564520000000 1.0
C      1  0.4679500000000  0.4927300000000  0.4437750000000 1.0
C      1  0.5911660000000  0.5666150000000  0.5234270000000 1.0
C      1  0.4923720000000  0.5647250000000  0.5067350000000 1.0
C      1  0.4607270000000  0.5214730000000  0.5290890000000 1.0
C      1  0.5664900000000  0.5066010000000  0.5035960000000 1.0
C      1  0.4273920000000  0.5037730000000  0.5794560000000 1.0
C      1  0.4968940000000  0.3826060000000  0.5520940000000 1.0
C      1  0.3921220000000  0.5065480000000  0.5347540000000 1.0
C      1  0.4162270000000  0.4723730000000  0.4481520000000 1.0
C      1  0.4112950000000  0.5486450000000  0.4775010000000 1.0
END
