TITL C-883726-8501-446 10.5429814627738 125000 -15377.3862866371 0 0 105 (C1) n - 1
REM
REM in /home/nfs/bkarasulu/CARBON/AIRSS/Generating-Clusters/ReaxFF-fromJPCA2015/Units_Real/with-SteepDescent/Only-C1/SD-CG/Try1-3A/FIRE-CG
REM
REM
REM
REM
REM
REM ./C.cell (11c1c37f851c82e70ff6c80c92926a4b)
REM
REM compiler GCC version 9.2.1 20190827 (Red Hat 9.2.1-1)
REM options -cpp -mtune=generic -march=x86-64 -g -O0 -fpre-include=/usr/include/finclude/math-vector-fortran.h
REM seed -123417187 -1895482065 343152464 -1181298930 -369009423 998801578 172512146 381975551 872393391 547929375 837545020 -82758655 1519682481 1844482966 449603949 988856844 827044414 623863380 -418600554 1057526544 -846752036 -1049482888 1950725298 1178662098 -2109396507 -259789827 -841694213 340051009 -2002914250 405663064 -1888249729 1307727968 913918756
REM
CELL 1.54180   50.00000   50.00000   50.00000   90.00000   90.00000   90.00000
LATT -1
SFAC C  
C      1  0.5201350000000  0.5271260000000  0.4567690000000 1.0
C      1  0.4600760000000  0.5102880000000  0.5866780000000 1.0
C      1  0.5271110000000  0.5468460000000  0.5636060000000 1.0
C      1  0.4865240000000  0.4125560000000  0.5397420000000 1.0
C      1  0.5131240000000  0.5500210000000  0.4318630000000 1.0
C      1  0.4671780000000  0.4787530000000  0.4853880000000 1.0
C      1  0.5518120000000  0.4699310000000  0.4589130000000 1.0
C      1  0.4931300000000  0.5006330000000  0.5454690000000 1.0
C      1  0.5424710000000  0.5571060000000  0.5391830000000 1.0
C      1  0.5846390000000  0.5223390000000  0.4890310000000 1.0
C      1  0.4224340000000  0.4764840000000  0.5110080000000 1.0
C      1  0.5085750000000  0.4820740000000  0.4002330000000 1.0
C      1  0.4976770000000  0.5081480000000  0.4528610000000 1.0
C      1  0.4342780000000  0.4539080000000  0.4972230000000 1.0
C      1  0.4505960000000  0.4387110000000  0.5196940000000 1.0
C      1  0.4926820000000  0.5751530000000  0.5485240000000 1.0
C      1  0.5425650000000  0.4793950000000  0.5251410000000 1.0
C      1  0.5171350000000  0.4464210000000  0.5570130000000 1.0
C      1  0.4711640000000  0.4336440000000  0.4664550000000 1.0
C      1  0.4900460000000  0.5509540000000  0.5324560000000 1.0
C      1  0.5731480000000  0.5460820000000  0.4788370000000 1.0
C      1  0.5919530000000  0.4967260000000  0.4784540000000 1.0
C      1  0.5694490000000  0.5182550000000  0.5522030000000 1.0
C      1  0.5571050000000  0.5050360000000  0.5737970000000 1.0
C      1  0.4477120000000  0.5215990000000  0.4623700000000 1.0
C      1  0.5410740000000  0.5137520000000  0.4163900000000 1.0
C      1  0.5097130000000  0.5080000000000  0.5242640000000 1.0
C      1  0.4364260000000  0.5251650000000  0.5102070000000 1.0
C      1  0.4769380000000  0.4745460000000  0.5440240000000 1.0
C      1  0.4814830000000  0.4656760000000  0.5911020000000 1.0
C      1  0.4449650000000  0.4707000000000  0.5571210000000 1.0
C      1  0.4588290000000  0.4805660000000  0.5843400000000 1.0
C      1  0.4632220000000  0.4752490000000  0.4193270000000 1.0
C      1  0.4240470000000  0.5141010000000  0.5496240000000 1.0
C      1  0.4535370000000  0.5699900000000  0.5140140000000 1.0
C      1  0.5596170000000  0.4765390000000  0.5620960000000 1.0
C      1  0.5395570000000  0.4804680000000  0.4811180000000 1.0
C      1  0.4791340000000  0.5227190000000  0.5000560000000 1.0
C      1  0.5901570000000  0.4695650000000  0.4897840000000 1.0
C      1  0.5359150000000  0.5251290000000  0.5743970000000 1.0
C      1  0.4993040000000  0.5467260000000  0.5796860000000 1.0
C      1  0.4864260000000  0.5233640000000  0.5921470000000 1.0
C      1  0.4522860000000  0.4542360000000  0.4742610000000 1.0
C      1  0.5452530000000  0.5015820000000  0.5040960000000 1.0
C      1  0.5139900000000  0.4891740000000  0.4383000000000 1.0
C      1  0.4499580000000  0.5532240000000  0.5624520000000 1.0
C      1  0.5330800000000  0.4841780000000  0.4156830000000 1.0
C      1  0.4870580000000  0.4332090000000  0.4426100000000 1.0
C      1  0.4274350000000  0.4873090000000  0.5401680000000 1.0
C      1  0.5122090000000  0.4708410000000  0.4857210000000 1.0
C      1  0.5455080000000  0.4300000000000  0.4752670000000 1.0
C      1  0.4705740000000  0.4162100000000  0.5155950000000 1.0
C      1  0.5335000000000  0.4517550000000  0.4418070000000 1.0
C      1  0.5167450000000  0.4275160000000  0.4456020000000 1.0
C      1  0.4711850000000  0.4991490000000  0.4034540000000 1.0
C      1  0.5747400000000  0.4555280000000  0.5104150000000 1.0
C      1  0.4991170000000  0.5088590000000  0.3971280000000 1.0
C      1  0.4422480000000  0.4915950000000  0.4338360000000 1.0
C      1  0.4925760000000  0.5980110000000  0.5293990000000 1.0
C      1  0.5694960000000  0.5204410000000  0.5110930000000 1.0
C      1  0.4911840000000  0.5619880000000  0.4738870000000 1.0
C      1  0.5311420000000  0.4195070000000  0.5150320000000 1.0
C      1  0.5349800000000  0.5677850000000  0.4740160000000 1.0
C      1  0.5475820000000  0.5214300000000  0.4439470000000 1.0
C      1  0.4539300000000  0.5153010000000  0.4207630000000 1.0
C      1  0.5379100000000  0.5725500000000  0.5152200000000 1.0
C      1  0.4928000000000  0.5886810000000  0.4890000000000 1.0
C      1  0.5163620000000  0.5440540000000  0.4800750000000 1.0
C      1  0.5272810000000  0.4098380000000  0.4669390000000 1.0
C      1  0.4375180000000  0.5596930000000  0.5365150000000 1.0
C      1  0.5150740000000  0.4083690000000  0.4936880000000 1.0
C      1  0.5078940000000  0.4657760000000  0.4410110000000 1.0
C      1  0.4870010000000  0.5537720000000  0.4457130000000 1.0
C      1  0.5540960000000  0.4352710000000  0.5015970000000 1.0
C      1  0.4447410000000  0.4407190000000  0.5496640000000 1.0
C      1  0.4417120000000  0.5263140000000  0.5702570000000 1.0
C      1  0.4646710000000  0.4221250000000  0.5552850000000 1.0
C      1  0.4623780000000  0.5147580000000  0.5222110000000 1.0
C      1  0.5660090000000  0.5395410000000  0.5341580000000 1.0
C      1  0.4303700000000  0.4984420000000  0.4605000000000 1.0
C      1  0.5149800000000  0.4240940000000  0.5392530000000 1.0
C      1  0.5394120000000  0.5623170000000  0.4457370000000 1.0
C      1  0.4711000000000  0.5931900000000  0.5091010000000 1.0
C      1  0.5566380000000  0.5667100000000  0.4929100000000 1.0
C      1  0.5132190000000  0.5908740000000  0.5097720000000 1.0
C      1  0.4181870000000  0.4892990000000  0.4863150000000 1.0
C      1  0.4765440000000  0.5641200000000  0.5704540000000 1.0
C      1  0.4988210000000  0.4523220000000  0.5037320000000 1.0
C      1  0.4752640000000  0.4633870000000  0.5158970000000 1.0
C      1  0.4884060000000  0.4248220000000  0.4926630000000 1.0
C      1  0.4765580000000  0.5521590000000  0.5048310000000 1.0
C      1  0.4191690000000  0.5367570000000  0.5302500000000 1.0
C      1  0.5174640000000  0.5286680000000  0.4099690000000 1.0
C      1  0.4860790000000  0.4572260000000  0.4248560000000 1.0
C      1  0.5802860000000  0.4751940000000  0.4626860000000 1.0
C      1  0.5699750000000  0.4733700000000  0.5336870000000 1.0
C      1  0.4781230000000  0.5264850000000  0.5439570000000 1.0
C      1  0.4165890000000  0.5131000000000  0.4961820000000 1.0
C      1  0.4915540000000  0.4847160000000  0.4701380000000 1.0
C      1  0.4618730000000  0.5080190000000  0.4831870000000 1.0
C      1  0.4698840000000  0.5294760000000  0.4429860000000 1.0
C      1  0.5323110000000  0.4715950000000  0.5518130000000 1.0
C      1  0.5624750000000  0.5454120000000  0.4508670000000 1.0
C      1  0.4911460000000  0.4578320000000  0.5668960000000 1.0
C      1  0.5192840000000  0.5196750000000  0.5028870000000 1.0
END
