TITL C-884134-5972-456 56.861423314135 125000 -18013.7119366708 0 0 121 (C1) n - 1
REM
REM in /home/nfs/bkarasulu/CARBON/AIRSS/Generating-Clusters/ReaxFF-fromJPCA2015/Units_Real/with-SteepDescent/Only-C1/SD-CG/Try1-3A/FIRE-CG
REM
REM
REM
REM
REM
REM ./C.cell (11c1c37f851c82e70ff6c80c92926a4b)
REM
REM compiler GCC version 9.2.1 20190827 (Red Hat 9.2.1-1)
REM options -cpp -mtune=generic -march=x86-64 -g -O0 -fpre-include=/usr/include/finclude/math-vector-fortran.h
REM seed -316110799 832374092 109178207 -2009707113 -2048984605 -2088613773 -2139391384 -46908352 -1518495380 -196051355 717494842 294902795 1500766320 -1934715552 -1566876471 1956175899 -2102643658 -1477892674 235773277 2137519073 -1316205647 -1926109139 375826667 1536674092 -1514760421 -1319553642 -538415453 -919731123 494288301 -1743411250 -2136325697 -1256312110 -1704994034
REM
CELL 1.54180   50.00000   50.00000   50.00000   90.00000   90.00000   90.00000
LATT -1
SFAC C  
C      1  0.5505920000000  0.5565650000000  0.4399850000000 1.0
C      1  0.5304920000000  0.4632460000000  0.5900510000000 1.0
C      1  0.4900820000000  0.4770930000000  0.5312310000000 1.0
C      1  0.4193230000000  0.5156790000000  0.4983220000000 1.0
C      1  0.4803080000000  0.4514990000000  0.5215230000000 1.0
C      1  0.4698150000000  0.4272210000000  0.4496130000000 1.0
C      1  0.4200380000000  0.5241040000000  0.5480270000000 1.0
C      1  0.4882060000000  0.5824150000000  0.4898210000000 1.0
C      1  0.4947720000000  0.5775880000000  0.5431240000000 1.0
C      1  0.4854830000000  0.5132350000000  0.5952700000000 1.0
C      1  0.5428930000000  0.4956950000000  0.5425070000000 1.0
C      1  0.4264800000000  0.4825260000000  0.4411980000000 1.0
C      1  0.4464270000000  0.5212170000000  0.4291740000000 1.0
C      1  0.4454850000000  0.5248440000000  0.5659310000000 1.0
C      1  0.5782200000000  0.4961180000000  0.4361060000000 1.0
C      1  0.5146500000000  0.5359320000000  0.5751490000000 1.0
C      1  0.5805600000000  0.4833080000000  0.5210140000000 1.0
C      1  0.4539370000000  0.4745810000000  0.5900380000000 1.0
C      1  0.5320380000000  0.5324750000000  0.4296490000000 1.0
C      1  0.4963380000000  0.4755040000000  0.4453390000000 1.0
C      1  0.4280330000000  0.5241290000000  0.4518690000000 1.0
C      1  0.4884220000000  0.5526420000000  0.4231450000000 1.0
C      1  0.4483940000000  0.4470250000000  0.4478650000000 1.0
C      1  0.5183800000000  0.5327130000000  0.4556720000000 1.0
C      1  0.5378820000000  0.5067350000000  0.5182110000000 1.0
C      1  0.4590280000000  0.5615140000000  0.4523140000000 1.0
C      1  0.4949880000000  0.4295270000000  0.4355530000000 1.0
C      1  0.4893190000000  0.5043000000000  0.4119530000000 1.0
C      1  0.4483190000000  0.5185560000000  0.4917830000000 1.0
C      1  0.5118690000000  0.5368900000000  0.5456780000000 1.0
C      1  0.5184480000000  0.4555420000000  0.5063080000000 1.0
C      1  0.5517030000000  0.4468430000000  0.5394820000000 1.0
C      1  0.5294560000000  0.5332900000000  0.5224550000000 1.0
C      1  0.5157760000000  0.5851860000000  0.4994790000000 1.0
C      1  0.5603150000000  0.5462710000000  0.5464900000000 1.0
C      1  0.5377650000000  0.5829860000000  0.4798510000000 1.0
C      1  0.5539780000000  0.4656130000000  0.4232010000000 1.0
C      1  0.5450040000000  0.5728640000000  0.5432700000000 1.0
C      1  0.5438280000000  0.4423020000000  0.5116310000000 1.0
C      1  0.4569180000000  0.4144540000000  0.4949520000000 1.0
C      1  0.5212790000000  0.4251580000000  0.4485510000000 1.0
C      1  0.4705490000000  0.5102720000000  0.4719240000000 1.0
C      1  0.4409760000000  0.4844870000000  0.5258750000000 1.0
C      1  0.5607100000000  0.5807370000000  0.5222890000000 1.0
C      1  0.5025540000000  0.5303620000000  0.4131450000000 1.0
C      1  0.5613700000000  0.4522770000000  0.4491010000000 1.0
C      1  0.5160540000000  0.4911790000000  0.4075800000000 1.0
C      1  0.5063700000000  0.4105990000000  0.5333010000000 1.0
C      1  0.4200210000000  0.4617520000000  0.4964090000000 1.0
C      1  0.4747210000000  0.4923780000000  0.5966290000000 1.0
C      1  0.4167780000000  0.4966240000000  0.5400890000000 1.0
C      1  0.5978200000000  0.5191660000000  0.4921480000000 1.0
C      1  0.5004490000000  0.4557690000000  0.4235390000000 1.0
C      1  0.5261610000000  0.4644460000000  0.4128210000000 1.0
C      1  0.5546960000000  0.4728100000000  0.5778040000000 1.0
C      1  0.5332660000000  0.5754490000000  0.4519410000000 1.0
C      1  0.4560870000000  0.4517160000000  0.5704480000000 1.0
C      1  0.5341290000000  0.5241290000000  0.4774540000000 1.0
C      1  0.5042840000000  0.4044880000000  0.4811490000000 1.0
C      1  0.4331170000000  0.4543880000000  0.5523020000000 1.0
C      1  0.4107630000000  0.4891180000000  0.4891360000000 1.0
C      1  0.4694580000000  0.5704410000000  0.5538550000000 1.0
C      1  0.4638820000000  0.5488050000000  0.5735980000000 1.0
C      1  0.5331330000000  0.4511050000000  0.4557670000000 1.0
C      1  0.4372120000000  0.4959610000000  0.5805260000000 1.0
C      1  0.5518380000000  0.5218780000000  0.5600300000000 1.0
C      1  0.5176580000000  0.4799760000000  0.5401850000000 1.0
C      1  0.4746060000000  0.4098620000000  0.4741290000000 1.0
C      1  0.4926020000000  0.5314600000000  0.5044000000000 1.0
C      1  0.5788670000000  0.5650840000000  0.5077660000000 1.0
C      1  0.4823230000000  0.4379140000000  0.5715070000000 1.0
C      1  0.4861050000000  0.5339250000000  0.5330700000000 1.0
C      1  0.5020330000000  0.4345670000000  0.5140410000000 1.0
C      1  0.5705600000000  0.4500660000000  0.4771210000000 1.0
C      1  0.4134640000000  0.4992920000000  0.4602170000000 1.0
C      1  0.4911130000000  0.5061270000000  0.4911070000000 1.0
C      1  0.4597450000000  0.4717560000000  0.4808540000000 1.0
C      1  0.5782780000000  0.5393890000000  0.5238800000000 1.0
C      1  0.5656010000000  0.5719530000000  0.4821780000000 1.0
C      1  0.5193920000000  0.4759740000000  0.4616660000000 1.0
C      1  0.5416470000000  0.4916980000000  0.5940420000000 1.0
C      1  0.5197800000000  0.5415820000000  0.4961740000000 1.0
C      1  0.5247480000000  0.4532830000000  0.5492830000000 1.0
C      1  0.4836900000000  0.4152760000000  0.5515680000000 1.0
C      1  0.4877590000000  0.5398960000000  0.5881060000000 1.0
C      1  0.4665610000000  0.4903520000000  0.5383140000000 1.0
C      1  0.4424180000000  0.4221470000000  0.5175790000000 1.0
C      1  0.5926420000000  0.5051570000000  0.4521660000000 1.0
C      1  0.5614200000000  0.4924630000000  0.4182320000000 1.0
C      1  0.4615500000000  0.4972210000000  0.4208400000000 1.0
C      1  0.5309220000000  0.4129370000000  0.4739140000000 1.0
C      1  0.4837150000000  0.5718470000000  0.4640960000000 1.0
C      1  0.5135490000000  0.4821820000000  0.4892540000000 1.0
C      1  0.4365760000000  0.5490500000000  0.4669600000000 1.0
C      1  0.4726430000000  0.4847650000000  0.4586280000000 1.0
C      1  0.5659200000000  0.4719930000000  0.5452810000000 1.0
C      1  0.4150470000000  0.5347580000000  0.5219530000000 1.0
C      1  0.5378360000000  0.5199890000000  0.5848510000000 1.0
C      1  0.5104080000000  0.4483630000000  0.5743640000000 1.0
C      1  0.4604530000000  0.5473810000000  0.4267730000000 1.0
C      1  0.4211940000000  0.4790970000000  0.5633070000000 1.0
C      1  0.4504440000000  0.4910990000000  0.5002810000000 1.0
C      1  0.4644460000000  0.4311430000000  0.5355810000000 1.0
C      1  0.4610910000000  0.5804900000000  0.5025240000000 1.0
C      1  0.5891360000000  0.5311120000000  0.4660410000000 1.0
C      1  0.4388220000000  0.4519240000000  0.4756800000000 1.0
C      1  0.4477350000000  0.4706700000000  0.4281500000000 1.0
C      1  0.5056800000000  0.5602960000000  0.4493880000000 1.0
C      1  0.5382330000000  0.5092550000000  0.4139450000000 1.0
C      1  0.4517030000000  0.5749880000000  0.5295780000000 1.0
C      1  0.5985400000000  0.4925440000000  0.4795210000000 1.0
C      1  0.4662210000000  0.5174130000000  0.5467640000000 1.0
C      1  0.5875260000000  0.5120330000000  0.5186690000000 1.0
C      1  0.5836680000000  0.4721740000000  0.4940440000000 1.0
C      1  0.4270680000000  0.4478280000000  0.5228080000000 1.0
C      1  0.4269130000000  0.5617640000000  0.5182350000000 1.0
C      1  0.5539580000000  0.4289170000000  0.4878020000000 1.0
C      1  0.5369690000000  0.4982640000000  0.4910920000000 1.0
C      1  0.5718520000000  0.5537620000000  0.4595890000000 1.0
C      1  0.4366440000000  0.5667010000000  0.4911360000000 1.0
C      1  0.5188840000000  0.5831190000000  0.5297220000000 1.0
END
