TITL C-883728-9229-323 -0.808834698866083 125000 -28677.9491218402 0 0 191 (C1) n - 1
REM
REM in /home/nfs/bkarasulu/CARBON/AIRSS/Generating-Clusters/ReaxFF-fromJPCA2015/Units_Real/with-SteepDescent/Only-C1/SD-CG/Try1-3A/FIRE-CG
REM
REM
REM
REM
REM
REM ./C.cell (11c1c37f851c82e70ff6c80c92926a4b)
REM
REM compiler GCC version 9.2.1 20190827 (Red Hat 9.2.1-1)
REM options -cpp -mtune=generic -march=x86-64 -g -O0 -fpre-include=/usr/include/finclude/math-vector-fortran.h
REM seed 743433571 -213599116 434170846 -1853554034 -1680986211 -220335989 -29946810 666088533 1489586071 -977811967 631505491 -1551693811 -1242215638 390639415 1201211461 -962789121 1898939872 -865975763 -1845813000 -1341545725 1258918095 -629496043 1807728654 337320899 404062410 1658900438 -1759450786 590923011 -164785453 -1501994806 1683760925 1855832707 -462295853
REM
CELL 1.54180   50.00000   50.00000   50.00000   90.00000   90.00000   90.00000
LATT -1
SFAC C  
C      1  0.4032520000000  0.4772770000000  0.5095330000000 1.0
C      1  0.4924040000000  0.4347270000000  0.4961260000000 1.0
C      1  0.5442230000000  0.4851460000000  0.4772260000000 1.0
C      1  0.4892570000000  0.5857740000000  0.4532970000000 1.0
C      1  0.5305430000000  0.5785640000000  0.5478010000000 1.0
C      1  0.4913440000000  0.6109920000000  0.5278460000000 1.0
C      1  0.5781530000000  0.5778870000000  0.4735090000000 1.0
C      1  0.4120040000000  0.5657140000000  0.4709890000000 1.0
C      1  0.4008570000000  0.4746700000000  0.5359830000000 1.0
C      1  0.5432600000000  0.4832570000000  0.4241430000000 1.0
C      1  0.5627570000000  0.4077740000000  0.5058410000000 1.0
C      1  0.4715830000000  0.5801520000000  0.4743940000000 1.0
C      1  0.4689790000000  0.5491700000000  0.3971140000000 1.0
C      1  0.5323580000000  0.5219280000000  0.3979280000000 1.0
C      1  0.4106720000000  0.5110130000000  0.4228220000000 1.0
C      1  0.5957640000000  0.4808950000000  0.5646630000000 1.0
C      1  0.4355360000000  0.5085400000000  0.4049510000000 1.0
C      1  0.4282310000000  0.5084330000000  0.5658630000000 1.0
C      1  0.4801730000000  0.3936980000000  0.5386900000000 1.0
C      1  0.4858850000000  0.4328700000000  0.4274140000000 1.0
C      1  0.4750180000000  0.5596650000000  0.5228050000000 1.0
C      1  0.3924890000000  0.5263900000000  0.4907370000000 1.0
C      1  0.4474350000000  0.5165890000000  0.5096620000000 1.0
C      1  0.5353540000000  0.6024690000000  0.4611280000000 1.0
C      1  0.4046890000000  0.4480840000000  0.5390450000000 1.0
C      1  0.5581720000000  0.4415340000000  0.4539610000000 1.0
C      1  0.5137990000000  0.5018510000000  0.3888240000000 1.0
C      1  0.5150720000000  0.4810020000000  0.4270920000000 1.0
C      1  0.6203890000000  0.4827080000000  0.5031480000000 1.0
C      1  0.5391320000000  0.4279540000000  0.5729710000000 1.0
C      1  0.5867670000000  0.5028020000000  0.5479810000000 1.0
C      1  0.4035600000000  0.4852540000000  0.4370120000000 1.0
C      1  0.4613820000000  0.5203960000000  0.3970320000000 1.0
C      1  0.4972480000000  0.5435120000000  0.4008870000000 1.0
C      1  0.4540850000000  0.4092630000000  0.5285440000000 1.0
C      1  0.5632930000000  0.5290090000000  0.5124450000000 1.0
C      1  0.5255590000000  0.4961090000000  0.5208570000000 1.0
C      1  0.4867160000000  0.5645230000000  0.4960410000000 1.0
C      1  0.4369570000000  0.4013190000000  0.5037360000000 1.0
C      1  0.4946900000000  0.4151340000000  0.5898800000000 1.0
C      1  0.5070290000000  0.4640740000000  0.4056540000000 1.0
C      1  0.4416930000000  0.5660290000000  0.4337970000000 1.0
C      1  0.4464910000000  0.4921340000000  0.5246050000000 1.0
C      1  0.5787780000000  0.5599010000000  0.5458000000000 1.0
C      1  0.5155180000000  0.4544660000000  0.6099310000000 1.0
C      1  0.5217940000000  0.5526750000000  0.5513980000000 1.0
C      1  0.6095870000000  0.5096340000000  0.4965350000000 1.0
C      1  0.6088450000000  0.5516270000000  0.4976720000000 1.0
C      1  0.5757000000000  0.5568290000000  0.4520560000000 1.0
C      1  0.5177520000000  0.4393100000000  0.5094760000000 1.0
C      1  0.4251710000000  0.6074800000000  0.4899640000000 1.0
C      1  0.5317530000000  0.5373270000000  0.4762320000000 1.0
C      1  0.4150410000000  0.4272870000000  0.5583170000000 1.0
C      1  0.5457580000000  0.4320980000000  0.5083650000000 1.0
C      1  0.4751590000000  0.4994110000000  0.4618720000000 1.0
C      1  0.5001730000000  0.4544670000000  0.5519660000000 1.0
C      1  0.4867970000000  0.3926750000000  0.4673700000000 1.0
C      1  0.5573970000000  0.5917380000000  0.5333550000000 1.0
C      1  0.4305700000000  0.5643230000000  0.5512820000000 1.0
C      1  0.5936190000000  0.4169930000000  0.5002170000000 1.0
C      1  0.4834590000000  0.5168760000000  0.5397310000000 1.0
C      1  0.5124180000000  0.4641330000000  0.5250530000000 1.0
C      1  0.4403820000000  0.4591940000000  0.5749970000000 1.0
C      1  0.4101820000000  0.5472220000000  0.5394380000000 1.0
C      1  0.5147290000000  0.5836230000000  0.4180190000000 1.0
C      1  0.4955140000000  0.5015340000000  0.4353300000000 1.0
C      1  0.5363320000000  0.5842530000000  0.4374070000000 1.0
C      1  0.4912390000000  0.5141260000000  0.4851540000000 1.0
C      1  0.5438810000000  0.5464360000000  0.4082060000000 1.0
C      1  0.4295910000000  0.4434220000000  0.4395610000000 1.0
C      1  0.4746890000000  0.5738030000000  0.5481410000000 1.0
C      1  0.4351690000000  0.4070300000000  0.4755220000000 1.0
C      1  0.5927650000000  0.5755310000000  0.4982710000000 1.0
C      1  0.4633660000000  0.5715040000000  0.4147520000000 1.0
C      1  0.4507470000000  0.5150650000000  0.4590150000000 1.0
C      1  0.5233380000000  0.4654830000000  0.4708760000000 1.0
C      1  0.5349970000000  0.5720960000000  0.5049460000000 1.0
C      1  0.5771800000000  0.4859600000000  0.5877020000000 1.0
C      1  0.5118080000000  0.6153260000000  0.4735080000000 1.0
C      1  0.4210620000000  0.4659980000000  0.4237060000000 1.0
C      1  0.5838610000000  0.5808770000000  0.5275980000000 1.0
C      1  0.5297200000000  0.4442900000000  0.4529190000000 1.0
C      1  0.4942510000000  0.4621220000000  0.4816870000000 1.0
C      1  0.4609050000000  0.5385280000000  0.5928690000000 1.0
C      1  0.4737680000000  0.4713130000000  0.4642630000000 1.0
C      1  0.4876010000000  0.3985370000000  0.5659930000000 1.0
C      1  0.5624330000000  0.5105850000000  0.5893760000000 1.0
C      1  0.4988630000000  0.5289290000000  0.4253390000000 1.0
C      1  0.4616310000000  0.4774090000000  0.5667410000000 1.0
C      1  0.4019110000000  0.5269040000000  0.4429530000000 1.0
C      1  0.4872010000000  0.4631890000000  0.6032030000000 1.0
C      1  0.4345870000000  0.6078730000000  0.4632560000000 1.0
C      1  0.5923860000000  0.4787850000000  0.4622380000000 1.0
C      1  0.4704810000000  0.4573610000000  0.5470700000000 1.0
C      1  0.5086580000000  0.5517320000000  0.6040510000000 1.0
C      1  0.5583290000000  0.5989720000000  0.4785120000000 1.0
C      1  0.4214220000000  0.5305500000000  0.5834680000000 1.0
C      1  0.4181770000000  0.4521420000000  0.4970680000000 1.0
C      1  0.4369520000000  0.5490830000000  0.4767500000000 1.0
C      1  0.4389230000000  0.5220350000000  0.4840470000000 1.0
C      1  0.5091290000000  0.5260850000000  0.6139660000000 1.0
C      1  0.4655180000000  0.4322540000000  0.5064980000000 1.0
C      1  0.6140290000000  0.4603190000000  0.5225670000000 1.0
C      1  0.5626910000000  0.5375350000000  0.5434420000000 1.0
C      1  0.4752270000000  0.4353570000000  0.5946140000000 1.0
C      1  0.5137650000000  0.4250150000000  0.4342850000000 1.0
C      1  0.5206560000000  0.5619570000000  0.3993200000000 1.0
C      1  0.5624540000000  0.4441130000000  0.5276460000000 1.0
C      1  0.5106760000000  0.4001620000000  0.4519230000000 1.0
C      1  0.6018490000000  0.4565500000000  0.5491920000000 1.0
C      1  0.4612780000000  0.4049180000000  0.4615550000000 1.0
C      1  0.4822860000000  0.5004250000000  0.3921680000000 1.0
C      1  0.4784660000000  0.5190640000000  0.6091720000000 1.0
C      1  0.4171870000000  0.5949760000000  0.5137480000000 1.0
C      1  0.6118610000000  0.4664140000000  0.4807000000000 1.0
C      1  0.5042770000000  0.3874110000000  0.4911570000000 1.0
C      1  0.4251200000000  0.5834680000000  0.4497990000000 1.0
C      1  0.5094560000000  0.5249040000000  0.5557110000000 1.0
C      1  0.4943640000000  0.4775270000000  0.5772560000000 1.0
C      1  0.5043560000000  0.5700760000000  0.5903510000000 1.0
C      1  0.5491350000000  0.5983510000000  0.5066420000000 1.0
C      1  0.5858150000000  0.5044740000000  0.4477850000000 1.0
C      1  0.5304030000000  0.5032480000000  0.5470300000000 1.0
C      1  0.4395410000000  0.4806330000000  0.4052000000000 1.0
C      1  0.5132490000000  0.5190470000000  0.4462270000000 1.0
C      1  0.5548060000000  0.3982210000000  0.4790570000000 1.0
C      1  0.5096140000000  0.5808140000000  0.5017380000000 1.0
C      1  0.5233880000000  0.4064230000000  0.5360920000000 1.0
C      1  0.5627510000000  0.4160770000000  0.5583610000000 1.0
C      1  0.4062560000000  0.5253530000000  0.5582760000000 1.0
C      1  0.4020640000000  0.4511920000000  0.4733080000000 1.0
C      1  0.5541940000000  0.5612970000000  0.4331800000000 1.0
C      1  0.4943810000000  0.5860950000000  0.5689140000000 1.0
C      1  0.4408280000000  0.5525270000000  0.5788960000000 1.0
C      1  0.4136200000000  0.4548540000000  0.5662500000000 1.0
C      1  0.5403870000000  0.4794790000000  0.5597310000000 1.0
C      1  0.5829030000000  0.4338770000000  0.5461760000000 1.0
C      1  0.4508990000000  0.4318300000000  0.5791770000000 1.0
C      1  0.3969890000000  0.4796910000000  0.4650760000000 1.0
C      1  0.5212060000000  0.4285850000000  0.5964890000000 1.0
C      1  0.4536610000000  0.5010670000000  0.5517030000000 1.0
C      1  0.5093180000000  0.6004960000000  0.5485690000000 1.0
C      1  0.6089790000000  0.4421850000000  0.4998720000000 1.0
C      1  0.5512880000000  0.5007240000000  0.5071920000000 1.0
C      1  0.5720080000000  0.4910860000000  0.5254950000000 1.0
C      1  0.5660580000000  0.4669360000000  0.4670440000000 1.0
C      1  0.5554850000000  0.4704380000000  0.5365460000000 1.0
C      1  0.3934100000000  0.5402250000000  0.4648180000000 1.0
C      1  0.4371820000000  0.5885130000000  0.5365290000000 1.0
C      1  0.4718810000000  0.4920770000000  0.6152960000000 1.0
C      1  0.5747650000000  0.5240860000000  0.5665270000000 1.0
C      1  0.4895850000000  0.4756360000000  0.5099180000000 1.0
C      1  0.5304460000000  0.5060810000000  0.6009340000000 1.0
C      1  0.5468520000000  0.5472510000000  0.4974370000000 1.0
C      1  0.4664330000000  0.4284740000000  0.4473590000000 1.0
C      1  0.4865320000000  0.5862220000000  0.4259500000000 1.0
C      1  0.4875760000000  0.6138330000000  0.4567960000000 1.0
C      1  0.3986230000000  0.5471410000000  0.5117070000000 1.0
C      1  0.5277320000000  0.3927500000000  0.4742450000000 1.0
C      1  0.5170230000000  0.4286820000000  0.5546540000000 1.0
C      1  0.4501710000000  0.5439280000000  0.4518370000000 1.0
C      1  0.5338580000000  0.4764570000000  0.6086220000000 1.0
C      1  0.5027980000000  0.3922670000000  0.5201200000000 1.0
C      1  0.4645970000000  0.4701720000000  0.5224560000000 1.0
C      1  0.5918350000000  0.4154440000000  0.4734130000000 1.0
C      1  0.5385860000000  0.5135560000000  0.4586030000000 1.0
C      1  0.4979260000000  0.5045140000000  0.5130750000000 1.0
C      1  0.5085870000000  0.5029780000000  0.5805900000000 1.0
C      1  0.5948110000000  0.5295190000000  0.5118290000000 1.0
C      1  0.4411620000000  0.4162590000000  0.5557270000000 1.0
C      1  0.3949010000000  0.4974060000000  0.4881730000000 1.0
C      1  0.4652690000000  0.5986910000000  0.5364610000000 1.0
C      1  0.5031280000000  0.5394560000000  0.4817380000000 1.0
C      1  0.5926430000000  0.5322970000000  0.4551350000000 1.0
C      1  0.6135950000000  0.5315110000000  0.4755550000000 1.0
C      1  0.4811930000000  0.4505720000000  0.4051730000000 1.0
C      1  0.5686240000000  0.4135150000000  0.4578600000000 1.0
C      1  0.4630500000000  0.6082550000000  0.4735880000000 1.0
C      1  0.4460170000000  0.4466260000000  0.4914060000000 1.0
C      1  0.4167200000000  0.4290760000000  0.4610450000000 1.0
C      1  0.5387760000000  0.4340280000000  0.4102270000000 1.0
C      1  0.5061000000000  0.6098000000000  0.5020970000000 1.0
C      1  0.5521700000000  0.4015590000000  0.5354720000000 1.0
C      1  0.5516820000000  0.4706870000000  0.5862430000000 1.0
C      1  0.5470410000000  0.4600030000000  0.4025270000000 1.0
C      1  0.4678840000000  0.4760170000000  0.3983000000000 1.0
C      1  0.4643630000000  0.5335940000000  0.5258190000000 1.0
C      1  0.4032280000000  0.5728360000000  0.5002050000000 1.0
C      1  0.4542470000000  0.4513170000000  0.4613150000000 1.0
C      1  0.5586790000000  0.5038450000000  0.4376450000000 1.0
C      1  0.5258750000000  0.4749460000000  0.3859570000000 1.0
END
