TITL C-884133-6611-445 -1.67713933805876 125000 -7902.09205282555 0 0 54 (C1) n - 1
REM
REM in /home/nfs/bkarasulu/CARBON/AIRSS/Generating-Clusters/ReaxFF-fromJPCA2015/Units_Real/with-SteepDescent/Only-C1/SD-CG/Try1-3A/FIRE-CG
REM
REM
REM
REM
REM
REM ./C.cell (11c1c37f851c82e70ff6c80c92926a4b)
REM
REM compiler GCC version 9.2.1 20190827 (Red Hat 9.2.1-1)
REM options -cpp -mtune=generic -march=x86-64 -g -O0 -fpre-include=/usr/include/finclude/math-vector-fortran.h
REM seed 588728661 859168229 222908869 395448185 1743384500 -260878348 -1174223317 1455656699 -1341366753 1723150876 1761033704 728486440 -1580805466 288031246 -1420467328 1181778287 2015452301 1672700237 -1750016041 -765971981 653987392 -687536576 189959585 1067007978 687573158 -274600132 34285187 -1722567990 -1064035773 2097928326 315483476 -258846645 -883343979
REM
CELL 1.54180   50.00000   50.00000   50.00000   90.00000   90.00000   90.00000
LATT -1
SFAC C  
C      1  0.4320920000000  0.5122060000000  0.5199640000000 1.0
C      1  0.4917080000000  0.5538720000000  0.4520820000000 1.0
C      1  0.4305150000000  0.4583750000000  0.5279890000000 1.0
C      1  0.4970980000000  0.4515510000000  0.5469670000000 1.0
C      1  0.5275710000000  0.4740170000000  0.4593610000000 1.0
C      1  0.4820470000000  0.4535110000000  0.4660240000000 1.0
C      1  0.4548780000000  0.5429950000000  0.4898290000000 1.0
C      1  0.4800750000000  0.5089170000000  0.4772430000000 1.0
C      1  0.5234350000000  0.4627160000000  0.5481720000000 1.0
C      1  0.5072530000000  0.5454990000000  0.4311480000000 1.0
C      1  0.4678240000000  0.4270820000000  0.5141260000000 1.0
C      1  0.4538420000000  0.5327450000000  0.5172510000000 1.0
C      1  0.4957620000000  0.4370080000000  0.5217810000000 1.0
C      1  0.4754000000000  0.5377120000000  0.5375830000000 1.0
C      1  0.5654320000000  0.5032930000000  0.4467730000000 1.0
C      1  0.5096810000000  0.5070360000000  0.5699000000000 1.0
C      1  0.4753680000000  0.5611050000000  0.4750310000000 1.0
C      1  0.4460960000000  0.4448270000000  0.5068410000000 1.0
C      1  0.4451870000000  0.4692970000000  0.5504780000000 1.0
C      1  0.5303660000000  0.4900260000000  0.5577580000000 1.0
C      1  0.5359540000000  0.4576100000000  0.5217090000000 1.0
C      1  0.5551880000000  0.4792180000000  0.5198480000000 1.0
C      1  0.4757610000000  0.4731790000000  0.5516230000000 1.0
C      1  0.4276960000000  0.4867360000000  0.5364470000000 1.0
C      1  0.5334810000000  0.5436760000000  0.4469050000000 1.0
C      1  0.5158300000000  0.4474660000000  0.5026030000000 1.0
C      1  0.5060500000000  0.5163830000000  0.4810760000000 1.0
C      1  0.5536710000000  0.4843500000000  0.4666400000000 1.0
C      1  0.5788110000000  0.5613650000000  0.4933790000000 1.0
C      1  0.5163670000000  0.4926700000000  0.4376100000000 1.0
C      1  0.4720560000000  0.4884170000000  0.4971760000000 1.0
C      1  0.4840390000000  0.4885750000000  0.5228950000000 1.0
C      1  0.4460980000000  0.4746080000000  0.4602400000000 1.0
C      1  0.5096810000000  0.4568290000000  0.4754030000000 1.0
C      1  0.4283770000000  0.5073490000000  0.4928150000000 1.0
C      1  0.4848210000000  0.5229750000000  0.5619940000000 1.0
C      1  0.5074540000000  0.4994060000000  0.5175250000000 1.0
C      1  0.4984260000000  0.5536000000000  0.5343290000000 1.0
C      1  0.5597370000000  0.5323510000000  0.4505250000000 1.0
C      1  0.5595560000000  0.5260980000000  0.5304420000000 1.0
C      1  0.4556780000000  0.5244410000000  0.4671180000000 1.0
C      1  0.4359060000000  0.5017580000000  0.4660130000000 1.0
C      1  0.5526030000000  0.4987120000000  0.5409810000000 1.0
C      1  0.5399600000000  0.5466860000000  0.5321400000000 1.0
C      1  0.4589350000000  0.4633520000000  0.4840220000000 1.0
C      1  0.4832060000000  0.4958450000000  0.5711710000000 1.0
C      1  0.4690530000000  0.4670490000000  0.4431580000000 1.0
C      1  0.5242590000000  0.5217310000000  0.4300690000000 1.0
C      1  0.5254400000000  0.5099530000000  0.4986680000000 1.0
C      1  0.5220460000000  0.5620620000000  0.5330660000000 1.0
C      1  0.4918100000000  0.4823090000000  0.4368870000000 1.0
C      1  0.5565700000000  0.4967820000000  0.4951730000000 1.0
C      1  0.5711780000000  0.5221170000000  0.5038590000000 1.0
C      1  0.5726760000000  0.5405490000000  0.4801860000000 1.0
END
