TITL C-883732-77-475 -3.01354696803592 125000 -7948.14438690494 0 0 55 (C1) n - 1
REM
REM in /home/nfs/bkarasulu/CARBON/AIRSS/Generating-Clusters/ReaxFF-fromJPCA2015/Units_Real/with-SteepDescent/Only-C1/SD-CG/Try1-3A/FIRE-CG
REM
REM
REM
REM
REM
REM ./C.cell (11c1c37f851c82e70ff6c80c92926a4b)
REM
REM compiler GCC version 9.2.1 20190827 (Red Hat 9.2.1-1)
REM options -cpp -mtune=generic -march=x86-64 -g -O0 -fpre-include=/usr/include/finclude/math-vector-fortran.h
REM seed -1100584501 -186764463 -629364009 419939932 1722525520 -2094872338 4284585 1288355054 -430630977 -1394848002 1290902597 -421346667 1344022973 2041641033 1477521616 1282585076 -1015797695 -248009893 608261792 -1719760468 1996056128 1981729683 -2078666257 -312041995 -1033327795 -30048313 316701439 1984868723 2078603921 340883115 -1564691494 -2051803133 1265988124
REM
CELL 1.54180   50.00000   50.00000   50.00000   90.00000   90.00000   90.00000
LATT -1
SFAC C  
C      1  0.4274540000000  0.4929730000000  0.4991860000000 1.0
C      1  0.4677930000000  0.5423670000000  0.5300880000000 1.0
C      1  0.4480270000000  0.4894260000000  0.5340400000000 1.0
C      1  0.5098220000000  0.5291910000000  0.5566260000000 1.0
C      1  0.5451270000000  0.5023010000000  0.4479190000000 1.0
C      1  0.5145530000000  0.4344030000000  0.5092410000000 1.0
C      1  0.4511900000000  0.4452150000000  0.4826980000000 1.0
C      1  0.5044050000000  0.4693490000000  0.4537750000000 1.0
C      1  0.5435060000000  0.4662770000000  0.5255820000000 1.0
C      1  0.4785820000000  0.4328840000000  0.4806540000000 1.0
C      1  0.4946620000000  0.5475420000000  0.5389700000000 1.0
C      1  0.4795280000000  0.5288770000000  0.4264340000000 1.0
C      1  0.4949620000000  0.4865740000000  0.5279340000000 1.0
C      1  0.4298140000000  0.4722690000000  0.5182380000000 1.0
C      1  0.4581730000000  0.4672910000000  0.4670760000000 1.0
C      1  0.5602620000000  0.5177040000000  0.5369950000000 1.0
C      1  0.4573790000000  0.5312750000000  0.4447900000000 1.0
C      1  0.5053750000000  0.4937500000000  0.5759300000000 1.0
C      1  0.4939760000000  0.5358600000000  0.4830270000000 1.0
C      1  0.5004050000000  0.4498520000000  0.5542910000000 1.0
C      1  0.5740170000000  0.5305520000000  0.5135220000000 1.0
C      1  0.4469930000000  0.5592700000000  0.4832810000000 1.0
C      1  0.4691730000000  0.5059760000000  0.4387390000000 1.0
C      1  0.5439500000000  0.4579940000000  0.4744140000000 1.0
C      1  0.5650600000000  0.5174220000000  0.4632630000000 1.0
C      1  0.4584890000000  0.5141580000000  0.5191140000000 1.0
C      1  0.4591610000000  0.5620760000000  0.5108040000000 1.0
C      1  0.4711550000000  0.4719050000000  0.5386340000000 1.0
C      1  0.5399460000000  0.5301780000000  0.4552210000000 1.0
C      1  0.5739130000000  0.4855200000000  0.5045090000000 1.0
C      1  0.5192430000000  0.5460080000000  0.4958720000000 1.0
C      1  0.5392690000000  0.5336320000000  0.5523410000000 1.0
C      1  0.4824410000000  0.5019380000000  0.5088980000000 1.0
C      1  0.4757100000000  0.5590540000000  0.4867020000000 1.0
C      1  0.5319600000000  0.4766590000000  0.4553270000000 1.0
C      1  0.4376740000000  0.5158820000000  0.4921900000000 1.0
C      1  0.5022410000000  0.4686040000000  0.5739550000000 1.0
C      1  0.5182750000000  0.4526020000000  0.5316020000000 1.0
C      1  0.5364290000000  0.5519090000000  0.5313760000000 1.0
C      1  0.5018810000000  0.4440230000000  0.4664620000000 1.0
C      1  0.4687410000000  0.4436240000000  0.5283280000000 1.0
C      1  0.5132660000000  0.5625160000000  0.5192600000000 1.0
C      1  0.4410870000000  0.5344600000000  0.4695670000000 1.0
C      1  0.4970020000000  0.5431860000000  0.4411790000000 1.0
C      1  0.5616200000000  0.4882640000000  0.5307160000000 1.0
C      1  0.5253000000000  0.5612770000000  0.4792640000000 1.0
C      1  0.5256790000000  0.4401990000000  0.4834070000000 1.0
C      1  0.4887760000000  0.5073910000000  0.4837970000000 1.0
C      1  0.4803080000000  0.4893890000000  0.4601730000000 1.0
C      1  0.4449480000000  0.4476610000000  0.5121820000000 1.0
C      1  0.5029000000000  0.5031070000000  0.5521200000000 1.0
C      1  0.5205890000000  0.5536300000000  0.4519770000000 1.0
C      1  0.5552220000000  0.4632220000000  0.4992380000000 1.0
C      1  0.4864400000000  0.4297780000000  0.5085730000000 1.0
C      1  0.5761430000000  0.5115540000000  0.4904940000000 1.0
END
