TITL C-884129-4740-291 18.433989638516 125000 -23355.5043988276 0 0 157 (C1) n - 1
REM
REM in /home/nfs/bkarasulu/CARBON/AIRSS/Generating-Clusters/ReaxFF-fromJPCA2015/Units_Real/with-SteepDescent/Only-C1/SD-CG/Try1-3A/FIRE-CG
REM
REM
REM
REM
REM
REM ./C.cell (11c1c37f851c82e70ff6c80c92926a4b)
REM
REM compiler GCC version 9.2.1 20190827 (Red Hat 9.2.1-1)
REM options -cpp -mtune=generic -march=x86-64 -g -O0 -fpre-include=/usr/include/finclude/math-vector-fortran.h
REM seed 1042469582 -84764702 -1073165771 262260690 -1605607128 -1116697899 642606091 -1712790372 385152249 85436622 1243007503 -918795225 -1499180391 -524362487 571991537 1597320166 -348909731 263810996 -1591823114 1800067534 -1639520907 -1057955078 944152088 50179147 1671963314 1824939194 1204517266 -233217650 2081807924 1613336692 1858964580 1523429437 -1523465334
REM
CELL 1.54180   50.00000   50.00000   50.00000   90.00000   90.00000   90.00000
LATT -1
SFAC C  
C      1  0.4560480000000  0.4326190000000  0.4336480000000 1.0
C      1  0.4297550000000  0.4925020000000  0.4958900000000 1.0
C      1  0.5799460000000  0.5635020000000  0.4746830000000 1.0
C      1  0.4668560000000  0.4089240000000  0.5094100000000 1.0
C      1  0.4189960000000  0.4217690000000  0.5221830000000 1.0
C      1  0.4081830000000  0.5348200000000  0.5373810000000 1.0
C      1  0.4635200000000  0.4616110000000  0.4250000000000 1.0
C      1  0.4438940000000  0.4750730000000  0.4734750000000 1.0
C      1  0.3898890000000  0.4632570000000  0.4771520000000 1.0
C      1  0.4803990000000  0.4785010000000  0.5766080000000 1.0
C      1  0.5752470000000  0.4183610000000  0.5000990000000 1.0
C      1  0.4301860000000  0.4288770000000  0.4461090000000 1.0
C      1  0.4786280000000  0.6078870000000  0.4924230000000 1.0
C      1  0.5041160000000  0.5080140000000  0.3855620000000 1.0
C      1  0.6185600000000  0.5224460000000  0.5191040000000 1.0
C      1  0.5919270000000  0.5058600000000  0.5606270000000 1.0
C      1  0.4340300000000  0.5139760000000  0.5761340000000 1.0
C      1  0.5917480000000  0.4836080000000  0.5198850000000 1.0
C      1  0.6080160000000  0.5182490000000  0.4588460000000 1.0
C      1  0.4835230000000  0.4644260000000  0.4022480000000 1.0
C      1  0.5779500000000  0.4658310000000  0.4999450000000 1.0
C      1  0.5506030000000  0.5048450000000  0.5050250000000 1.0
C      1  0.4629280000000  0.5892530000000  0.5390460000000 1.0
C      1  0.4482090000000  0.5497840000000  0.4738510000000 1.0
C      1  0.4149030000000  0.4515650000000  0.4430000000000 1.0
C      1  0.4426680000000  0.4604740000000  0.5661530000000 1.0
C      1  0.5786900000000  0.4677590000000  0.4051330000000 1.0
C      1  0.5306900000000  0.4153220000000  0.5238220000000 1.0
C      1  0.5554700000000  0.4834690000000  0.4642270000000 1.0
C      1  0.5134790000000  0.5614800000000  0.5929140000000 1.0
C      1  0.4879940000000  0.4005260000000  0.4628620000000 1.0
C      1  0.4701290000000  0.4541290000000  0.5702110000000 1.0
C      1  0.5221630000000  0.6079610000000  0.5320630000000 1.0
C      1  0.5569590000000  0.5582510000000  0.4280280000000 1.0
C      1  0.5440430000000  0.4835400000000  0.5822290000000 1.0
C      1  0.6184700000000  0.4954640000000  0.5076720000000 1.0
C      1  0.5017180000000  0.4218960000000  0.4213520000000 1.0
C      1  0.4314870000000  0.5647000000000  0.5642830000000 1.0
C      1  0.4603320000000  0.5103850000000  0.5375950000000 1.0
C      1  0.4534050000000  0.5303960000000  0.4231840000000 1.0
C      1  0.5479470000000  0.5479480000000  0.4061430000000 1.0
C      1  0.5641830000000  0.4534940000000  0.4256390000000 1.0
C      1  0.5320160000000  0.5417340000000  0.5217670000000 1.0
C      1  0.3981560000000  0.4722000000000  0.4490750000000 1.0
C      1  0.5596390000000  0.4205840000000  0.5233700000000 1.0
C      1  0.4811170000000  0.4927720000000  0.3907680000000 1.0
C      1  0.4548200000000  0.5701270000000  0.5804250000000 1.0
C      1  0.5138410000000  0.3912210000000  0.4570460000000 1.0
C      1  0.3994520000000  0.4396640000000  0.5110070000000 1.0
C      1  0.5731790000000  0.5126980000000  0.5214970000000 1.0
C      1  0.5586450000000  0.4468400000000  0.5382880000000 1.0
C      1  0.3880850000000  0.5161660000000  0.5261010000000 1.0
C      1  0.4680970000000  0.4702650000000  0.5164720000000 1.0
C      1  0.4829070000000  0.5919960000000  0.4708120000000 1.0
C      1  0.4266760000000  0.4516790000000  0.5429460000000 1.0
C      1  0.5323910000000  0.5262900000000  0.4980550000000 1.0
C      1  0.5653560000000  0.5174320000000  0.5509580000000 1.0
C      1  0.4017030000000  0.4722010000000  0.5035020000000 1.0
C      1  0.5362020000000  0.4656880000000  0.5388760000000 1.0
C      1  0.3919480000000  0.4870560000000  0.5276650000000 1.0
C      1  0.4602670000000  0.5125310000000  0.4006360000000 1.0
C      1  0.5187240000000  0.5204610000000  0.5979010000000 1.0
C      1  0.4856420000000  0.4712940000000  0.4436470000000 1.0
C      1  0.5060330000000  0.4470180000000  0.4085110000000 1.0
C      1  0.5929720000000  0.5359310000000  0.5055920000000 1.0
C      1  0.4643390000000  0.5113680000000  0.4421130000000 1.0
C      1  0.4300930000000  0.5412360000000  0.5182180000000 1.0
C      1  0.5175530000000  0.5182190000000  0.4609640000000 1.0
C      1  0.5284260000000  0.5906630000000  0.5537700000000 1.0
C      1  0.4734640000000  0.5453500000000  0.5814490000000 1.0
C      1  0.5355400000000  0.5427490000000  0.5878050000000 1.0
C      1  0.5071310000000  0.4939080000000  0.5002500000000 1.0
C      1  0.5438920000000  0.5082340000000  0.4534380000000 1.0
C      1  0.4901450000000  0.4108160000000  0.4913770000000 1.0
C      1  0.4254100000000  0.4248150000000  0.4779200000000 1.0
C      1  0.5719170000000  0.4626520000000  0.4526130000000 1.0
C      1  0.5076630000000  0.4500210000000  0.5852620000000 1.0
C      1  0.5169150000000  0.5061130000000  0.5474260000000 1.0
C      1  0.5125590000000  0.5766150000000  0.5053610000000 1.0
C      1  0.5109990000000  0.6067930000000  0.5024210000000 1.0
C      1  0.5298940000000  0.4390160000000  0.4531520000000 1.0
C      1  0.5232160000000  0.4930770000000  0.5983760000000 1.0
C      1  0.4399370000000  0.4489100000000  0.4886130000000 1.0
C      1  0.4311660000000  0.5604270000000  0.4959440000000 1.0
C      1  0.4079120000000  0.4754060000000  0.5486980000000 1.0
C      1  0.5984790000000  0.5076660000000  0.4319060000000 1.0
C      1  0.4457230000000  0.4521040000000  0.5172460000000 1.0
C      1  0.5413520000000  0.4938230000000  0.5549890000000 1.0
C      1  0.4730140000000  0.4731000000000  0.4697360000000 1.0
C      1  0.5156340000000  0.5344540000000  0.5436780000000 1.0
C      1  0.5050940000000  0.5465700000000  0.4283430000000 1.0
C      1  0.5226390000000  0.5257460000000  0.3868670000000 1.0
C      1  0.5228200000000  0.4169440000000  0.5520100000000 1.0
C      1  0.4617450000000  0.5199660000000  0.5847780000000 1.0
C      1  0.5035000000000  0.4886410000000  0.5285880000000 1.0
C      1  0.4955860000000  0.5389980000000  0.5995430000000 1.0
C      1  0.5057860000000  0.5201120000000  0.4869650000000 1.0
C      1  0.5307780000000  0.5822780000000  0.4566350000000 1.0
C      1  0.6173650000000  0.5036310000000  0.4811840000000 1.0
C      1  0.4730870000000  0.4155590000000  0.5364290000000 1.0
C      1  0.4338790000000  0.5831040000000  0.5407810000000 1.0
C      1  0.4374760000000  0.4095910000000  0.5035300000000 1.0
C      1  0.4776610000000  0.5464190000000  0.4804380000000 1.0
C      1  0.5882170000000  0.4220850000000  0.4795850000000 1.0
C      1  0.5318020000000  0.4548420000000  0.4264280000000 1.0
C      1  0.4174190000000  0.4934780000000  0.4403110000000 1.0
C      1  0.4573620000000  0.6025100000000  0.5121040000000 1.0
C      1  0.4845740000000  0.4408200000000  0.5472100000000 1.0
C      1  0.4946270000000  0.4137700000000  0.5536460000000 1.0
C      1  0.5532760000000  0.4562300000000  0.5792760000000 1.0
C      1  0.4943630000000  0.5523560000000  0.5538680000000 1.0
C      1  0.5772810000000  0.4974680000000  0.4159900000000 1.0
C      1  0.5102610000000  0.4689170000000  0.4867740000000 1.0
C      1  0.3876910000000  0.5232970000000  0.4968370000000 1.0
C      1  0.4738200000000  0.5931400000000  0.5719970000000 1.0
C      1  0.4157970000000  0.5195150000000  0.4540570000000 1.0
C      1  0.5201970000000  0.5477790000000  0.4038890000000 1.0
C      1  0.5274210000000  0.4453300000000  0.4816150000000 1.0
C      1  0.5237560000000  0.4128610000000  0.4412610000000 1.0
C      1  0.3960400000000  0.4353500000000  0.4829860000000 1.0
C      1  0.4201370000000  0.5370240000000  0.5638960000000 1.0
C      1  0.5579920000000  0.5698380000000  0.4519810000000 1.0
C      1  0.5030810000000  0.4921060000000  0.4323720000000 1.0
C      1  0.5874770000000  0.5640280000000  0.5029090000000 1.0
C      1  0.5291720000000  0.6026590000000  0.4767130000000 1.0
C      1  0.5276980000000  0.4843440000000  0.4225220000000 1.0
C      1  0.5868050000000  0.4504430000000  0.4759830000000 1.0
C      1  0.4976800000000  0.5200100000000  0.4397220000000 1.0
C      1  0.5011850000000  0.4752590000000  0.5960840000000 1.0
C      1  0.4720930000000  0.5028200000000  0.5631440000000 1.0
C      1  0.5426570000000  0.5678630000000  0.5181690000000 1.0
C      1  0.5042080000000  0.5776650000000  0.5696350000000 1.0
C      1  0.4557860000000  0.5366300000000  0.5306060000000 1.0
C      1  0.5053510000000  0.5703600000000  0.4440670000000 1.0
C      1  0.4784840000000  0.4153720000000  0.4374510000000 1.0
C      1  0.5494120000000  0.5034580000000  0.4252410000000 1.0
C      1  0.4898650000000  0.5588570000000  0.5043620000000 1.0
C      1  0.4815540000000  0.5680630000000  0.4582920000000 1.0
C      1  0.4833440000000  0.4614370000000  0.4930330000000 1.0
C      1  0.5645070000000  0.5741720000000  0.5016590000000 1.0
C      1  0.4127960000000  0.5145620000000  0.4833040000000 1.0
C      1  0.4323460000000  0.5860840000000  0.5107850000000 1.0
C      1  0.5482370000000  0.5687700000000  0.5498070000000 1.0
C      1  0.5160550000000  0.4225380000000  0.4989380000000 1.0
C      1  0.4360280000000  0.5396100000000  0.4484560000000 1.0
C      1  0.6150350000000  0.5207470000000  0.5484460000000 1.0
C      1  0.5523440000000  0.5443660000000  0.5635690000000 1.0
C      1  0.5898910000000  0.5347150000000  0.4753430000000 1.0
C      1  0.4520350000000  0.4943070000000  0.5160810000000 1.0
C      1  0.5915410000000  0.4785070000000  0.5502450000000 1.0
C      1  0.4274270000000  0.4858040000000  0.5679500000000 1.0
C      1  0.5087340000000  0.4607310000000  0.5350560000000 1.0
C      1  0.5759130000000  0.4561890000000  0.5604850000000 1.0
C      1  0.5300300000000  0.4365700000000  0.5748190000000 1.0
C      1  0.4750850000000  0.5579700000000  0.5319920000000 1.0
C      1  0.5521490000000  0.4773350000000  0.4930720000000 1.0
C      1  0.4464170000000  0.4873510000000  0.4414070000000 1.0
END
