TITL C-883741-3679-410 1.64761551733125 125000 -7029.34476614929 0 0 49 (C1) n - 1
REM
REM in /home/nfs/bkarasulu/CARBON/AIRSS/Generating-Clusters/ReaxFF-fromJPCA2015/Units_Real/with-SteepDescent/Only-C1/SD-CG/Try1-3A/FIRE-CG
REM
REM
REM
REM
REM
REM ./C.cell (11c1c37f851c82e70ff6c80c92926a4b)
REM
REM compiler GCC version 9.2.1 20190827 (Red Hat 9.2.1-1)
REM options -cpp -mtune=generic -march=x86-64 -g -O0 -fpre-include=/usr/include/finclude/math-vector-fortran.h
REM seed 2110853646 -166205530 -1504058525 -1235108150 76114358 1118105764 1893753017 1331730247 -1958907493 -1172744496 -2074801760 1907799709 -1966208823 1958427757 -1981816621 202641930 30180638 798158105 847967640 1073953331 -1475455296 687060223 -42704517 -1568599158 1930534835 1030961802 -1707633147 -1612764764 909261336 -1212123954 -1888789104 -1642608681 1942984555
REM
CELL 1.54180   50.00000   50.00000   50.00000   90.00000   90.00000   90.00000
LATT -1
SFAC C  
C      1  0.4480690000000  0.4808580000000  0.5106710000000 1.0
C      1  0.5037340000000  0.5325130000000  0.5364800000000 1.0
C      1  0.5554410000000  0.5016040000000  0.5297760000000 1.0
C      1  0.5047680000000  0.5637690000000  0.4879440000000 1.0
C      1  0.4636390000000  0.5029170000000  0.4665740000000 1.0
C      1  0.4722280000000  0.5160600000000  0.5708930000000 1.0
C      1  0.5426890000000  0.5156780000000  0.5056820000000 1.0
C      1  0.5481690000000  0.5358870000000  0.4628780000000 1.0
C      1  0.5411800000000  0.4947450000000  0.4780990000000 1.0
C      1  0.4437910000000  0.4957970000000  0.5353230000000 1.0
C      1  0.5135520000000  0.4484240000000  0.4562110000000 1.0
C      1  0.4758050000000  0.5430250000000  0.5644790000000 1.0
C      1  0.5519340000000  0.4813840000000  0.4558340000000 1.0
C      1  0.5273570000000  0.4365200000000  0.4794740000000 1.0
C      1  0.4640500000000  0.4943650000000  0.5554200000000 1.0
C      1  0.5000770000000  0.4756410000000  0.4927290000000 1.0
C      1  0.5220860000000  0.5404570000000  0.4482130000000 1.0
C      1  0.4881780000000  0.4800100000000  0.5452370000000 1.0
C      1  0.4498330000000  0.4600000000000  0.4392010000000 1.0
C      1  0.5082740000000  0.4937970000000  0.4706980000000 1.0
C      1  0.4349360000000  0.5221080000000  0.5286840000000 1.0
C      1  0.5584960000000  0.5087900000000  0.4602490000000 1.0
C      1  0.4745860000000  0.4428730000000  0.4862790000000 1.0
C      1  0.5020860000000  0.4415670000000  0.4962770000000 1.0
C      1  0.5412360000000  0.4447280000000  0.5026050000000 1.0
C      1  0.4990060000000  0.5442110000000  0.4667410000000 1.0
C      1  0.5393270000000  0.4810240000000  0.5433470000000 1.0
C      1  0.4983500000000  0.4910260000000  0.5156920000000 1.0
C      1  0.5077470000000  0.4407750000000  0.5262850000000 1.0
C      1  0.5343780000000  0.4525420000000  0.5283550000000 1.0
C      1  0.5164060000000  0.5168220000000  0.4339940000000 1.0
C      1  0.4841730000000  0.4508220000000  0.4597430000000 1.0
C      1  0.4516940000000  0.5431130000000  0.5221730000000 1.0
C      1  0.4780110000000  0.5496810000000  0.5344130000000 1.0
C      1  0.5327830000000  0.5663880000000  0.4967120000000 1.0
C      1  0.4825000000000  0.4534520000000  0.5328130000000 1.0
C      1  0.5484590000000  0.5426910000000  0.4908090000000 1.0
C      1  0.4639260000000  0.4564380000000  0.5104250000000 1.0
C      1  0.4954720000000  0.5704440000000  0.5156410000000 1.0
C      1  0.4670530000000  0.4754050000000  0.4506400000000 1.0
C      1  0.5224880000000  0.5780890000000  0.5243390000000 1.0
C      1  0.5166640000000  0.4889630000000  0.5601270000000 1.0
C      1  0.5129710000000  0.5157160000000  0.5153860000000 1.0
C      1  0.5295810000000  0.4684110000000  0.4419650000000 1.0
C      1  0.4461760000000  0.5013850000000  0.4894870000000 1.0
C      1  0.5111010000000  0.4903610000000  0.4378270000000 1.0
C      1  0.4980130000000  0.5241640000000  0.5639390000000 1.0
C      1  0.4393970000000  0.5272140000000  0.5017150000000 1.0
C      1  0.4881280000000  0.5173460000000  0.4715240000000 1.0
END
