TITL C-884134-5972-341 69.3140965755821 125000 -21532.6234566002 0 0 146 (C1) n - 1
REM
REM in /home/nfs/bkarasulu/CARBON/AIRSS/Generating-Clusters/ReaxFF-fromJPCA2015/Units_Real/with-SteepDescent/Only-C1/SD-CG/Try1-3A/FIRE-CG
REM
REM
REM
REM
REM
REM ./C.cell (11c1c37f851c82e70ff6c80c92926a4b)
REM
REM compiler GCC version 9.2.1 20190827 (Red Hat 9.2.1-1)
REM options -cpp -mtune=generic -march=x86-64 -g -O0 -fpre-include=/usr/include/finclude/math-vector-fortran.h
REM seed 737176262 -100897615 111893457 1081654347 -1984036414 -688469492 1044813748 210937451 329579461 615049006 -2029361995 584210543 1424158094 1113488516 224712674 -1909683752 1055291032 -1124092296 1073154334 697804051 -1435247857 -1995887476 1754433770 1135105272 -974405133 -1382043590 -557791049 200223398 685300794 1186911822 -924714439 -1055786498 -665529979
REM
CELL 1.54180   50.00000   50.00000   50.00000   90.00000   90.00000   90.00000
LATT -1
SFAC C  
C      1  0.5065230000000  0.3997010000000  0.5083630000000 1.0
C      1  0.4514020000000  0.5351520000000  0.4242260000000 1.0
C      1  0.5156890000000  0.4724030000000  0.5944830000000 1.0
C      1  0.4787400000000  0.5761420000000  0.5601580000000 1.0
C      1  0.4577210000000  0.5706140000000  0.4641490000000 1.0
C      1  0.4302080000000  0.5474040000000  0.4956590000000 1.0
C      1  0.5712520000000  0.5008360000000  0.4295160000000 1.0
C      1  0.5480030000000  0.4304820000000  0.4492680000000 1.0
C      1  0.5606710000000  0.4792710000000  0.4460260000000 1.0
C      1  0.5647950000000  0.5781300000000  0.4826650000000 1.0
C      1  0.5881610000000  0.5443620000000  0.5269490000000 1.0
C      1  0.4334440000000  0.4559200000000  0.4836440000000 1.0
C      1  0.4446640000000  0.4450700000000  0.4213840000000 1.0
C      1  0.5013670000000  0.5923220000000  0.5511590000000 1.0
C      1  0.4762960000000  0.4688470000000  0.4537440000000 1.0
C      1  0.4764200000000  0.4016540000000  0.5016030000000 1.0
C      1  0.4877900000000  0.5067970000000  0.5518870000000 1.0
C      1  0.4799750000000  0.5735930000000  0.4219140000000 1.0
C      1  0.4442430000000  0.5502620000000  0.5354620000000 1.0
C      1  0.6006740000000  0.5232600000000  0.4578220000000 1.0
C      1  0.4957940000000  0.5588090000000  0.4021360000000 1.0
C      1  0.5719990000000  0.5653220000000  0.5376900000000 1.0
C      1  0.4962040000000  0.5591650000000  0.4951580000000 1.0
C      1  0.4366840000000  0.5350150000000  0.5802940000000 1.0
C      1  0.4379710000000  0.4295420000000  0.5673400000000 1.0
C      1  0.4733390000000  0.4176500000000  0.4531200000000 1.0
C      1  0.4153680000000  0.4872590000000  0.5686570000000 1.0
C      1  0.4394580000000  0.4970660000000  0.4962980000000 1.0
C      1  0.4942470000000  0.4419260000000  0.5107850000000 1.0
C      1  0.5807960000000  0.4566020000000  0.4819590000000 1.0
C      1  0.4869380000000  0.5987540000000  0.5057260000000 1.0
C      1  0.5856890000000  0.4758670000000  0.4591740000000 1.0
C      1  0.4643890000000  0.5345770000000  0.5893750000000 1.0
C      1  0.5066990000000  0.4809560000000  0.4149730000000 1.0
C      1  0.4659200000000  0.4886940000000  0.4079600000000 1.0
C      1  0.4487220000000  0.4905570000000  0.5913330000000 1.0
C      1  0.5172070000000  0.3876940000000  0.5368960000000 1.0
C      1  0.4564410000000  0.5620700000000  0.4348880000000 1.0
C      1  0.4441780000000  0.5737650000000  0.4896800000000 1.0
C      1  0.4247570000000  0.4489060000000  0.5116390000000 1.0
C      1  0.4214340000000  0.4703060000000  0.5322030000000 1.0
C      1  0.4957310000000  0.5362330000000  0.5130120000000 1.0
C      1  0.5234550000000  0.4592050000000  0.4154750000000 1.0
C      1  0.5282740000000  0.4086750000000  0.5522480000000 1.0
C      1  0.5479700000000  0.5820760000000  0.5286910000000 1.0
C      1  0.5230100000000  0.4180190000000  0.4599360000000 1.0
C      1  0.5087330000000  0.4416090000000  0.4705550000000 1.0
C      1  0.4054900000000  0.5209160000000  0.4548650000000 1.0
C      1  0.5948420000000  0.5128510000000  0.5804110000000 1.0
C      1  0.4370730000000  0.5065740000000  0.5710200000000 1.0
C      1  0.4157450000000  0.4745850000000  0.4661520000000 1.0
C      1  0.4441900000000  0.4748460000000  0.4232040000000 1.0
C      1  0.5248590000000  0.4449560000000  0.5864390000000 1.0
C      1  0.5524560000000  0.5681820000000  0.4569290000000 1.0
C      1  0.4345740000000  0.4858810000000  0.4478020000000 1.0
C      1  0.4750690000000  0.4390720000000  0.5514440000000 1.0
C      1  0.5059200000000  0.5856690000000  0.4335910000000 1.0
C      1  0.5691650000000  0.4458010000000  0.5330410000000 1.0
C      1  0.4004990000000  0.4988060000000  0.4741140000000 1.0
C      1  0.5184760000000  0.5190630000000  0.5929990000000 1.0
C      1  0.5144080000000  0.5857520000000  0.4901970000000 1.0
C      1  0.4720380000000  0.5172860000000  0.4115980000000 1.0
C      1  0.4923830000000  0.4829170000000  0.5276850000000 1.0
C      1  0.5143910000000  0.5860250000000  0.4606250000000 1.0
C      1  0.4508760000000  0.4097340000000  0.4951710000000 1.0
C      1  0.5664290000000  0.5556820000000  0.4966870000000 1.0
C      1  0.5144340000000  0.5326740000000  0.4535070000000 1.0
C      1  0.3995450000000  0.5075620000000  0.5016290000000 1.0
C      1  0.4855020000000  0.4674850000000  0.3999240000000 1.0
C      1  0.4835020000000  0.5548600000000  0.5803120000000 1.0
C      1  0.6059950000000  0.5320580000000  0.4852010000000 1.0
C      1  0.5517120000000  0.5118310000000  0.5033810000000 1.0
C      1  0.5437450000000  0.5873280000000  0.5010320000000 1.0
C      1  0.5627610000000  0.5517610000000  0.4347240000000 1.0
C      1  0.5010490000000  0.5152020000000  0.4720670000000 1.0
C      1  0.4823620000000  0.4434600000000  0.4388230000000 1.0
C      1  0.4280170000000  0.5321930000000  0.4651560000000 1.0
C      1  0.5449540000000  0.5093470000000  0.5971740000000 1.0
C      1  0.5330450000000  0.4918270000000  0.5049490000000 1.0
C      1  0.5282820000000  0.4015770000000  0.4838320000000 1.0
C      1  0.4787500000000  0.5523080000000  0.4730870000000 1.0
C      1  0.4734750000000  0.5172170000000  0.5064170000000 1.0
C      1  0.5560630000000  0.4797340000000  0.5530290000000 1.0
C      1  0.4722180000000  0.4437410000000  0.4112880000000 1.0
C      1  0.4680610000000  0.4677180000000  0.4829460000000 1.0
C      1  0.4250310000000  0.5407750000000  0.5549110000000 1.0
C      1  0.4953830000000  0.6135440000000  0.5294570000000 1.0
C      1  0.4234370000000  0.4588950000000  0.5656190000000 1.0
C      1  0.5689610000000  0.5200530000000  0.5802280000000 1.0
C      1  0.5340720000000  0.4643150000000  0.5435000000000 1.0
C      1  0.4528320000000  0.4209200000000  0.5439840000000 1.0
C      1  0.5416150000000  0.5515680000000  0.4138390000000 1.0
C      1  0.5674760000000  0.4322190000000  0.4724010000000 1.0
C      1  0.5534950000000  0.4120560000000  0.4863080000000 1.0
C      1  0.6038380000000  0.4962490000000  0.4657080000000 1.0
C      1  0.5648730000000  0.5072630000000  0.5524630000000 1.0
C      1  0.4836290000000  0.4418850000000  0.4842480000000 1.0
C      1  0.5430190000000  0.4803250000000  0.6004350000000 1.0
C      1  0.4041360000000  0.4937920000000  0.5424780000000 1.0
C      1  0.4247050000000  0.5340610000000  0.4363770000000 1.0
C      1  0.4753950000000  0.5231390000000  0.4655590000000 1.0
C      1  0.4506930000000  0.5341690000000  0.5122740000000 1.0
C      1  0.5328250000000  0.5498240000000  0.4691770000000 1.0
C      1  0.5700960000000  0.4551650000000  0.5612160000000 1.0
C      1  0.4619070000000  0.4430760000000  0.5772640000000 1.0
C      1  0.4060400000000  0.5327070000000  0.5115670000000 1.0
C      1  0.4436680000000  0.4926770000000  0.5243640000000 1.0
C      1  0.4791970000000  0.4886950000000  0.5028810000000 1.0
C      1  0.5302360000000  0.5090850000000  0.4424770000000 1.0
C      1  0.5449780000000  0.5064300000000  0.4171520000000 1.0
C      1  0.4796900000000  0.4577900000000  0.5299160000000 1.0
C      1  0.4996380000000  0.4828110000000  0.4451640000000 1.0
C      1  0.5250130000000  0.5764290000000  0.5469490000000 1.0
C      1  0.4479170000000  0.5060970000000  0.4693010000000 1.0
C      1  0.5163670000000  0.4168700000000  0.5780570000000 1.0
C      1  0.5397340000000  0.4356380000000  0.5337920000000 1.0
C      1  0.5158490000000  0.4676910000000  0.4629530000000 1.0
C      1  0.4608530000000  0.5853530000000  0.5107160000000 1.0
C      1  0.5207520000000  0.5717720000000  0.4109690000000 1.0
C      1  0.5932030000000  0.5538460000000  0.4991470000000 1.0
C      1  0.4442420000000  0.4262900000000  0.4450960000000 1.0
C      1  0.5792150000000  0.5275420000000  0.4387470000000 1.0
C      1  0.5919780000000  0.4902380000000  0.5139920000000 1.0
C      1  0.5450090000000  0.4984610000000  0.4648770000000 1.0
C      1  0.4978930000000  0.5295620000000  0.4034730000000 1.0
C      1  0.5527570000000  0.4549390000000  0.5861440000000 1.0
C      1  0.5208030000000  0.4808100000000  0.5250300000000 1.0
C      1  0.6074680000000  0.5033540000000  0.4934990000000 1.0
C      1  0.5111640000000  0.5456710000000  0.5828480000000 1.0
C      1  0.4381420000000  0.4242540000000  0.5182960000000 1.0
C      1  0.5453160000000  0.4527830000000  0.4309170000000 1.0
C      1  0.5175250000000  0.4269230000000  0.5162910000000 1.0
C      1  0.4060900000000  0.5233730000000  0.5391760000000 1.0
C      1  0.5206870000000  0.4902870000000  0.4808400000000 1.0
C      1  0.4591530000000  0.5750870000000  0.5382720000000 1.0
C      1  0.5205980000000  0.5483950000000  0.5550870000000 1.0
C      1  0.4461790000000  0.4652650000000  0.5829000000000 1.0
C      1  0.5278830000000  0.5268870000000  0.4055550000000 1.0
C      1  0.4593700000000  0.5037950000000  0.5463730000000 1.0
C      1  0.5759950000000  0.5138600000000  0.5254910000000 1.0
C      1  0.4725400000000  0.5069520000000  0.5953750000000 1.0
C      1  0.4986520000000  0.4973060000000  0.5847470000000 1.0
C      1  0.5813440000000  0.4629030000000  0.5106540000000 1.0
C      1  0.5470810000000  0.5364080000000  0.4905730000000 1.0
C      1  0.4371680000000  0.4280930000000  0.4728760000000 1.0
C      1  0.5033940000000  0.5303590000000  0.5402870000000 1.0
END
