TITL C-883728-9229-43 -1794151.77097604 125000 -8593.44081114605 0 0 58 (C1) n - 1
REM
REM in /home/nfs/bkarasulu/CARBON/AIRSS/Generating-Clusters/ReaxFF-fromJPCA2015/Units_Real/with-SteepDescent/Only-C1/SD-CG/Try1-3A/FIRE-CG
REM
REM
REM
REM
REM
REM ./C.cell (11c1c37f851c82e70ff6c80c92926a4b)
REM
REM compiler GCC version 9.2.1 20190827 (Red Hat 9.2.1-1)
REM options -cpp -mtune=generic -march=x86-64 -g -O0 -fpre-include=/usr/include/finclude/math-vector-fortran.h
REM seed 1752471701 -327846372 -1177957774 1127804473 725885856 -834598632 60162229 1035342792 -535440772 1722795966 1265421100 955718700 791548631 -654109119 -910414296 303098977 682322705 -951849803 -410584731 965722847 1396229083 366347247 -1222906112 -1488753678 1193084597 -1445659356 -1416842400 1555847779 -1571147951 -1457103946 1469735572 -1553948252 2068070306
REM
CELL 1.54180   50.00000   50.00000   50.00000   90.00000   90.00000   90.00000
LATT -1
SFAC C  
C      1  0.5556460000000  0.4617160000000  0.4877890000000 1.0
C      1  0.5342340000000  0.5580710000000  0.5318040000000 1.0
C      1  0.4931880000000  0.4544640000000  0.4436600000000 1.0
C      1  0.5169050000000  0.4508520000000  0.4581810000000 1.0
C      1  0.5390970000000  0.4970220000000  0.5425390000000 1.0
C      1  0.4517120000000  0.5109200000000  0.5480650000000 1.0
C      1  0.4916920000000  0.5161200000000  0.4693390000000 1.0
C      1  0.5036820000000  0.4310260000000  0.4760910000000 1.0
C      1  0.4880270000000  0.5670960000000  0.5197360000000 1.0
C      1  0.4711920000000  0.5270090000000  0.4506480000000 1.0
C      1  0.5255730000000  0.5060820000000  0.5176950000000 1.0
C      1  0.4434910000000  0.4929530000000  0.4708320000000 1.0
C      1  0.5597520000000  0.5569060000000  0.5234640000000 1.0
C      1  0.4893730000000  0.4919620000000  0.4874170000000 1.0
C      1  0.4966490000000  0.4833040000000  0.5414280000000 1.0
C      1  0.4634580000000  0.5372620000000  0.5460280000000 1.0
C      1  0.5726060000000  0.5355300000000  0.5049400000000 1.0
C      1  0.4627380000000  0.5518480000000  0.5210820000000 1.0
C      1  0.4346410000000  0.4647950000000  0.4760010000000 1.0
C      1  0.5170810000000  0.4915710000000  0.5615120000000 1.0
C      1  0.4395770000000  0.4605550000000  0.5035940000000 1.0
C      1  0.5319140000000  0.4718950000000  0.4747020000000 1.0
C      1  0.5419730000000  0.5534500000000  0.4743640000000 1.0
C      1  0.4682860000000  0.5589600000000  0.4785610000000 1.0
C      1  0.4654140000000  0.4592450000000  0.4398810000000 1.0
C      1  0.4540910000000  0.4677460000000  0.5263470000000 1.0
C      1  0.4722100000000  0.5566880000000  0.4492320000000 1.0
C      1  0.4546150000000  0.5389590000000  0.4960200000000 1.0
C      1  0.4938340000000  0.5324200000000  0.5494350000000 1.0
C      1  0.5086010000000  0.5590590000000  0.5393490000000 1.0
C      1  0.4478290000000  0.4967290000000  0.5219580000000 1.0
C      1  0.4515520000000  0.4445230000000  0.4615760000000 1.0
C      1  0.5163970000000  0.4313790000000  0.5022210000000 1.0
C      1  0.4758630000000  0.5065220000000  0.4304560000000 1.0
C      1  0.5629660000000  0.5599920000000  0.4936170000000 1.0
C      1  0.5162050000000  0.5697180000000  0.4722670000000 1.0
C      1  0.5004860000000  0.4357970000000  0.5266330000000 1.0
C      1  0.5232760000000  0.4381080000000  0.5470480000000 1.0
C      1  0.4983460000000  0.5122020000000  0.5726160000000 1.0
C      1  0.5433650000000  0.5251050000000  0.4703580000000 1.0
C      1  0.5066430000000  0.5065090000000  0.4300250000000 1.0
C      1  0.5615720000000  0.5129140000000  0.4905760000000 1.0
C      1  0.5483770000000  0.4498680000000  0.5324840000000 1.0
C      1  0.5049130000000  0.4461950000000  0.5660590000000 1.0
C      1  0.4985490000000  0.5098170000000  0.5276190000000 1.0
C      1  0.4743950000000  0.4384770000000  0.4800730000000 1.0
C      1  0.4921060000000  0.5707880000000  0.4915790000000 1.0
C      1  0.4825890000000  0.4582930000000  0.5347520000000 1.0
C      1  0.4475750000000  0.5101860000000  0.4949350000000 1.0
C      1  0.5445460000000  0.4404430000000  0.5058860000000 1.0
C      1  0.5643140000000  0.4854880000000  0.5023410000000 1.0
C      1  0.4982520000000  0.5675100000000  0.4511110000000 1.0
C      1  0.5183610000000  0.5143840000000  0.4561840000000 1.0
C      1  0.4574310000000  0.4879660000000  0.4449870000000 1.0
C      1  0.4697730000000  0.5038780000000  0.5716550000000 1.0
C      1  0.5574400000000  0.4775230000000  0.5304460000000 1.0
C      1  0.4776470000000  0.4662540000000  0.4857070000000 1.0
C      1  0.5179830000000  0.4879450000000  0.4950950000000 1.0
END
