TITL C-884142-5251-274 -2.67337509345301 125000 -10879.0057710476 0 0 73 (C1) n - 1
REM
REM in /home/nfs/bkarasulu/CARBON/AIRSS/Generating-Clusters/ReaxFF-fromJPCA2015/Units_Real/with-SteepDescent/Only-C1/SD-CG/Try1-3A/FIRE-CG
REM
REM
REM
REM
REM
REM ./C.cell (11c1c37f851c82e70ff6c80c92926a4b)
REM
REM compiler GCC version 9.2.1 20190827 (Red Hat 9.2.1-1)
REM options -cpp -mtune=generic -march=x86-64 -g -O0 -fpre-include=/usr/include/finclude/math-vector-fortran.h
REM seed -689336427 1036207352 72122301 225294775 -1802484011 -1918758171 251157211 138055846 40852808 -1245693751 385649803 -1337749832 1658569810 -621907907 1406282861 -1557747300 1271647172 -2073992061 -1390697441 -720825285 -1214769699 59578250 -645966340 -2073902871 -1231191997 830611871 1361483420 1960341548 -1741201469 -314316266 175533393 1302729973 -1598033912
REM
CELL 1.54180   50.00000   50.00000   50.00000   90.00000   90.00000   90.00000
LATT -1
SFAC C  
C      1  0.5614610000000  0.4635340000000  0.4638300000000 1.0
C      1  0.5148070000000  0.5806320000000  0.4858890000000 1.0
C      1  0.5256990000000  0.5214610000000  0.5282310000000 1.0
C      1  0.5684280000000  0.4993570000000  0.5073360000000 1.0
C      1  0.5413240000000  0.5136670000000  0.5059630000000 1.0
C      1  0.5597770000000  0.4538000000000  0.4916960000000 1.0
C      1  0.5398550000000  0.4841800000000  0.5498290000000 1.0
C      1  0.4456770000000  0.4511480000000  0.4858190000000 1.0
C      1  0.5217510000000  0.5002640000000  0.4838870000000 1.0
C      1  0.4706470000000  0.5034990000000  0.4964260000000 1.0
C      1  0.4988750000000  0.5470880000000  0.5546140000000 1.0
C      1  0.4778150000000  0.5705920000000  0.5144420000000 1.0
C      1  0.5003990000000  0.4603670000000  0.4440890000000 1.0
C      1  0.5494100000000  0.5093390000000  0.4402390000000 1.0
C      1  0.5522520000000  0.5366930000000  0.4502740000000 1.0
C      1  0.4364920000000  0.4794630000000  0.4825290000000 1.0
C      1  0.5239070000000  0.5762100000000  0.4579780000000 1.0
C      1  0.5104720000000  0.4753780000000  0.4888970000000 1.0
C      1  0.4539790000000  0.5013710000000  0.4711820000000 1.0
C      1  0.5328180000000  0.5121340000000  0.5550310000000 1.0
C      1  0.5173260000000  0.4568740000000  0.5122630000000 1.0
C      1  0.4266650000000  0.5437080000000  0.5150450000000 1.0
C      1  0.5026410000000  0.5646240000000  0.5294480000000 1.0
C      1  0.4790540000000  0.5531690000000  0.4451060000000 1.0
C      1  0.4599440000000  0.5112320000000  0.5454110000000 1.0
C      1  0.4891030000000  0.5247120000000  0.4940000000000 1.0
C      1  0.5729510000000  0.5102920000000  0.4808310000000 1.0
C      1  0.5701380000000  0.4717300000000  0.5105320000000 1.0
C      1  0.5380420000000  0.4387210000000  0.5029060000000 1.0
C      1  0.4484800000000  0.5537840000000  0.4799390000000 1.0
C      1  0.4380400000000  0.5274130000000  0.4737270000000 1.0
C      1  0.4826610000000  0.5310600000000  0.4302340000000 1.0
C      1  0.4825900000000  0.5055640000000  0.4488750000000 1.0
C      1  0.4496460000000  0.5588220000000  0.5084800000000 1.0
C      1  0.5115890000000  0.5341490000000  0.4260670000000 1.0
C      1  0.4221090000000  0.4936750000000  0.5035630000000 1.0
C      1  0.5302250000000  0.5535150000000  0.4403300000000 1.0
C      1  0.5647660000000  0.4929780000000  0.4589200000000 1.0
C      1  0.5451950000000  0.5446410000000  0.5010180000000 1.0
C      1  0.5022870000000  0.5157830000000  0.4696530000000 1.0
C      1  0.4256510000000  0.4878100000000  0.5319940000000 1.0
C      1  0.4780880000000  0.5334830000000  0.5399420000000 1.0
C      1  0.5090030000000  0.5225910000000  0.5683060000000 1.0
C      1  0.4692750000000  0.5692110000000  0.4653970000000 1.0
C      1  0.4856600000000  0.5801920000000  0.4888770000000 1.0
C      1  0.5194540000000  0.4249830000000  0.4688380000000 1.0
C      1  0.4210810000000  0.5218530000000  0.4956720000000 1.0
C      1  0.4401770000000  0.4626960000000  0.5382010000000 1.0
C      1  0.4326340000000  0.5113370000000  0.5463170000000 1.0
C      1  0.4904740000000  0.4619550000000  0.4717450000000 1.0
C      1  0.5495100000000  0.4475340000000  0.4419470000000 1.0
C      1  0.5012570000000  0.4875440000000  0.4340300000000 1.0
C      1  0.5227520000000  0.5069750000000  0.4276900000000 1.0
C      1  0.4761010000000  0.4776450000000  0.5798570000000 1.0
C      1  0.4986060000000  0.5253340000000  0.5209610000000 1.0
C      1  0.4683000000000  0.4577520000000  0.5520260000000 1.0
C      1  0.5618300000000  0.5375490000000  0.4780060000000 1.0
C      1  0.4301720000000  0.5362940000000  0.5371790000000 1.0
C      1  0.4863130000000  0.4369760000000  0.5405680000000 1.0
C      1  0.4696290000000  0.4944750000000  0.5233910000000 1.0
C      1  0.5170130000000  0.4197770000000  0.4957030000000 1.0
C      1  0.4915670000000  0.4333910000000  0.5109540000000 1.0
C      1  0.4880160000000  0.4804200000000  0.5413470000000 1.0
C      1  0.5378590000000  0.4361380000000  0.5563070000000 1.0
C      1  0.5651700000000  0.4440520000000  0.5524120000000 1.0
C      1  0.5158480000000  0.4681250000000  0.5399590000000 1.0
C      1  0.5642800000000  0.4725660000000  0.5390140000000 1.0
C      1  0.4421760000000  0.4507330000000  0.5131950000000 1.0
C      1  0.4745810000000  0.4433210000000  0.4880060000000 1.0
C      1  0.5209190000000  0.4380680000000  0.4435710000000 1.0
C      1  0.5109250000000  0.4405420000000  0.5556300000000 1.0
C      1  0.4917090000000  0.4980050000000  0.5698160000000 1.0
C      1  0.5246760000000  0.5640500000000  0.5086170000000 1.0
END
