TITL C-883734-4173-290 50.323311283335 125000 -27730.5009678603 0 0 187 (C1) n - 1
REM
REM in /home/nfs/bkarasulu/CARBON/AIRSS/Generating-Clusters/ReaxFF-fromJPCA2015/Units_Real/with-SteepDescent/Only-C1/SD-CG/Try1-3A/FIRE-CG
REM
REM
REM
REM
REM
REM ./C.cell (11c1c37f851c82e70ff6c80c92926a4b)
REM
REM compiler GCC version 9.2.1 20190827 (Red Hat 9.2.1-1)
REM options -cpp -mtune=generic -march=x86-64 -g -O0 -fpre-include=/usr/include/finclude/math-vector-fortran.h
REM seed 1096710619 -280736945 -446414009 -93335559 374152266 12803067 1216993557 -1953120838 -2037181232 -662582289 -2065310178 613357484 931341471 677515988 -511710147 -759118731 -2102696310 -1057318201 -1995039694 992572985 -510321132 -501247469 1811079173 -416330462 1073984967 -1050406447 170846931 -1290564207 -882166604 -897019688 -127486231 76962023 956874464
REM
CELL 1.54180   50.00000   50.00000   50.00000   90.00000   90.00000   90.00000
LATT -1
SFAC C  
C      1  0.5324310000000  0.4861600000000  0.5154130000000 1.0
C      1  0.4577010000000  0.6002280000000  0.5001690000000 1.0
C      1  0.5329350000000  0.4033230000000  0.5319340000000 1.0
C      1  0.4542520000000  0.6037410000000  0.4711980000000 1.0
C      1  0.5895300000000  0.5275750000000  0.5118260000000 1.0
C      1  0.4746980000000  0.5494750000000  0.4038790000000 1.0
C      1  0.4318660000000  0.5882620000000  0.4614910000000 1.0
C      1  0.4400550000000  0.5769090000000  0.4363170000000 1.0
C      1  0.4860560000000  0.5468440000000  0.5431720000000 1.0
C      1  0.4883610000000  0.4793710000000  0.5099570000000 1.0
C      1  0.3985830000000  0.5055080000000  0.4447860000000 1.0
C      1  0.5731170000000  0.4776090000000  0.4748140000000 1.0
C      1  0.4701520000000  0.5064440000000  0.4874890000000 1.0
C      1  0.4755850000000  0.6106660000000  0.5195660000000 1.0
C      1  0.5774730000000  0.4176900000000  0.5151230000000 1.0
C      1  0.4357310000000  0.5647290000000  0.5463600000000 1.0
C      1  0.5802880000000  0.5437680000000  0.4511100000000 1.0
C      1  0.5282920000000  0.5949260000000  0.4455070000000 1.0
C      1  0.4208630000000  0.4611000000000  0.4435670000000 1.0
C      1  0.5181710000000  0.5710130000000  0.4263890000000 1.0
C      1  0.4426460000000  0.4473560000000  0.4296260000000 1.0
C      1  0.5718160000000  0.4797220000000  0.4210110000000 1.0
C      1  0.5216280000000  0.4542770000000  0.5424250000000 1.0
C      1  0.4471100000000  0.4716890000000  0.5252450000000 1.0
C      1  0.4314680000000  0.4329360000000  0.5446650000000 1.0
C      1  0.5375050000000  0.5919650000000  0.5045960000000 1.0
C      1  0.5625410000000  0.4158010000000  0.4657510000000 1.0
C      1  0.4880110000000  0.4172860000000  0.4028560000000 1.0
C      1  0.5349920000000  0.3973900000000  0.5033670000000 1.0
C      1  0.5136050000000  0.5568000000000  0.4530290000000 1.0
C      1  0.4741530000000  0.4407300000000  0.3924030000000 1.0
C      1  0.5337930000000  0.4068950000000  0.4572070000000 1.0
C      1  0.5032060000000  0.4517190000000  0.5637860000000 1.0
C      1  0.4086900000000  0.4746790000000  0.5531310000000 1.0
C      1  0.4952390000000  0.5448830000000  0.5012330000000 1.0
C      1  0.5093130000000  0.4448750000000  0.6190870000000 1.0
C      1  0.4871970000000  0.5452230000000  0.4543390000000 1.0
C      1  0.5038430000000  0.4394600000000  0.3905460000000 1.0
C      1  0.5554960000000  0.5938110000000  0.5275010000000 1.0
C      1  0.5603690000000  0.5348950000000  0.4294690000000 1.0
C      1  0.5355960000000  0.5358130000000  0.4532900000000 1.0
C      1  0.4273970000000  0.4544020000000  0.5646950000000 1.0
C      1  0.4956560000000  0.4726040000000  0.5835590000000 1.0
C      1  0.5202120000000  0.5757770000000  0.5991400000000 1.0
C      1  0.5796850000000  0.5472370000000  0.5466900000000 1.0
C      1  0.4001610000000  0.5291090000000  0.4977190000000 1.0
C      1  0.3954850000000  0.4887070000000  0.4685660000000 1.0
C      1  0.4128550000000  0.5382620000000  0.5225560000000 1.0
C      1  0.4477040000000  0.4180630000000  0.5008230000000 1.0
C      1  0.5066990000000  0.4485630000000  0.4776220000000 1.0
C      1  0.4619590000000  0.4625000000000  0.4747210000000 1.0
C      1  0.5344820000000  0.4510560000000  0.6049200000000 1.0
C      1  0.4741540000000  0.4307230000000  0.5084290000000 1.0
C      1  0.4315190000000  0.5077860000000  0.5797530000000 1.0
C      1  0.5355810000000  0.4476740000000  0.4728250000000 1.0
C      1  0.5742640000000  0.4641150000000  0.5471510000000 1.0
C      1  0.4652490000000  0.5721980000000  0.4968700000000 1.0
C      1  0.4626160000000  0.4883280000000  0.3988690000000 1.0
C      1  0.4872800000000  0.5717280000000  0.4164650000000 1.0
C      1  0.5178880000000  0.5062860000000  0.4837960000000 1.0
C      1  0.5155950000000  0.6096750000000  0.4908270000000 1.0
C      1  0.4471690000000  0.5389300000000  0.4093430000000 1.0
C      1  0.4019770000000  0.4775050000000  0.5125430000000 1.0
C      1  0.5968930000000  0.4403570000000  0.5124910000000 1.0
C      1  0.5198000000000  0.5140890000000  0.4421920000000 1.0
C      1  0.5455670000000  0.4482730000000  0.4998460000000 1.0
C      1  0.4777570000000  0.4938810000000  0.4404190000000 1.0
C      1  0.4918080000000  0.5204860000000  0.4362210000000 1.0
C      1  0.5738010000000  0.5709360000000  0.5255600000000 1.0
C      1  0.4980410000000  0.4071350000000  0.5722230000000 1.0
C      1  0.4222170000000  0.4827750000000  0.5293560000000 1.0
C      1  0.5204880000000  0.4652060000000  0.4304650000000 1.0
C      1  0.4460630000000  0.4626950000000  0.5862310000000 1.0
C      1  0.4659350000000  0.5537980000000  0.4729320000000 1.0
C      1  0.4811510000000  0.4464650000000  0.5484910000000 1.0
C      1  0.5560060000000  0.5046110000000  0.5521760000000 1.0
C      1  0.5218840000000  0.4194480000000  0.5812480000000 1.0
C      1  0.5127910000000  0.4012110000000  0.4840570000000 1.0
C      1  0.5086050000000  0.5851450000000  0.5418710000000 1.0
C      1  0.4649440000000  0.4612680000000  0.5039230000000 1.0
C      1  0.5022210000000  0.4291330000000  0.4981930000000 1.0
C      1  0.5781300000000  0.4357150000000  0.4504780000000 1.0
C      1  0.5680180000000  0.5349310000000  0.5987790000000 1.0
C      1  0.5532470000000  0.5861670000000  0.4567840000000 1.0
C      1  0.4961790000000  0.6148920000000  0.5024380000000 1.0
C      1  0.4415640000000  0.5225480000000  0.5283270000000 1.0
C      1  0.5393840000000  0.5509240000000  0.4149850000000 1.0
C      1  0.4848710000000  0.4536760000000  0.4603250000000 1.0
C      1  0.4652530000000  0.4692120000000  0.5472450000000 1.0
C      1  0.5334260000000  0.4903060000000  0.4434680000000 1.0
C      1  0.4952310000000  0.5767970000000  0.5869670000000 1.0
C      1  0.4459210000000  0.5161670000000  0.4994020000000 1.0
C      1  0.4333410000000  0.5225590000000  0.4538640000000 1.0
C      1  0.4730980000000  0.4063580000000  0.4254080000000 1.0
C      1  0.5559200000000  0.5098880000000  0.6050890000000 1.0
C      1  0.4949120000000  0.5218510000000  0.4868220000000 1.0
C      1  0.5530710000000  0.4935570000000  0.4636110000000 1.0
C      1  0.4423680000000  0.5613030000000  0.5746390000000 1.0
C      1  0.5833140000000  0.4930170000000  0.5571870000000 1.0
C      1  0.5067620000000  0.6050340000000  0.4635710000000 1.0
C      1  0.5381470000000  0.4453070000000  0.4439480000000 1.0
C      1  0.5254320000000  0.5333560000000  0.3978740000000 1.0
C      1  0.5239800000000  0.4416960000000  0.5159580000000 1.0
C      1  0.4535170000000  0.4159480000000  0.5533380000000 1.0
C      1  0.4083880000000  0.4618380000000  0.4702300000000 1.0
C      1  0.4130540000000  0.5650950000000  0.5264410000000 1.0
C      1  0.5734980000000  0.5677290000000  0.4682970000000 1.0
C      1  0.5627510000000  0.4401040000000  0.5572380000000 1.0
C      1  0.5450460000000  0.4341130000000  0.5830270000000 1.0
C      1  0.5631140000000  0.4512950000000  0.4302460000000 1.0
C      1  0.4884180000000  0.4995510000000  0.3911760000000 1.0
C      1  0.4701210000000  0.5156730000000  0.5976440000000 1.0
C      1  0.5165830000000  0.5341520000000  0.5443670000000 1.0
C      1  0.4784800000000  0.6023350000000  0.4550260000000 1.0
C      1  0.5590140000000  0.4181800000000  0.5375050000000 1.0
C      1  0.4790390000000  0.4201580000000  0.5359530000000 1.0
C      1  0.6156730000000  0.4595260000000  0.5001660000000 1.0
C      1  0.4411730000000  0.5028460000000  0.4360590000000 1.0
C      1  0.4862670000000  0.5041710000000  0.5240840000000 1.0
C      1  0.5779490000000  0.4840580000000  0.5030230000000 1.0
C      1  0.5551180000000  0.5297990000000  0.5063890000000 1.0
C      1  0.4505170000000  0.5096120000000  0.5574940000000 1.0
C      1  0.5342170000000  0.5968960000000  0.5506570000000 1.0
C      1  0.5614830000000  0.4067890000000  0.4930580000000 1.0
C      1  0.5309890000000  0.5416420000000  0.5689960000000 1.0
C      1  0.5381360000000  0.5074000000000  0.3956270000000 1.0
C      1  0.5064850000000  0.4041490000000  0.5447990000000 1.0
C      1  0.4616820000000  0.5424770000000  0.5879220000000 1.0
C      1  0.4688100000000  0.4171780000000  0.5773370000000 1.0
C      1  0.6081000000000  0.4888230000000  0.5025260000000 1.0
C      1  0.4141240000000  0.5743760000000  0.5035280000000 1.0
C      1  0.4089220000000  0.5348270000000  0.4474240000000 1.0
C      1  0.5330490000000  0.5441830000000  0.5207100000000 1.0
C      1  0.5249910000000  0.4803250000000  0.5927800000000 1.0
C      1  0.5724190000000  0.4586910000000  0.5170440000000 1.0
C      1  0.4256450000000  0.4326570000000  0.5144850000000 1.0
C      1  0.4844290000000  0.4562750000000  0.6059450000000 1.0
C      1  0.4593240000000  0.3912120000000  0.4943380000000 1.0
C      1  0.3951290000000  0.5006910000000  0.4946310000000 1.0
C      1  0.4747400000000  0.4932070000000  0.5613880000000 1.0
C      1  0.4837750000000  0.3932810000000  0.4770260000000 1.0
C      1  0.4574950000000  0.4600140000000  0.4067420000000 1.0
C      1  0.5034550000000  0.5029120000000  0.5478630000000 1.0
C      1  0.5197220000000  0.4616690000000  0.3989940000000 1.0
C      1  0.5715040000000  0.4909080000000  0.5865880000000 1.0
C      1  0.4921940000000  0.4688660000000  0.4384290000000 1.0
C      1  0.4623620000000  0.4402200000000  0.5945760000000 1.0
C      1  0.5467970000000  0.4864750000000  0.5731310000000 1.0
C      1  0.4801600000000  0.5944070000000  0.5434840000000 1.0
C      1  0.4130350000000  0.5732310000000  0.4788690000000 1.0
C      1  0.5906210000000  0.5219590000000  0.5401700000000 1.0
C      1  0.5009850000000  0.5207920000000  0.6045580000000 1.0
C      1  0.5435630000000  0.5184720000000  0.4777720000000 1.0
C      1  0.5739620000000  0.5705890000000  0.4976410000000 1.0
C      1  0.6070450000000  0.5160840000000  0.4921840000000 1.0
C      1  0.4557640000000  0.5830970000000  0.5567310000000 1.0
C      1  0.4947230000000  0.5271390000000  0.4018240000000 1.0
C      1  0.4691700000000  0.5866880000000  0.4323350000000 1.0
C      1  0.5598860000000  0.5358630000000  0.5670940000000 1.0
C      1  0.4170860000000  0.4877150000000  0.4311030000000 1.0
C      1  0.5966610000000  0.4804760000000  0.4371890000000 1.0
C      1  0.5247970000000  0.5052730000000  0.6097810000000 1.0
C      1  0.4112390000000  0.4529480000000  0.4983210000000 1.0
C      1  0.5229690000000  0.4819300000000  0.5409080000000 1.0
C      1  0.5152920000000  0.4880980000000  0.3889830000000 1.0
C      1  0.4512700000000  0.4207420000000  0.4387880000000 1.0
C      1  0.4741200000000  0.4098310000000  0.4545530000000 1.0
C      1  0.4438800000000  0.5347600000000  0.4771940000000 1.0
C      1  0.6019120000000  0.5271140000000  0.4629760000000 1.0
C      1  0.4658320000000  0.4889620000000  0.4663980000000 1.0
C      1  0.5989340000000  0.5061460000000  0.4471630000000 1.0
C      1  0.4512010000000  0.4925060000000  0.5958020000000 1.0
C      1  0.5178640000000  0.5436720000000  0.5954100000000 1.0
C      1  0.5601070000000  0.5052750000000  0.4140180000000 1.0
C      1  0.4707060000000  0.5270130000000  0.5280890000000 1.0
C      1  0.4039540000000  0.4969810000000  0.5725290000000 1.0
C      1  0.4292910000000  0.5521990000000  0.4271430000000 1.0
C      1  0.5308690000000  0.3920510000000  0.4362880000000 1.0
C      1  0.5318970000000  0.5901740000000  0.5774530000000 1.0
C      1  0.5911960000000  0.4604670000000  0.4596490000000 1.0
C      1  0.5554240000000  0.5027650000000  0.5198840000000 1.0
C      1  0.5132660000000  0.4799770000000  0.4942020000000 1.0
C      1  0.4833520000000  0.5630930000000  0.5171600000000 1.0
C      1  0.4443720000000  0.5091200000000  0.4088840000000 1.0
C      1  0.5227620000000  0.5706630000000  0.5179660000000 1.0
C      1  0.4834140000000  0.5552260000000  0.5729900000000 1.0
C      1  0.4022380000000  0.5472370000000  0.4746980000000 1.0
END
