TITL C-883730-8503-205 -5.00069529526117 125000 -8995.53500087018 0 0 61 (C1) n - 1
REM
REM in /home/nfs/bkarasulu/CARBON/AIRSS/Generating-Clusters/ReaxFF-fromJPCA2015/Units_Real/with-SteepDescent/Only-C1/SD-CG/Try1-3A/FIRE-CG
REM
REM
REM
REM
REM
REM ./C.cell (11c1c37f851c82e70ff6c80c92926a4b)
REM
REM compiler GCC version 9.2.1 20190827 (Red Hat 9.2.1-1)
REM options -cpp -mtune=generic -march=x86-64 -g -O0 -fpre-include=/usr/include/finclude/math-vector-fortran.h
REM seed 431711109 715652370 -504036772 -601789165 54008082 -1920151102 -1856030497 686702848 1308681772 1787136917 -1121009937 2086616299 657733980 -1185594363 -1333170038 72090291 72069442 750830927 -1874788369 -1135121037 2105201663 1991084735 944893158 1477576826 -2102908650 -2078212804 -1268401265 1772819210 1133168790 -1589423756 -1941663657 -1468410183 1221405827
REM
CELL 1.54180   50.00000   50.00000   50.00000   90.00000   90.00000   90.00000
LATT -1
SFAC C  
C      1  0.5279590000000  0.5074540000000  0.5621980000000 1.0
C      1  0.5086930000000  0.5053390000000  0.4926850000000 1.0
C      1  0.5040420000000  0.5281870000000  0.5095690000000 1.0
C      1  0.4941300000000  0.4787100000000  0.5678260000000 1.0
C      1  0.4627290000000  0.5240370000000  0.4818960000000 1.0
C      1  0.5542270000000  0.5121100000000  0.5491270000000 1.0
C      1  0.5213610000000  0.4776630000000  0.5013960000000 1.0
C      1  0.5146190000000  0.5799500000000  0.4908290000000 1.0
C      1  0.5514470000000  0.4968660000000  0.4433300000000 1.0
C      1  0.5723590000000  0.4984600000000  0.4942610000000 1.0
C      1  0.4390830000000  0.4719680000000  0.4639220000000 1.0
C      1  0.5276260000000  0.5463530000000  0.5243610000000 1.0
C      1  0.4636850000000  0.4319930000000  0.4821000000000 1.0
C      1  0.5728400000000  0.4748800000000  0.5144820000000 1.0
C      1  0.4492710000000  0.4442040000000  0.5021730000000 1.0
C      1  0.4470250000000  0.4332590000000  0.5438430000000 1.0
C      1  0.4438500000000  0.5689500000000  0.4661830000000 1.0
C      1  0.5011650000000  0.4792740000000  0.4407430000000 1.0
C      1  0.4840200000000  0.5025610000000  0.4776950000000 1.0
C      1  0.4389970000000  0.4868000000000  0.5331190000000 1.0
C      1  0.5537590000000  0.5499410000000  0.4854920000000 1.0
C      1  0.4539760000000  0.5064880000000  0.5514540000000 1.0
C      1  0.4861370000000  0.4567150000000  0.5543440000000 1.0
C      1  0.5291830000000  0.4756820000000  0.4349620000000 1.0
C      1  0.4386160000000  0.4554100000000  0.5261750000000 1.0
C      1  0.4783420000000  0.4353770000000  0.5412580000000 1.0
C      1  0.5651010000000  0.5260830000000  0.5014110000000 1.0
C      1  0.4911450000000  0.5221170000000  0.4112950000000 1.0
C      1  0.5370100000000  0.4514390000000  0.4509430000000 1.0
C      1  0.5377890000000  0.5671110000000  0.5032690000000 1.0
C      1  0.4334900000000  0.5128880000000  0.4869390000000 1.0
C      1  0.4619180000000  0.5516270000000  0.4627730000000 1.0
C      1  0.4627830000000  0.5515430000000  0.5279600000000 1.0
C      1  0.5343880000000  0.5529650000000  0.4653410000000 1.0
C      1  0.4607160000000  0.4544260000000  0.4632330000000 1.0
C      1  0.4948870000000  0.5841590000000  0.5124060000000 1.0
C      1  0.5035410000000  0.5243310000000  0.5603490000000 1.0
C      1  0.5221910000000  0.4794870000000  0.5583470000000 1.0
C      1  0.4765580000000  0.5353970000000  0.5070630000000 1.0
C      1  0.5193130000000  0.4211560000000  0.4903080000000 1.0
C      1  0.5552800000000  0.4506740000000  0.5182780000000 1.0
C      1  0.4848080000000  0.4740120000000  0.4686120000000 1.0
C      1  0.4465760000000  0.5351120000000  0.5467360000000 1.0
C      1  0.4869480000000  0.5589040000000  0.4465570000000 1.0
C      1  0.4958130000000  0.4647090000000  0.4980760000000 1.0
C      1  0.5385050000000  0.4575940000000  0.4800740000000 1.0
C      1  0.4971320000000  0.4990630000000  0.4220250000000 1.0
C      1  0.4865080000000  0.5681660000000  0.5360740000000 1.0
C      1  0.5447060000000  0.4335470000000  0.4960190000000 1.0
C      1  0.5618690000000  0.4857810000000  0.5389270000000 1.0
C      1  0.4337330000000  0.4969810000000  0.5095990000000 1.0
C      1  0.5071630000000  0.5500270000000  0.5466980000000 1.0
C      1  0.4812480000000  0.5054700000000  0.5616180000000 1.0
C      1  0.5541920000000  0.5310630000000  0.5275490000000 1.0
C      1  0.5623290000000  0.4981970000000  0.4690520000000 1.0
C      1  0.4910580000000  0.4197410000000  0.4923350000000 1.0
C      1  0.5108560000000  0.5659620000000  0.4625200000000 1.0
C      1  0.4890090000000  0.5404010000000  0.4257970000000 1.0
C      1  0.4916600000000  0.4401010000000  0.5136910000000 1.0
C      1  0.4256340000000  0.4914170000000  0.4705540000000 1.0
C      1  0.5350040000000  0.4697180000000  0.5321470000000 1.0
END
