TITL C-884133-6611-30 623676.11027626 125000 -6919.62538590937 0 0 48 (C1) n - 1
REM
REM in /home/nfs/bkarasulu/CARBON/AIRSS/Generating-Clusters/ReaxFF-fromJPCA2015/Units_Real/with-SteepDescent/Only-C1/SD-CG/Try1-3A/FIRE-CG
REM
REM
REM
REM
REM
REM ./C.cell (11c1c37f851c82e70ff6c80c92926a4b)
REM
REM compiler GCC version 9.2.1 20190827 (Red Hat 9.2.1-1)
REM options -cpp -mtune=generic -march=x86-64 -g -O0 -fpre-include=/usr/include/finclude/math-vector-fortran.h
REM seed 1644725653 1081166238 -931456690 160805762 507210174 -2023459798 -414007203 -1522243336 933118519 858362960 1901762989 209750820 -676805184 -2010807628 542644920 1112288173 -562862335 188396293 -505335183 1085851152 223666933 537373433 1934585577 651044222 -1672834522 68150917 2141923100 -1688392446 -287268324 -1045024770 532639625 -1035097697 216662754
REM
CELL 1.54180   50.00000   50.00000   50.00000   90.00000   90.00000   90.00000
LATT -1
SFAC C  
C      1  0.5033280000000  0.5383710000000  0.4866890000000 1.0
C      1  0.5210970000000  0.5427040000000  0.5572520000000 1.0
C      1  0.4918650000000  0.5495580000000  0.4414610000000 1.0
C      1  0.5428220000000  0.4986190000000  0.4477010000000 1.0
C      1  0.5227810000000  0.5083230000000  0.5775440000000 1.0
C      1  0.5030710000000  0.5051110000000  0.4910870000000 1.0
C      1  0.4571740000000  0.5093170000000  0.5266200000000 1.0
C      1  0.5177260000000  0.4998760000000  0.5166450000000 1.0
C      1  0.4927580000000  0.5459280000000  0.5133530000000 1.0
C      1  0.5089400000000  0.5234320000000  0.5654650000000 1.0
C      1  0.5540700000000  0.4796230000000  0.4674160000000 1.0
C      1  0.5168410000000  0.5506370000000  0.5302130000000 1.0
C      1  0.5656090000000  0.5232260000000  0.4803890000000 1.0
C      1  0.4387980000000  0.4700000000000  0.4973390000000 1.0
C      1  0.5521120000000  0.5450050000000  0.4943830000000 1.0
C      1  0.5117490000000  0.4654110000000  0.5523890000000 1.0
C      1  0.4574970000000  0.5391790000000  0.4830460000000 1.0
C      1  0.5029540000000  0.5103690000000  0.5399820000000 1.0
C      1  0.4971050000000  0.4381980000000  0.4778770000000 1.0
C      1  0.4765470000000  0.5002030000000  0.5460100000000 1.0
C      1  0.5493790000000  0.5257640000000  0.4563530000000 1.0
C      1  0.5318640000000  0.4834630000000  0.5676330000000 1.0
C      1  0.5465560000000  0.4968930000000  0.5145340000000 1.0
C      1  0.4796900000000  0.4951700000000  0.4854370000000 1.0
C      1  0.5062430000000  0.4561260000000  0.4561130000000 1.0
C      1  0.4621590000000  0.4612510000000  0.5356160000000 1.0
C      1  0.4443720000000  0.5059200000000  0.4427830000000 1.0
C      1  0.5166400000000  0.4488530000000  0.5285980000000 1.0
C      1  0.4466000000000  0.4822690000000  0.5226110000000 1.0
C      1  0.4660570000000  0.5334070000000  0.5109240000000 1.0
C      1  0.4814700000000  0.5482300000000  0.4675240000000 1.0
C      1  0.4640350000000  0.4849710000000  0.4380970000000 1.0
C      1  0.5629270000000  0.4954840000000  0.4902310000000 1.0
C      1  0.5562380000000  0.4987460000000  0.5570480000000 1.0
C      1  0.4317870000000  0.4982360000000  0.4685510000000 1.0
C      1  0.5574630000000  0.5171730000000  0.5331200000000 1.0
C      1  0.5259020000000  0.4774070000000  0.4597910000000 1.0
C      1  0.4546520000000  0.4845250000000  0.4793880000000 1.0
C      1  0.4827810000000  0.4724740000000  0.5525110000000 1.0
C      1  0.5446800000000  0.5428740000000  0.5225390000000 1.0
C      1  0.5306640000000  0.5490840000000  0.4728010000000 1.0
C      1  0.4692400000000  0.4406530000000  0.5159180000000 1.0
C      1  0.4693720000000  0.4407350000000  0.4690890000000 1.0
C      1  0.4524730000000  0.4444070000000  0.4927700000000 1.0
C      1  0.4975020000000  0.4386530000000  0.5079000000000 1.0
C      1  0.4777120000000  0.4602680000000  0.4471780000000 1.0
C      1  0.5178450000000  0.5478650000000  0.4468030000000 1.0
C      1  0.4388530000000  0.5260130000000  0.4652790000000 1.0
END
