TITL C-884133-6611-49 -1612167.20681824 125000 -10271.7968442039 0 0 68 (C1) n - 1
REM
REM in /home/nfs/bkarasulu/CARBON/AIRSS/Generating-Clusters/ReaxFF-fromJPCA2015/Units_Real/with-SteepDescent/Only-C1/SD-CG/Try1-3A/FIRE-CG
REM
REM
REM
REM
REM
REM ./C.cell (11c1c37f851c82e70ff6c80c92926a4b)
REM
REM compiler GCC version 9.2.1 20190827 (Red Hat 9.2.1-1)
REM options -cpp -mtune=generic -march=x86-64 -g -O0 -fpre-include=/usr/include/finclude/math-vector-fortran.h
REM seed 478784725 -1571810411 -1473899035 966085856 -822093036 -2125856403 -1019654127 1323141967 -1558835565 1724077976 84037674 1244316581 -1363292798 1997726141 -1087398385 1335801416 -1391203780 -1505788047 -603716606 -552163913 -2109450069 -322826773 1482812461 330954293 -1718750906 -630245911 -1250152455 67740705 -1349297609 -826091525 -303836651 -466078146 1469557571
REM
CELL 1.54180   50.00000   50.00000   50.00000   90.00000   90.00000   90.00000
LATT -1
SFAC C  
C      1  0.5303250000000  0.4552730000000  0.5413510000000 1.0
C      1  0.4642090000000  0.4346420000000  0.4908430000000 1.0
C      1  0.5139430000000  0.4866640000000  0.4386260000000 1.0
C      1  0.5698600000000  0.4981910000000  0.5416720000000 1.0
C      1  0.4446880000000  0.4971120000000  0.5488300000000 1.0
C      1  0.5534260000000  0.4737460000000  0.4728780000000 1.0
C      1  0.4305400000000  0.4842440000000  0.4755590000000 1.0
C      1  0.4918620000000  0.4737600000000  0.5080260000000 1.0
C      1  0.4683900000000  0.5287250000000  0.4705200000000 1.0
C      1  0.5053480000000  0.4750560000000  0.5376730000000 1.0
C      1  0.5979370000000  0.4905420000000  0.5062730000000 1.0
C      1  0.4259340000000  0.4958740000000  0.5265830000000 1.0
C      1  0.5513090000000  0.5673980000000  0.5079970000000 1.0
C      1  0.5509100000000  0.5442950000000  0.5295150000000 1.0
C      1  0.4884700000000  0.4720780000000  0.4321310000000 1.0
C      1  0.5338510000000  0.5485260000000  0.5529580000000 1.0
C      1  0.4464230000000  0.4377150000000  0.5116740000000 1.0
C      1  0.4663560000000  0.4882290000000  0.5033210000000 1.0
C      1  0.5394300000000  0.5678960000000  0.4824230000000 1.0
C      1  0.4541500000000  0.5441500000000  0.5292210000000 1.0
C      1  0.4880980000000  0.4397130000000  0.5105300000000 1.0
C      1  0.4766510000000  0.4371850000000  0.5395030000000 1.0
C      1  0.5158230000000  0.5036560000000  0.5421070000000 1.0
C      1  0.5176130000000  0.5455930000000  0.5725400000000 1.0
C      1  0.5215310000000  0.5421440000000  0.4440590000000 1.0
C      1  0.5534860000000  0.4984770000000  0.5667480000000 1.0
C      1  0.5045360000000  0.5238030000000  0.5845890000000 1.0
C      1  0.4159620000000  0.5292970000000  0.4925760000000 1.0
C      1  0.5049430000000  0.4932190000000  0.4889740000000 1.0
C      1  0.4476570000000  0.4436730000000  0.5393550000000 1.0
C      1  0.4123030000000  0.5196440000000  0.5187880000000 1.0
C      1  0.5678680000000  0.4990020000000  0.4680770000000 1.0
C      1  0.5754910000000  0.5239390000000  0.5297750000000 1.0
C      1  0.5122580000000  0.5162420000000  0.4314030000000 1.0
C      1  0.4639620000000  0.4459630000000  0.4631590000000 1.0
C      1  0.4598130000000  0.5226710000000  0.5527150000000 1.0
C      1  0.4853480000000  0.5689990000000  0.4919850000000 1.0
C      1  0.4790260000000  0.5066730000000  0.4860820000000 1.0
C      1  0.5477880000000  0.5192020000000  0.4751220000000 1.0
C      1  0.4454360000000  0.5239990000000  0.4532900000000 1.0
C      1  0.5942590000000  0.5199370000000  0.5083860000000 1.0
C      1  0.5025060000000  0.5617040000000  0.4550410000000 1.0
C      1  0.4725130000000  0.5569630000000  0.5140570000000 1.0
C      1  0.4825480000000  0.4617930000000  0.5543050000000 1.0
C      1  0.5181420000000  0.4330230000000  0.4787620000000 1.0
C      1  0.5434760000000  0.5446530000000  0.4620430000000 1.0
C      1  0.4469230000000  0.4687310000000  0.4565410000000 1.0
C      1  0.4878060000000  0.4468070000000  0.4461810000000 1.0
C      1  0.4276800000000  0.5422800000000  0.5156870000000 1.0
C      1  0.4850490000000  0.5146700000000  0.4248260000000 1.0
C      1  0.5753860000000  0.4774920000000  0.5193230000000 1.0
C      1  0.4818490000000  0.5249730000000  0.5686470000000 1.0
C      1  0.5396570000000  0.4449900000000  0.5165410000000 1.0
C      1  0.5280630000000  0.5203810000000  0.5226630000000 1.0
C      1  0.5317350000000  0.4690420000000  0.4533180000000 1.0
C      1  0.4247870000000  0.5124760000000  0.4701470000000 1.0
C      1  0.4603130000000  0.4817970000000  0.4337630000000 1.0
C      1  0.5163590000000  0.4283600000000  0.5044510000000 1.0
C      1  0.5571170000000  0.4644670000000  0.5008680000000 1.0
C      1  0.4549320000000  0.4704370000000  0.5541940000000 1.0
C      1  0.5168560000000  0.4426660000000  0.4533320000000 1.0
C      1  0.5247180000000  0.5044070000000  0.5704700000000 1.0
C      1  0.4378960000000  0.4820780000000  0.5038300000000 1.0
C      1  0.4570840000000  0.5109110000000  0.4291310000000 1.0
C      1  0.5109860000000  0.5766770000000  0.4783580000000 1.0
C      1  0.4785050000000  0.5545600000000  0.4676620000000 1.0
C      1  0.5926380000000  0.5056720000000  0.4821240000000 1.0
C      1  0.5272660000000  0.5108410000000  0.4958970000000 1.0
END
