TITL C-883735-9890-362 62.2332072493679 125000 -27388.3643727697 0 0 183 (C1) n - 1
REM
REM in /home/nfs/bkarasulu/CARBON/AIRSS/Generating-Clusters/ReaxFF-fromJPCA2015/Units_Real/with-SteepDescent/Only-C1/SD-CG/Try1-3A/FIRE-CG
REM
REM
REM
REM
REM
REM ./C.cell (11c1c37f851c82e70ff6c80c92926a4b)
REM
REM compiler GCC version 9.2.1 20190827 (Red Hat 9.2.1-1)
REM options -cpp -mtune=generic -march=x86-64 -g -O0 -fpre-include=/usr/include/finclude/math-vector-fortran.h
REM seed -1601767582 302846537 1189987487 -1329091792 -858769770 -1418009344 745396482 1677315473 1049326149 -358445411 1110946255 -944574955 -462502227 1826895813 909684687 -548297315 302912714 1541923760 1735881999 1864154767 -1547305582 1779308428 517033221 -1644742604 -1170337177 -1790350356 1520739974 1469424543 1175352345 1132545160 -436499187 -1689727715 729818520
REM
CELL 1.54180   50.00000   50.00000   50.00000   90.00000   90.00000   90.00000
LATT -1
SFAC C  
C      1  0.5850250000000  0.4887770000000  0.5544040000000 1.0
C      1  0.4105580000000  0.4569650000000  0.5026870000000 1.0
C      1  0.4450400000000  0.5215110000000  0.5105380000000 1.0
C      1  0.4774790000000  0.4906580000000  0.4944950000000 1.0
C      1  0.4251540000000  0.4509030000000  0.4447980000000 1.0
C      1  0.4577610000000  0.6089070000000  0.5225560000000 1.0
C      1  0.5215200000000  0.5498180000000  0.5202680000000 1.0
C      1  0.4666980000000  0.5265490000000  0.4508050000000 1.0
C      1  0.5911190000000  0.5447400000000  0.4754940000000 1.0
C      1  0.6121350000000  0.4956290000000  0.4702500000000 1.0
C      1  0.5143770000000  0.5591160000000  0.5530520000000 1.0
C      1  0.5160460000000  0.4812140000000  0.4585500000000 1.0
C      1  0.4265040000000  0.4410430000000  0.5543930000000 1.0
C      1  0.5649290000000  0.4501810000000  0.4556810000000 1.0
C      1  0.4918850000000  0.5827020000000  0.5571970000000 1.0
C      1  0.5137920000000  0.4334340000000  0.5609580000000 1.0
C      1  0.4546500000000  0.4405900000000  0.5661740000000 1.0
C      1  0.5258430000000  0.5377710000000  0.5971650000000 1.0
C      1  0.5384520000000  0.4861480000000  0.6056380000000 1.0
C      1  0.5563870000000  0.4992580000000  0.4074670000000 1.0
C      1  0.5116560000000  0.4163960000000  0.5121050000000 1.0
C      1  0.4020590000000  0.4907150000000  0.4348680000000 1.0
C      1  0.5067350000000  0.5029780000000  0.5328730000000 1.0
C      1  0.4278430000000  0.4217900000000  0.5323070000000 1.0
C      1  0.5895790000000  0.5126400000000  0.5695700000000 1.0
C      1  0.5289510000000  0.5722260000000  0.4984710000000 1.0
C      1  0.4090150000000  0.4873820000000  0.5709470000000 1.0
C      1  0.4161020000000  0.5299100000000  0.5624350000000 1.0
C      1  0.5841140000000  0.5572420000000  0.5602940000000 1.0
C      1  0.4594950000000  0.4064820000000  0.4879470000000 1.0
C      1  0.4943250000000  0.5649440000000  0.5998070000000 1.0
C      1  0.5849790000000  0.5240140000000  0.4384950000000 1.0
C      1  0.4370520000000  0.5210940000000  0.4866440000000 1.0
C      1  0.4759430000000  0.4315120000000  0.4915090000000 1.0
C      1  0.4347180000000  0.4683150000000  0.4232000000000 1.0
C      1  0.4487630000000  0.4803410000000  0.5345910000000 1.0
C      1  0.4394520000000  0.4672410000000  0.5122500000000 1.0
C      1  0.5558200000000  0.4443710000000  0.4273990000000 1.0
C      1  0.5301980000000  0.5848280000000  0.4497280000000 1.0
C      1  0.5470970000000  0.5210360000000  0.5515670000000 1.0
C      1  0.4327730000000  0.4171270000000  0.4821220000000 1.0
C      1  0.4859050000000  0.5179390000000  0.4926930000000 1.0
C      1  0.5994080000000  0.4910010000000  0.4966730000000 1.0
C      1  0.5906590000000  0.4488880000000  0.5565040000000 1.0
C      1  0.4985630000000  0.4599770000000  0.4562880000000 1.0
C      1  0.4908890000000  0.5172150000000  0.3899690000000 1.0
C      1  0.5242600000000  0.5521230000000  0.4073510000000 1.0
C      1  0.5545540000000  0.5697820000000  0.4437470000000 1.0
C      1  0.5938200000000  0.4401720000000  0.5101030000000 1.0
C      1  0.5303680000000  0.5005650000000  0.3954360000000 1.0
C      1  0.5643140000000  0.4149290000000  0.4251460000000 1.0
C      1  0.4539000000000  0.5219710000000  0.5370400000000 1.0
C      1  0.4345390000000  0.4778080000000  0.4712850000000 1.0
C      1  0.4060710000000  0.5395390000000  0.4533220000000 1.0
C      1  0.4720480000000  0.5427700000000  0.5471390000000 1.0
C      1  0.4441070000000  0.5674440000000  0.5800740000000 1.0
C      1  0.5472800000000  0.5436160000000  0.5313480000000 1.0
C      1  0.4194200000000  0.4919190000000  0.4133990000000 1.0
C      1  0.5295930000000  0.4321560000000  0.4369060000000 1.0
C      1  0.5959010000000  0.5327660000000  0.5491400000000 1.0
C      1  0.4944420000000  0.5870460000000  0.5852440000000 1.0
C      1  0.5890650000000  0.4757300000000  0.4330420000000 1.0
C      1  0.5233620000000  0.5038310000000  0.4429230000000 1.0
C      1  0.4282700000000  0.4972930000000  0.5896330000000 1.0
C      1  0.5869790000000  0.4299880000000  0.5355770000000 1.0
C      1  0.5388600000000  0.5219280000000  0.4606770000000 1.0
C      1  0.4777630000000  0.4961080000000  0.5767840000000 1.0
C      1  0.5447710000000  0.5155020000000  0.5995590000000 1.0
C      1  0.5684910000000  0.4745970000000  0.4162300000000 1.0
C      1  0.5446140000000  0.4398050000000  0.5487670000000 1.0
C      1  0.4186770000000  0.4282660000000  0.5050890000000 1.0
C      1  0.4843230000000  0.6161170000000  0.5303010000000 1.0
C      1  0.4898240000000  0.3826220000000  0.5043190000000 1.0
C      1  0.4351080000000  0.5646220000000  0.4359610000000 1.0
C      1  0.4000070000000  0.5098650000000  0.5538620000000 1.0
C      1  0.5131750000000  0.5657850000000  0.4701740000000 1.0
C      1  0.5088550000000  0.4265510000000  0.5912320000000 1.0
C      1  0.4965340000000  0.6091010000000  0.5050850000000 1.0
C      1  0.4617270000000  0.5736140000000  0.4248890000000 1.0
C      1  0.6069880000000  0.4714850000000  0.4536510000000 1.0
C      1  0.5221650000000  0.6137990000000  0.4518520000000 1.0
C      1  0.6032590000000  0.5224060000000  0.4585970000000 1.0
C      1  0.4396810000000  0.4272950000000  0.4548170000000 1.0
C      1  0.4824170000000  0.4908420000000  0.3970470000000 1.0
C      1  0.5629570000000  0.5208160000000  0.5776830000000 1.0
C      1  0.4755650000000  0.5155180000000  0.5983720000000 1.0
C      1  0.4849470000000  0.4114530000000  0.4232500000000 1.0
C      1  0.4992130000000  0.4589240000000  0.5559740000000 1.0
C      1  0.5626920000000  0.4523000000000  0.5698340000000 1.0
C      1  0.4582920000000  0.4964510000000  0.5537800000000 1.0
C      1  0.5090640000000  0.4277830000000  0.4160400000000 1.0
C      1  0.4387950000000  0.5795780000000  0.5031050000000 1.0
C      1  0.3984800000000  0.5223810000000  0.5023650000000 1.0
C      1  0.3933560000000  0.4904980000000  0.4611110000000 1.0
C      1  0.5350550000000  0.4582680000000  0.5228350000000 1.0
C      1  0.4594600000000  0.5694510000000  0.5532880000000 1.0
C      1  0.4571050000000  0.5286800000000  0.4242010000000 1.0
C      1  0.4772880000000  0.5583210000000  0.4072530000000 1.0
C      1  0.5490960000000  0.4833310000000  0.5173280000000 1.0
C      1  0.5476550000000  0.3952300000000  0.4979450000000 1.0
C      1  0.4096540000000  0.4658300000000  0.4696750000000 1.0
C      1  0.4190900000000  0.5643830000000  0.4607920000000 1.0
C      1  0.5156910000000  0.5121840000000  0.5580300000000 1.0
C      1  0.5733220000000  0.4923370000000  0.4822570000000 1.0
C      1  0.4195690000000  0.5414240000000  0.4265570000000 1.0
C      1  0.4801000000000  0.5943570000000  0.4815900000000 1.0
C      1  0.5296510000000  0.6030480000000  0.5386750000000 1.0
C      1  0.4488020000000  0.5088110000000  0.6017170000000 1.0
C      1  0.5032090000000  0.6073720000000  0.5523070000000 1.0
C      1  0.5601820000000  0.4118850000000  0.4797630000000 1.0
C      1  0.4833140000000  0.4582160000000  0.4307920000000 1.0
C      1  0.5561080000000  0.5159110000000  0.4841300000000 1.0
C      1  0.5849320000000  0.4285470000000  0.4845080000000 1.0
C      1  0.5526650000000  0.3932760000000  0.5269930000000 1.0
C      1  0.5081700000000  0.4796030000000  0.3934760000000 1.0
C      1  0.4852890000000  0.4715490000000  0.5135350000000 1.0
C      1  0.4961460000000  0.4496460000000  0.6038290000000 1.0
C      1  0.5588440000000  0.5709250000000  0.5678890000000 1.0
C      1  0.5881500000000  0.5198780000000  0.5224750000000 1.0
C      1  0.3971430000000  0.5024040000000  0.5249970000000 1.0
C      1  0.5664520000000  0.4995350000000  0.5349050000000 1.0
C      1  0.4625850000000  0.4986170000000  0.4490230000000 1.0
C      1  0.5032160000000  0.4826500000000  0.5735760000000 1.0
C      1  0.5356270000000  0.5004300000000  0.4991070000000 1.0
C      1  0.4635250000000  0.3894300000000  0.5127060000000 1.0
C      1  0.4001600000000  0.4738910000000  0.5259840000000 1.0
C      1  0.5111630000000  0.4086760000000  0.5402730000000 1.0
C      1  0.6027410000000  0.4712170000000  0.5427970000000 1.0
C      1  0.4187340000000  0.5676840000000  0.4887260000000 1.0
C      1  0.4884390000000  0.3969410000000  0.4481690000000 1.0
C      1  0.4551950000000  0.6004070000000  0.4957740000000 1.0
C      1  0.5307590000000  0.4792120000000  0.4819560000000 1.0
C      1  0.5394910000000  0.4103020000000  0.4546030000000 1.0
C      1  0.4092620000000  0.4644070000000  0.5523220000000 1.0
C      1  0.5584990000000  0.5737390000000  0.4941520000000 1.0
C      1  0.5052700000000  0.5259510000000  0.4377570000000 1.0
C      1  0.5493230000000  0.5511700000000  0.4214440000000 1.0
C      1  0.5117710000000  0.4752870000000  0.6005350000000 1.0
C      1  0.4126260000000  0.5644210000000  0.5320960000000 1.0
C      1  0.4023230000000  0.5507350000000  0.5557910000000 1.0
C      1  0.5008520000000  0.4421960000000  0.4799260000000 1.0
C      1  0.5930440000000  0.4452840000000  0.4615200000000 1.0
C      1  0.5703580000000  0.5646710000000  0.4689070000000 1.0
C      1  0.4374770000000  0.5805020000000  0.5318220000000 1.0
C      1  0.5100390000000  0.5208540000000  0.5098570000000 1.0
C      1  0.5513480000000  0.4690690000000  0.5879510000000 1.0
C      1  0.5144350000000  0.3970090000000  0.4615070000000 1.0
C      1  0.5624340000000  0.4181150000000  0.5394070000000 1.0
C      1  0.4539240000000  0.4081300000000  0.5346350000000 1.0
C      1  0.4745560000000  0.4448740000000  0.5169470000000 1.0
C      1  0.4823090000000  0.5321870000000  0.4136290000000 1.0
C      1  0.4977490000000  0.5356120000000  0.5570250000000 1.0
C      1  0.5209800000000  0.4409310000000  0.5018780000000 1.0
C      1  0.5570010000000  0.4706060000000  0.4740850000000 1.0
C      1  0.4541820000000  0.4744860000000  0.4887770000000 1.0
C      1  0.5637080000000  0.5671800000000  0.5225960000000 1.0
C      1  0.5186040000000  0.5269030000000  0.3926840000000 1.0
C      1  0.4321310000000  0.5197200000000  0.4124190000000 1.0
C      1  0.4633920000000  0.4135540000000  0.4427300000000 1.0
C      1  0.5059060000000  0.4741720000000  0.5321620000000 1.0
C      1  0.3980800000000  0.5180570000000  0.4727680000000 1.0
C      1  0.5173060000000  0.5407460000000  0.4586460000000 1.0
C      1  0.4995460000000  0.4536610000000  0.4066230000000 1.0
C      1  0.4933170000000  0.6054740000000  0.4535300000000 1.0
C      1  0.4862010000000  0.5890020000000  0.4307050000000 1.0
C      1  0.4691040000000  0.4463100000000  0.5904480000000 1.0
C      1  0.4860430000000  0.5660520000000  0.4768630000000 1.0
C      1  0.5288210000000  0.3870280000000  0.5419120000000 1.0
C      1  0.5337790000000  0.5572740000000  0.5757460000000 1.0
C      1  0.4737340000000  0.5396160000000  0.4771240000000 1.0
C      1  0.4384240000000  0.5019310000000  0.4647210000000 1.0
C      1  0.4966730000000  0.5376840000000  0.6049570000000 1.0
C      1  0.4193140000000  0.5528670000000  0.5812670000000 1.0
C      1  0.5012370000000  0.5714290000000  0.4116260000000 1.0
C      1  0.5157240000000  0.3897670000000  0.4912720000000 1.0
C      1  0.4644850000000  0.4801640000000  0.4235720000000 1.0
C      1  0.5783200000000  0.5347810000000  0.4999140000000 1.0
C      1  0.5535790000000  0.5868290000000  0.5432650000000 1.0
C      1  0.6034300000000  0.4671080000000  0.5141640000000 1.0
C      1  0.5663440000000  0.5260610000000  0.4186600000000 1.0
C      1  0.4050100000000  0.5509680000000  0.5078100000000 1.0
C      1  0.4710510000000  0.4304730000000  0.5426360000000 1.0
C      1  0.5228570000000  0.6001190000000  0.5106910000000 1.0
END
