TITL C-884127-5181-63 13.9891779401964 125000 -13492.3299472475 0 0 90 (C1) n - 1
REM
REM in /home/nfs/bkarasulu/CARBON/AIRSS/Generating-Clusters/ReaxFF-fromJPCA2015/Units_Real/with-SteepDescent/Only-C1/SD-CG/Try1-3A/FIRE-CG
REM
REM
REM
REM
REM
REM ./C.cell (11c1c37f851c82e70ff6c80c92926a4b)
REM
REM compiler GCC version 9.2.1 20190827 (Red Hat 9.2.1-1)
REM options -cpp -mtune=generic -march=x86-64 -g -O0 -fpre-include=/usr/include/finclude/math-vector-fortran.h
REM seed -627611367 393400015 249498915 -1301673739 -2068387508 -1239616383 2135796839 1533387049 -1404316013 65756806 1911235646 -844059026 582860607 144359778 20225233 1700112128 -90316800 -1650928823 379562101 -128904101 -434356415 -1907046936 -1517736316 1987903122 -1115524997 -1364660155 1578002140 -963940346 914952651 -2037505447 366336410 -92076768 1369668224
REM
CELL 1.54180   50.00000   50.00000   50.00000   90.00000   90.00000   90.00000
LATT -1
SFAC C  
C      1  0.4374870000000  0.5178240000000  0.5366070000000 1.0
C      1  0.4988630000000  0.5861980000000  0.4752110000000 1.0
C      1  0.5686230000000  0.5075350000000  0.5235960000000 1.0
C      1  0.5220140000000  0.4464560000000  0.5637920000000 1.0
C      1  0.4668970000000  0.4173840000000  0.5136080000000 1.0
C      1  0.5309210000000  0.4744340000000  0.4829670000000 1.0
C      1  0.4239920000000  0.4712230000000  0.4861730000000 1.0
C      1  0.4805320000000  0.4248260000000  0.5393820000000 1.0
C      1  0.4231170000000  0.4703380000000  0.5368800000000 1.0
C      1  0.5114310000000  0.4968120000000  0.4769350000000 1.0
C      1  0.5454640000000  0.5709910000000  0.5199550000000 1.0
C      1  0.4688520000000  0.4849020000000  0.5491640000000 1.0
C      1  0.5039690000000  0.5010970000000  0.5410820000000 1.0
C      1  0.5583750000000  0.4861000000000  0.4364750000000 1.0
C      1  0.5471810000000  0.4319300000000  0.4783390000000 1.0
C      1  0.4525470000000  0.5643970000000  0.5579080000000 1.0
C      1  0.5677220000000  0.5126860000000  0.4474590000000 1.0
C      1  0.5282650000000  0.5344210000000  0.4257730000000 1.0
C      1  0.5560230000000  0.5599660000000  0.4454360000000 1.0
C      1  0.4845800000000  0.4532040000000  0.4429000000000 1.0
C      1  0.4741680000000  0.4628910000000  0.4907160000000 1.0
C      1  0.5474460000000  0.5763730000000  0.4663600000000 1.0
C      1  0.4745080000000  0.4187900000000  0.4852030000000 1.0
C      1  0.5106380000000  0.5527070000000  0.4400200000000 1.0
C      1  0.5494080000000  0.5610140000000  0.4922050000000 1.0
C      1  0.4143390000000  0.4822260000000  0.5105470000000 1.0
C      1  0.4833960000000  0.4869060000000  0.4765300000000 1.0
C      1  0.4634070000000  0.4411050000000  0.5565340000000 1.0
C      1  0.5188020000000  0.5064040000000  0.4182850000000 1.0
C      1  0.5917800000000  0.4778320000000  0.4977690000000 1.0
C      1  0.4385450000000  0.4608710000000  0.4648360000000 1.0
C      1  0.4427780000000  0.4767350000000  0.4409240000000 1.0
C      1  0.5188240000000  0.5767020000000  0.4559880000000 1.0
C      1  0.4936600000000  0.5050920000000  0.4024880000000 1.0
C      1  0.4922280000000  0.5280550000000  0.5486550000000 1.0
C      1  0.5144980000000  0.5247490000000  0.4764370000000 1.0
C      1  0.5038400000000  0.5938430000000  0.5041870000000 1.0
C      1  0.4167920000000  0.5121170000000  0.5139660000000 1.0
C      1  0.5180150000000  0.4961280000000  0.5794490000000 1.0
C      1  0.5332200000000  0.4530350000000  0.4629770000000 1.0
C      1  0.5314800000000  0.5935270000000  0.5103960000000 1.0
C      1  0.4369020000000  0.5571780000000  0.4953070000000 1.0
C      1  0.4654530000000  0.4661220000000  0.4251460000000 1.0
C      1  0.4909920000000  0.5394890000000  0.4586250000000 1.0
C      1  0.5806690000000  0.5060800000000  0.4984900000000 1.0
C      1  0.5769910000000  0.4599270000000  0.5147740000000 1.0
C      1  0.5712830000000  0.4415770000000  0.4920330000000 1.0
C      1  0.5584180000000  0.5016030000000  0.5473250000000 1.0
C      1  0.5409450000000  0.5333370000000  0.4846310000000 1.0
C      1  0.4635860000000  0.5085120000000  0.4802450000000 1.0
C      1  0.4736860000000  0.5124910000000  0.5071120000000 1.0
C      1  0.5285460000000  0.4813440000000  0.4307070000000 1.0
C      1  0.5221900000000  0.5624190000000  0.5371110000000 1.0
C      1  0.4550010000000  0.4634310000000  0.5120590000000 1.0
C      1  0.5744960000000  0.4719510000000  0.4533990000000 1.0
C      1  0.4655180000000  0.5222700000000  0.4549220000000 1.0
C      1  0.5647400000000  0.5174480000000  0.4761380000000 1.0
C      1  0.4678660000000  0.4936120000000  0.4118070000000 1.0
C      1  0.4977010000000  0.5783510000000  0.5293100000000 1.0
C      1  0.4486930000000  0.5710270000000  0.4714390000000 1.0
C      1  0.4779070000000  0.5683890000000  0.4665580000000 1.0
C      1  0.4690120000000  0.5737110000000  0.5349780000000 1.0
C      1  0.4984070000000  0.5122800000000  0.5958280000000 1.0
C      1  0.4171420000000  0.5336480000000  0.4947600000000 1.0
C      1  0.4367160000000  0.5401590000000  0.5580870000000 1.0
C      1  0.5653270000000  0.4702560000000  0.5419710000000 1.0
C      1  0.5447520000000  0.4577580000000  0.5528800000000 1.0
C      1  0.4589150000000  0.5556780000000  0.5145260000000 1.0
C      1  0.5238040000000  0.4358280000000  0.5179670000000 1.0
C      1  0.5576620000000  0.5359510000000  0.4312080000000 1.0
C      1  0.4814600000000  0.5285840000000  0.5776150000000 1.0
C      1  0.4434220000000  0.4887030000000  0.5406060000000 1.0
C      1  0.4659360000000  0.5306660000000  0.5253380000000 1.0
C      1  0.5270220000000  0.4645350000000  0.5101580000000 1.0
C      1  0.4364270000000  0.4447190000000  0.5442930000000 1.0
C      1  0.5011400000000  0.4135530000000  0.4894170000000 1.0
C      1  0.5090570000000  0.4295660000000  0.5422030000000 1.0
C      1  0.4563900000000  0.5434140000000  0.5789820000000 1.0
C      1  0.4447580000000  0.4367080000000  0.5173410000000 1.0
C      1  0.5159220000000  0.4893520000000  0.5186980000000 1.0
C      1  0.5210540000000  0.5370740000000  0.5511530000000 1.0
C      1  0.5355190000000  0.5138700000000  0.5619280000000 1.0
C      1  0.5885210000000  0.4592150000000  0.4739520000000 1.0
C      1  0.4675240000000  0.4447280000000  0.4671500000000 1.0
C      1  0.4529840000000  0.5050070000000  0.4353080000000 1.0
C      1  0.5061170000000  0.4689150000000  0.5745670000000 1.0
C      1  0.5283810000000  0.4165360000000  0.4954950000000 1.0
C      1  0.4778460000000  0.4643960000000  0.5675110000000 1.0
C      1  0.5134850000000  0.4583480000000  0.4410450000000 1.0
C      1  0.4850870000000  0.4904600000000  0.5237860000000 1.0
END
