TITL C-884139-6216-196 -12.7619757263894 125000 -24929.9764985384 0 0 166 (C1) n - 1
REM
REM in /home/nfs/bkarasulu/CARBON/AIRSS/Generating-Clusters/ReaxFF-fromJPCA2015/Units_Real/with-SteepDescent/Only-C1/SD-CG/Try1-3A/FIRE-CG
REM
REM
REM
REM
REM
REM ./C.cell (11c1c37f851c82e70ff6c80c92926a4b)
REM
REM compiler GCC version 9.2.1 20190827 (Red Hat 9.2.1-1)
REM options -cpp -mtune=generic -march=x86-64 -g -O0 -fpre-include=/usr/include/finclude/math-vector-fortran.h
REM seed -392961389 1907869554 288237175 64042161 1787533651 -279843346 -1054435680 -675600250 908438844 -2101777485 -2090619799 -915572073 -405587939 1171937296 -655674248 1687761546 1590252935 1719713716 -1252111190 1156365290 653461529 -690141238 -1694328121 -1239948826 -1260713438 1351344872 -1938946418 -740976991 683226396 2048131928 997830255 -284885285 17964094
REM
CELL 1.54180   50.00000   50.00000   50.00000   90.00000   90.00000   90.00000
LATT -1
SFAC C  
C      1  0.4376380000000  0.4185650000000  0.4636620000000 1.0
C      1  0.5256680000000  0.3807130000000  0.4773290000000 1.0
C      1  0.5301150000000  0.3989690000000  0.4547580000000 1.0
C      1  0.4705780000000  0.5184230000000  0.6120840000000 1.0
C      1  0.4817390000000  0.4700570000000  0.4049900000000 1.0
C      1  0.4293440000000  0.4608100000000  0.5860910000000 1.0
C      1  0.5631890000000  0.5960580000000  0.5135790000000 1.0
C      1  0.5018950000000  0.4507320000000  0.5705050000000 1.0
C      1  0.4335340000000  0.4322880000000  0.4960440000000 1.0
C      1  0.4882680000000  0.4518300000000  0.4279680000000 1.0
C      1  0.5044220000000  0.5586180000000  0.5814020000000 1.0
C      1  0.5197380000000  0.6159340000000  0.5467170000000 1.0
C      1  0.5395590000000  0.5556280000000  0.4850300000000 1.0
C      1  0.5657360000000  0.4469380000000  0.4614460000000 1.0
C      1  0.4652040000000  0.3972860000000  0.5000060000000 1.0
C      1  0.4754800000000  0.4379170000000  0.5739770000000 1.0
C      1  0.4871320000000  0.5078260000000  0.5250630000000 1.0
C      1  0.5394880000000  0.5246520000000  0.5718360000000 1.0
C      1  0.5884530000000  0.4956040000000  0.5269800000000 1.0
C      1  0.4501720000000  0.4254910000000  0.4336910000000 1.0
C      1  0.5648660000000  0.4528050000000  0.4309890000000 1.0
C      1  0.4900410000000  0.4130990000000  0.4972580000000 1.0
C      1  0.4353050000000  0.5551590000000  0.5260580000000 1.0
C      1  0.4863970000000  0.5741870000000  0.4663930000000 1.0
C      1  0.5718030000000  0.5187980000000  0.5729720000000 1.0
C      1  0.4923950000000  0.5111130000000  0.4360340000000 1.0
C      1  0.5754160000000  0.4913420000000  0.5709250000000 1.0
C      1  0.6220100000000  0.4924710000000  0.4794260000000 1.0
C      1  0.5835100000000  0.5524600000000  0.4898890000000 1.0
C      1  0.4520200000000  0.5225780000000  0.5408380000000 1.0
C      1  0.4128900000000  0.5356820000000  0.5643770000000 1.0
C      1  0.5889900000000  0.5344680000000  0.4656890000000 1.0
C      1  0.5649750000000  0.5752400000000  0.4382640000000 1.0
C      1  0.4801230000000  0.4792650000000  0.5359330000000 1.0
C      1  0.4906580000000  0.4747380000000  0.4708470000000 1.0
C      1  0.4501540000000  0.6040640000000  0.4975440000000 1.0
C      1  0.4693290000000  0.4955470000000  0.4806280000000 1.0
C      1  0.4610810000000  0.4901140000000  0.6159640000000 1.0
C      1  0.5049930000000  0.4863030000000  0.4007720000000 1.0
C      1  0.5299320000000  0.4976530000000  0.5645220000000 1.0
C      1  0.4511510000000  0.5461040000000  0.4245920000000 1.0
C      1  0.5277610000000  0.4696910000000  0.4075130000000 1.0
C      1  0.5369470000000  0.4973570000000  0.5128960000000 1.0
C      1  0.3735890000000  0.4792610000000  0.4891330000000 1.0
C      1  0.4794290000000  0.4014600000000  0.4533040000000 1.0
C      1  0.5571980000000  0.5349760000000  0.4924140000000 1.0
C      1  0.4767770000000  0.4117090000000  0.5601080000000 1.0
C      1  0.4062030000000  0.4418470000000  0.4982300000000 1.0
C      1  0.5089940000000  0.5209180000000  0.4565640000000 1.0
C      1  0.4888830000000  0.6030610000000  0.4748160000000 1.0
C      1  0.5762240000000  0.4642080000000  0.5642240000000 1.0
C      1  0.4100450000000  0.5564790000000  0.4899920000000 1.0
C      1  0.3952980000000  0.5480740000000  0.5137570000000 1.0
C      1  0.5154870000000  0.6147830000000  0.5169920000000 1.0
C      1  0.5403450000000  0.4881400000000  0.5397380000000 1.0
C      1  0.4501030000000  0.4522980000000  0.5661410000000 1.0
C      1  0.4514210000000  0.4721700000000  0.4035100000000 1.0
C      1  0.5431710000000  0.5738690000000  0.4217770000000 1.0
C      1  0.4642400000000  0.5029530000000  0.4378630000000 1.0
C      1  0.5546140000000  0.4768660000000  0.4190280000000 1.0
C      1  0.4978430000000  0.5302100000000  0.5395190000000 1.0
C      1  0.5397910000000  0.4236050000000  0.4928880000000 1.0
C      1  0.4753860000000  0.5598130000000  0.4162110000000 1.0
C      1  0.5531180000000  0.4064480000000  0.4389720000000 1.0
C      1  0.4465260000000  0.4121320000000  0.5175050000000 1.0
C      1  0.4415210000000  0.5411360000000  0.4534430000000 1.0
C      1  0.3804510000000  0.5234240000000  0.5052230000000 1.0
C      1  0.4038810000000  0.5146520000000  0.4889090000000 1.0
C      1  0.5514450000000  0.4224210000000  0.5497960000000 1.0
C      1  0.4913250000000  0.6057380000000  0.5049630000000 1.0
C      1  0.3880730000000  0.4556840000000  0.4962140000000 1.0
C      1  0.4855100000000  0.4736520000000  0.6188770000000 1.0
C      1  0.5146940000000  0.4513220000000  0.5237920000000 1.0
C      1  0.5390170000000  0.4421800000000  0.5132080000000 1.0
C      1  0.5176810000000  0.5871940000000  0.4344350000000 1.0
C      1  0.4495120000000  0.5375230000000  0.6048330000000 1.0
C      1  0.5088200000000  0.4902710000000  0.6084040000000 1.0
C      1  0.5398160000000  0.4874800000000  0.4867260000000 1.0
C      1  0.5407040000000  0.6036660000000  0.4744770000000 1.0
C      1  0.5337070000000  0.5283910000000  0.4439440000000 1.0
C      1  0.5611670000000  0.5049940000000  0.5274510000000 1.0
C      1  0.4339220000000  0.5919410000000  0.4585810000000 1.0
C      1  0.4364500000000  0.5459410000000  0.5793400000000 1.0
C      1  0.5498040000000  0.4302020000000  0.4207850000000 1.0
C      1  0.5474420000000  0.3817030000000  0.4974350000000 1.0
C      1  0.4491470000000  0.4579180000000  0.5040730000000 1.0
C      1  0.4585960000000  0.5410610000000  0.5606680000000 1.0
C      1  0.4924810000000  0.4345030000000  0.5195160000000 1.0
C      1  0.5194560000000  0.4751230000000  0.4712660000000 1.0
C      1  0.5202350000000  0.5457580000000  0.5282420000000 1.0
C      1  0.5854470000000  0.4491500000000  0.5160420000000 1.0
C      1  0.5401600000000  0.5437810000000  0.5480460000000 1.0
C      1  0.4989870000000  0.5159390000000  0.4090580000000 1.0
C      1  0.4517060000000  0.5158120000000  0.4605060000000 1.0
C      1  0.5222460000000  0.5319180000000  0.4178950000000 1.0
C      1  0.5005700000000  0.5183110000000  0.6064040000000 1.0
C      1  0.5387160000000  0.5958970000000  0.5565040000000 1.0
C      1  0.4245790000000  0.4921290000000  0.4291200000000 1.0
C      1  0.5436840000000  0.5472010000000  0.4047960000000 1.0
C      1  0.5637290000000  0.5184960000000  0.4516610000000 1.0
C      1  0.5407430000000  0.6112370000000  0.5025410000000 1.0
C      1  0.5635770000000  0.4312030000000  0.5248410000000 1.0
C      1  0.4159980000000  0.5064400000000  0.5656580000000 1.0
C      1  0.5617120000000  0.5259520000000  0.4090040000000 1.0
C      1  0.4660770000000  0.5959420000000  0.5196370000000 1.0
C      1  0.4558250000000  0.6100120000000  0.4708380000000 1.0
C      1  0.4951620000000  0.5563260000000  0.4875420000000 1.0
C      1  0.4995160000000  0.5295630000000  0.4825130000000 1.0
C      1  0.5564060000000  0.5089740000000  0.4786630000000 1.0
C      1  0.4399310000000  0.4997370000000  0.5507820000000 1.0
C      1  0.5858600000000  0.4551170000000  0.4872470000000 1.0
C      1  0.5532150000000  0.4442750000000  0.5684170000000 1.0
C      1  0.4699190000000  0.5326970000000  0.4069370000000 1.0
C      1  0.3642490000000  0.4989320000000  0.5103300000000 1.0
C      1  0.3914590000000  0.4946410000000  0.4700160000000 1.0
C      1  0.6099890000000  0.5222180000000  0.4807460000000 1.0
C      1  0.5360820000000  0.4534440000000  0.4648930000000 1.0
C      1  0.4825940000000  0.4515340000000  0.4565070000000 1.0
C      1  0.4545540000000  0.4193470000000  0.5434740000000 1.0
C      1  0.4573680000000  0.3962960000000  0.4718630000000 1.0
C      1  0.4470950000000  0.4488480000000  0.4192120000000 1.0
C      1  0.6033480000000  0.4723260000000  0.4850170000000 1.0
C      1  0.4146740000000  0.4863650000000  0.5868910000000 1.0
C      1  0.5232500000000  0.4265850000000  0.4676030000000 1.0
C      1  0.5077570000000  0.4674390000000  0.5469400000000 1.0
C      1  0.4297590000000  0.5090650000000  0.5019640000000 1.0
C      1  0.5655940000000  0.5573340000000  0.5475350000000 1.0
C      1  0.4107090000000  0.5505650000000  0.5392660000000 1.0
C      1  0.4731210000000  0.4564320000000  0.5183520000000 1.0
C      1  0.5688190000000  0.4158830000000  0.4615500000000 1.0
C      1  0.5544740000000  0.5775000000000  0.4705800000000 1.0
C      1  0.4918200000000  0.4250070000000  0.4687230000000 1.0
C      1  0.6049370000000  0.5362750000000  0.5054120000000 1.0
C      1  0.4330650000000  0.6065190000000  0.4378110000000 1.0
C      1  0.5180980000000  0.5359560000000  0.5924960000000 1.0
C      1  0.5181990000000  0.5589850000000  0.5026680000000 1.0
C      1  0.4862320000000  0.5455260000000  0.5616210000000 1.0
C      1  0.5625300000000  0.4056320000000  0.4882850000000 1.0
C      1  0.4440140000000  0.4850390000000  0.4943430000000 1.0
C      1  0.4452980000000  0.5315870000000  0.5154440000000 1.0
C      1  0.5061520000000  0.3872420000000  0.4991260000000 1.0
C      1  0.5275550000000  0.3861240000000  0.5192900000000 1.0
C      1  0.5244550000000  0.4401270000000  0.4102810000000 1.0
C      1  0.5172210000000  0.5853970000000  0.5758890000000 1.0
C      1  0.4464100000000  0.5001820000000  0.4132520000000 1.0
C      1  0.5901760000000  0.4683980000000  0.5381710000000 1.0
C      1  0.5612490000000  0.5858050000000  0.5412160000000 1.0
C      1  0.5275590000000  0.4807350000000  0.5881330000000 1.0
C      1  0.5277510000000  0.4040380000000  0.5434750000000 1.0
C      1  0.5675730000000  0.5032370000000  0.4247070000000 1.0
C      1  0.4991670000000  0.6083780000000  0.5682850000000 1.0
C      1  0.5854020000000  0.5363700000000  0.5541510000000 1.0
C      1  0.4069790000000  0.4908320000000  0.4479050000000 1.0
C      1  0.4565110000000  0.4775200000000  0.5533950000000 1.0
C      1  0.5163930000000  0.6035780000000  0.4579270000000 1.0
C      1  0.5988780000000  0.5229160000000  0.5311960000000 1.0
C      1  0.4976160000000  0.4279290000000  0.4141010000000 1.0
C      1  0.5287920000000  0.4519490000000  0.5827560000000 1.0
C      1  0.4341990000000  0.4791220000000  0.6078600000000 1.0
C      1  0.4538010000000  0.5712520000000  0.5200070000000 1.0
C      1  0.4249810000000  0.5612750000000  0.4678990000000 1.0
C      1  0.4927150000000  0.5726100000000  0.4375500000000 1.0
C      1  0.4760750000000  0.4118900000000  0.4267450000000 1.0
C      1  0.4855760000000  0.5118140000000  0.4978760000000 1.0
C      1  0.5005320000000  0.4132520000000  0.5433880000000 1.0
C      1  0.5737940000000  0.5828990000000  0.4904600000000 1.0
END
