TITL C-883733-4178-220 22.6894685199151 125000 -25740.4211118578 0 0 174 (C1) n - 1
REM
REM in /home/nfs/bkarasulu/CARBON/AIRSS/Generating-Clusters/ReaxFF-fromJPCA2015/Units_Real/with-SteepDescent/Only-C1/SD-CG/Try1-3A/FIRE-CG
REM
REM
REM
REM
REM
REM ./C.cell (11c1c37f851c82e70ff6c80c92926a4b)
REM
REM compiler GCC version 9.2.1 20190827 (Red Hat 9.2.1-1)
REM options -cpp -mtune=generic -march=x86-64 -g -O0 -fpre-include=/usr/include/finclude/math-vector-fortran.h
REM seed 990464704 1882515832 -1636830923 -2029312302 -2124904788 1047195398 -554494232 734132077 937076712 -645528329 -1234534278 367346258 1423283947 -1301251536 -967312001 -229322897 1770513579 1822378958 1149624233 543520589 -570713827 1793858562 -1763346222 -639342927 -457649187 -2144501964 -134277004 671900789 678314693 1425511213 500453334 1092413990 1355283348
REM
CELL 1.54180   50.00000   50.00000   50.00000   90.00000   90.00000   90.00000
LATT -1
SFAC C  
C      1  0.4238210000000  0.4249840000000  0.5433410000000 1.0
C      1  0.4499680000000  0.5841810000000  0.5176760000000 1.0
C      1  0.4679770000000  0.4967750000000  0.4387170000000 1.0
C      1  0.5361400000000  0.4573460000000  0.4166390000000 1.0
C      1  0.5294230000000  0.5416210000000  0.3929180000000 1.0
C      1  0.5387970000000  0.4942140000000  0.4426730000000 1.0
C      1  0.4267480000000  0.5089970000000  0.4909240000000 1.0
C      1  0.5241640000000  0.6065310000000  0.4494280000000 1.0
C      1  0.4605050000000  0.4617930000000  0.4086050000000 1.0
C      1  0.4517250000000  0.5693570000000  0.4301410000000 1.0
C      1  0.4653460000000  0.5398700000000  0.4600760000000 1.0
C      1  0.6048310000000  0.4935250000000  0.5066790000000 1.0
C      1  0.5885810000000  0.4751500000000  0.5513020000000 1.0
C      1  0.5118510000000  0.4722160000000  0.6101900000000 1.0
C      1  0.4693530000000  0.5980590000000  0.5021080000000 1.0
C      1  0.5155260000000  0.5635840000000  0.4242670000000 1.0
C      1  0.5508060000000  0.4587210000000  0.4740000000000 1.0
C      1  0.5153750000000  0.4211540000000  0.5924410000000 1.0
C      1  0.4681000000000  0.5203200000000  0.4831000000000 1.0
C      1  0.4913650000000  0.4840010000000  0.4306010000000 1.0
C      1  0.5775200000000  0.5644160000000  0.5126880000000 1.0
C      1  0.4389720000000  0.5610760000000  0.5627670000000 1.0
C      1  0.5376150000000  0.4618490000000  0.6072700000000 1.0
C      1  0.5045250000000  0.5205140000000  0.5093050000000 1.0
C      1  0.4645330000000  0.4591700000000  0.5994010000000 1.0
C      1  0.4281740000000  0.5649050000000  0.4500100000000 1.0
C      1  0.5956600000000  0.4947910000000  0.4540710000000 1.0
C      1  0.4931040000000  0.5336360000000  0.4906550000000 1.0
C      1  0.5661500000000  0.4149720000000  0.4785730000000 1.0
C      1  0.4318510000000  0.5129000000000  0.5771100000000 1.0
C      1  0.4884410000000  0.4111630000000  0.5893330000000 1.0
C      1  0.4916910000000  0.4717670000000  0.5620790000000 1.0
C      1  0.4596810000000  0.5920430000000  0.4748130000000 1.0
C      1  0.4850120000000  0.4801610000000  0.6097960000000 1.0
C      1  0.4932850000000  0.4191930000000  0.5480910000000 1.0
C      1  0.5918800000000  0.4448430000000  0.5075120000000 1.0
C      1  0.4362980000000  0.4742410000000  0.4176890000000 1.0
C      1  0.5000750000000  0.5979030000000  0.5104240000000 1.0
C      1  0.5490570000000  0.4332970000000  0.5481410000000 1.0
C      1  0.5967360000000  0.4698430000000  0.5221820000000 1.0
C      1  0.5417300000000  0.5460840000000  0.4778210000000 1.0
C      1  0.4561820000000  0.4804680000000  0.4599380000000 1.0
C      1  0.4511520000000  0.5821690000000  0.5470170000000 1.0
C      1  0.5111850000000  0.4808320000000  0.5088060000000 1.0
C      1  0.5822500000000  0.5010030000000  0.5627750000000 1.0
C      1  0.4966880000000  0.5438380000000  0.5525100000000 1.0
C      1  0.4074320000000  0.5503820000000  0.5079140000000 1.0
C      1  0.6072520000000  0.5082010000000  0.4783300000000 1.0
C      1  0.4767050000000  0.5555690000000  0.5974610000000 1.0
C      1  0.5887260000000  0.5295310000000  0.5520510000000 1.0
C      1  0.5776720000000  0.5670050000000  0.4839520000000 1.0
C      1  0.3998160000000  0.5056630000000  0.5233650000000 1.0
C      1  0.5036610000000  0.4788690000000  0.4769820000000 1.0
C      1  0.4789210000000  0.3954570000000  0.4824440000000 1.0
C      1  0.4689680000000  0.5026220000000  0.5365610000000 1.0
C      1  0.5226320000000  0.4528970000000  0.4770280000000 1.0
C      1  0.4768070000000  0.4365430000000  0.5955440000000 1.0
C      1  0.5098550000000  0.4535530000000  0.5210880000000 1.0
C      1  0.5368590000000  0.5000400000000  0.5179170000000 1.0
C      1  0.5506740000000  0.6019240000000  0.4568670000000 1.0
C      1  0.5020140000000  0.5701160000000  0.4638380000000 1.0
C      1  0.5332890000000  0.5155550000000  0.4253930000000 1.0
C      1  0.4698730000000  0.5903170000000  0.4367990000000 1.0
C      1  0.5152620000000  0.4597490000000  0.3939680000000 1.0
C      1  0.4382830000000  0.4623990000000  0.5808960000000 1.0
C      1  0.5274260000000  0.3984470000000  0.5169960000000 1.0
C      1  0.4780570000000  0.5090660000000  0.6072720000000 1.0
C      1  0.5104910000000  0.5214860000000  0.3836330000000 1.0
C      1  0.5588050000000  0.4849240000000  0.4789450000000 1.0
C      1  0.4832520000000  0.4987920000000  0.5607120000000 1.0
C      1  0.5424880000000  0.5589700000000  0.4143110000000 1.0
C      1  0.4079660000000  0.4699690000000  0.4638060000000 1.0
C      1  0.5598720000000  0.4982330000000  0.5019530000000 1.0
C      1  0.5286470000000  0.5289030000000  0.5188990000000 1.0
C      1  0.3977170000000  0.5116600000000  0.4937620000000 1.0
C      1  0.5254780000000  0.5472000000000  0.5982510000000 1.0
C      1  0.4983870000000  0.4103420000000  0.4490080000000 1.0
C      1  0.5668570000000  0.5769710000000  0.4581000000000 1.0
C      1  0.4405270000000  0.5048860000000  0.4202800000000 1.0
C      1  0.5258740000000  0.6113370000000  0.5026820000000 1.0
C      1  0.5124470000000  0.5353880000000  0.4338130000000 1.0
C      1  0.4857870000000  0.4517820000000  0.5416830000000 1.0
C      1  0.5427500000000  0.4014760000000  0.4668330000000 1.0
C      1  0.5618460000000  0.5570530000000  0.4373590000000 1.0
C      1  0.5617220000000  0.4345360000000  0.5739030000000 1.0
C      1  0.5516470000000  0.4149590000000  0.5257890000000 1.0
C      1  0.4454520000000  0.4183290000000  0.5221980000000 1.0
C      1  0.4760430000000  0.4024370000000  0.5637730000000 1.0
C      1  0.4652360000000  0.5441100000000  0.4188440000000 1.0
C      1  0.4219470000000  0.4606210000000  0.4401920000000 1.0
C      1  0.4338420000000  0.5634060000000  0.5009160000000 1.0
C      1  0.4423970000000  0.4717080000000  0.5159650000000 1.0
C      1  0.5539920000000  0.4762670000000  0.4020010000000 1.0
C      1  0.5350860000000  0.5535320000000  0.5052200000000 1.0
C      1  0.4875850000000  0.4779470000000  0.4020920000000 1.0
C      1  0.5178670000000  0.4277600000000  0.3943630000000 1.0
C      1  0.5113960000000  0.5673580000000  0.5570500000000 1.0
C      1  0.4923100000000  0.4171570000000  0.4794720000000 1.0
C      1  0.4728970000000  0.5942270000000  0.5616370000000 1.0
C      1  0.5881140000000  0.5383960000000  0.5239410000000 1.0
C      1  0.4539540000000  0.5115980000000  0.5942560000000 1.0
C      1  0.5736500000000  0.5502150000000  0.5610450000000 1.0
C      1  0.4665610000000  0.4600860000000  0.5230830000000 1.0
C      1  0.5193890000000  0.4707700000000  0.5686290000000 1.0
C      1  0.5348580000000  0.4278500000000  0.4192770000000 1.0
C      1  0.4178880000000  0.4824770000000  0.5271840000000 1.0
C      1  0.5350890000000  0.4749070000000  0.3800690000000 1.0
C      1  0.5265690000000  0.4121370000000  0.4431430000000 1.0
C      1  0.4958690000000  0.5328600000000  0.5956330000000 1.0
C      1  0.5911420000000  0.5311780000000  0.4731090000000 1.0
C      1  0.5308540000000  0.3867340000000  0.4897010000000 1.0
C      1  0.4996980000000  0.5954910000000  0.5468180000000 1.0
C      1  0.5320740000000  0.5651550000000  0.5780500000000 1.0
C      1  0.6020020000000  0.4692100000000  0.4629400000000 1.0
C      1  0.5147870000000  0.5437360000000  0.4660730000000 1.0
C      1  0.5989410000000  0.4460860000000  0.4784220000000 1.0
C      1  0.4965390000000  0.4155130000000  0.4069750000000 1.0
C      1  0.5466710000000  0.6065230000000  0.5239820000000 1.0
C      1  0.4324580000000  0.4108590000000  0.4954470000000 1.0
C      1  0.5613760000000  0.4750580000000  0.5943410000000 1.0
C      1  0.5341600000000  0.5034530000000  0.3776340000000 1.0
C      1  0.4100380000000  0.4268040000000  0.4840160000000 1.0
C      1  0.3989220000000  0.5384330000000  0.4822040000000 1.0
C      1  0.5274620000000  0.6034470000000  0.5442370000000 1.0
C      1  0.4888190000000  0.4976270000000  0.5161650000000 1.0
C      1  0.4750140000000  0.4886550000000  0.4795600000000 1.0
C      1  0.5003000000000  0.4051220000000  0.5243040000000 1.0
C      1  0.4451960000000  0.4456570000000  0.4517580000000 1.0
C      1  0.5331660000000  0.6155150000000  0.4748580000000 1.0
C      1  0.4761790000000  0.5457970000000  0.5325540000000 1.0
C      1  0.4334930000000  0.5781430000000  0.4746840000000 1.0
C      1  0.4543240000000  0.5267910000000  0.5304630000000 1.0
C      1  0.4517410000000  0.5626110000000  0.5879040000000 1.0
C      1  0.5017240000000  0.5197000000000  0.5687620000000 1.0
C      1  0.4078860000000  0.5327340000000  0.5316020000000 1.0
C      1  0.5638170000000  0.5000230000000  0.4568840000000 1.0
C      1  0.5125490000000  0.4864270000000  0.4493270000000 1.0
C      1  0.4610110000000  0.5209290000000  0.4018180000000 1.0
C      1  0.5044390000000  0.5866330000000  0.4410230000000 1.0
C      1  0.4026580000000  0.4442060000000  0.5393770000000 1.0
C      1  0.5588530000000  0.4999980000000  0.5805310000000 1.0
C      1  0.4853740000000  0.5558870000000  0.5072300000000 1.0
C      1  0.4289830000000  0.4854950000000  0.5749600000000 1.0
C      1  0.4139200000000  0.5398420000000  0.4549720000000 1.0
C      1  0.5830560000000  0.5115320000000  0.5124920000000 1.0
C      1  0.5723920000000  0.4401460000000  0.4656990000000 1.0
C      1  0.4014830000000  0.4549960000000  0.4878220000000 1.0
C      1  0.4203600000000  0.4448770000000  0.5642400000000 1.0
C      1  0.5312280000000  0.4986950000000  0.5670940000000 1.0
C      1  0.5771490000000  0.4596250000000  0.5739310000000 1.0
C      1  0.4720830000000  0.5822590000000  0.5877930000000 1.0
C      1  0.4751490000000  0.5659140000000  0.4695730000000 1.0
C      1  0.5334850000000  0.4598760000000  0.5441480000000 1.0
C      1  0.4796810000000  0.5264260000000  0.4386440000000 1.0
C      1  0.4777710000000  0.4147470000000  0.4274580000000 1.0
C      1  0.5106650000000  0.5701850000000  0.5083070000000 1.0
C      1  0.5650010000000  0.5348740000000  0.4598180000000 1.0
C      1  0.4277070000000  0.4947270000000  0.4646850000000 1.0
C      1  0.5440910000000  0.4879680000000  0.5423010000000 1.0
C      1  0.3984620000000  0.4636470000000  0.5169350000000 1.0
C      1  0.4341770000000  0.4224300000000  0.4687560000000 1.0
C      1  0.5399790000000  0.4333970000000  0.5954800000000 1.0
C      1  0.4232170000000  0.5157700000000  0.4423840000000 1.0
C      1  0.4848810000000  0.5077220000000  0.3924440000000 1.0
C      1  0.4452540000000  0.5287280000000  0.5013200000000 1.0
C      1  0.5113620000000  0.4358000000000  0.4966040000000 1.0
C      1  0.4293010000000  0.5349710000000  0.5527330000000 1.0
C      1  0.5588990000000  0.5723190000000  0.5602530000000 1.0
C      1  0.5486930000000  0.5052550000000  0.4032900000000 1.0
C      1  0.4735620000000  0.4008680000000  0.5351660000000 1.0
C      1  0.5618830000000  0.5817930000000  0.5325420000000 1.0
C      1  0.5720120000000  0.4229020000000  0.5066750000000 1.0
C      1  0.4597180000000  0.4389710000000  0.4262020000000 1.0
C      1  0.4501480000000  0.4447090000000  0.5095470000000 1.0
END
