TITL C-883734-4173-319 9.29447019417959 125000 -27470.7027593852 0 0 184 (C1) n - 1
REM
REM in /home/nfs/bkarasulu/CARBON/AIRSS/Generating-Clusters/ReaxFF-fromJPCA2015/Units_Real/with-SteepDescent/Only-C1/SD-CG/Try1-3A/FIRE-CG
REM
REM
REM
REM
REM
REM ./C.cell (11c1c37f851c82e70ff6c80c92926a4b)
REM
REM compiler GCC version 9.2.1 20190827 (Red Hat 9.2.1-1)
REM options -cpp -mtune=generic -march=x86-64 -g -O0 -fpre-include=/usr/include/finclude/math-vector-fortran.h
REM seed -1370112377 661685643 1369977866 509517403 -870508965 443315017 1601749726 1973071722 750430692 -378869452 -364176500 881588202 1259531395 -1407870365 -979398755 -514675164 343165516 2059657627 807843807 -2143278700 -1690555982 -723329669 -1914154379 412281183 1542585121 -2019997282 -1999097641 -1242268936 -289824721 2050918437 -587788699 1471460980 -840505318
REM
CELL 1.54180   50.00000   50.00000   50.00000   90.00000   90.00000   90.00000
LATT -1
SFAC C  
C      1  0.5388310000000  0.4031020000000  0.4594430000000 1.0
C      1  0.4763320000000  0.5435360000000  0.4692390000000 1.0
C      1  0.5378550000000  0.4488830000000  0.4781120000000 1.0
C      1  0.5258860000000  0.5003550000000  0.4075030000000 1.0
C      1  0.5623310000000  0.5772860000000  0.5367240000000 1.0
C      1  0.4823790000000  0.3976420000000  0.5270540000000 1.0
C      1  0.4467960000000  0.5034010000000  0.5159760000000 1.0
C      1  0.4230700000000  0.4710490000000  0.4322340000000 1.0
C      1  0.5094160000000  0.5125580000000  0.4289890000000 1.0
C      1  0.4751930000000  0.4927660000000  0.3835000000000 1.0
C      1  0.5037980000000  0.5254220000000  0.5011370000000 1.0
C      1  0.4428510000000  0.4643940000000  0.4124750000000 1.0
C      1  0.5431950000000  0.5986760000000  0.5363360000000 1.0
C      1  0.5789420000000  0.5180540000000  0.5756130000000 1.0
C      1  0.4344310000000  0.5749650000000  0.5272250000000 1.0
C      1  0.5536190000000  0.5381140000000  0.4887560000000 1.0
C      1  0.4133280000000  0.5286280000000  0.4391890000000 1.0
C      1  0.4681000000000  0.5422900000000  0.5387270000000 1.0
C      1  0.5756200000000  0.4363050000000  0.4523720000000 1.0
C      1  0.5821240000000  0.4667240000000  0.4877030000000 1.0
C      1  0.4300170000000  0.5789130000000  0.4430830000000 1.0
C      1  0.4831830000000  0.5882140000000  0.5773860000000 1.0
C      1  0.5174450000000  0.4844870000000  0.4771680000000 1.0
C      1  0.3909660000000  0.4927250000000  0.5307920000000 1.0
C      1  0.4102260000000  0.4534190000000  0.5161700000000 1.0
C      1  0.4715980000000  0.4602730000000  0.4455100000000 1.0
C      1  0.5187690000000  0.4776640000000  0.5627040000000 1.0
C      1  0.5046520000000  0.4483140000000  0.5940040000000 1.0
C      1  0.5015860000000  0.5755680000000  0.5957590000000 1.0
C      1  0.4983650000000  0.6080250000000  0.4964120000000 1.0
C      1  0.5341250000000  0.4548300000000  0.4503310000000 1.0
C      1  0.5617250000000  0.5558630000000  0.4309640000000 1.0
C      1  0.5149000000000  0.4424380000000  0.5199010000000 1.0
C      1  0.4106680000000  0.5319040000000  0.4691360000000 1.0
C      1  0.4329260000000  0.5266500000000  0.5590360000000 1.0
C      1  0.4442250000000  0.3928830000000  0.4906630000000 1.0
C      1  0.3886720000000  0.5206240000000  0.5435820000000 1.0
C      1  0.5503250000000  0.4747770000000  0.5940890000000 1.0
C      1  0.5437180000000  0.4762090000000  0.4056930000000 1.0
C      1  0.5175310000000  0.4142330000000  0.5627420000000 1.0
C      1  0.5485900000000  0.5881240000000  0.4730820000000 1.0
C      1  0.5030640000000  0.4474970000000  0.3942800000000 1.0
C      1  0.5680380000000  0.5315280000000  0.5502250000000 1.0
C      1  0.5150680000000  0.5602320000000  0.4722270000000 1.0
C      1  0.5400220000000  0.5399050000000  0.5981320000000 1.0
C      1  0.5981380000000  0.4890550000000  0.4508680000000 1.0
C      1  0.4494740000000  0.4892950000000  0.3979440000000 1.0
C      1  0.4501160000000  0.4473150000000  0.5743630000000 1.0
C      1  0.4851700000000  0.5012280000000  0.4395620000000 1.0
C      1  0.5447150000000  0.5779540000000  0.4451780000000 1.0
C      1  0.3986530000000  0.5413650000000  0.5278730000000 1.0
C      1  0.4179970000000  0.4254660000000  0.5146750000000 1.0
C      1  0.5932820000000  0.5150750000000  0.4367770000000 1.0
C      1  0.4336060000000  0.4245990000000  0.4645020000000 1.0
C      1  0.4430100000000  0.5544060000000  0.5445230000000 1.0
C      1  0.5701920000000  0.4800750000000  0.4189680000000 1.0
C      1  0.5546720000000  0.4985620000000  0.4557870000000 1.0
C      1  0.5024890000000  0.5367850000000  0.3967380000000 1.0
C      1  0.5594830000000  0.5039520000000  0.5932140000000 1.0
C      1  0.4926230000000  0.5667830000000  0.4883890000000 1.0
C      1  0.5060550000000  0.5884260000000  0.4406830000000 1.0
C      1  0.4651320000000  0.4467590000000  0.4885360000000 1.0
C      1  0.3887400000000  0.5032150000000  0.5053590000000 1.0
C      1  0.5586290000000  0.4201730000000  0.5509250000000 1.0
C      1  0.4773840000000  0.5082090000000  0.6078390000000 1.0
C      1  0.4284350000000  0.5522980000000  0.4297470000000 1.0
C      1  0.5725540000000  0.5756240000000  0.4856230000000 1.0
C      1  0.5249770000000  0.5386810000000  0.4873960000000 1.0
C      1  0.5371760000000  0.5777730000000  0.5717190000000 1.0
C      1  0.5749560000000  0.4849590000000  0.5524010000000 1.0
C      1  0.5223550000000  0.5987060000000  0.5567670000000 1.0
C      1  0.5745330000000  0.5103190000000  0.4168270000000 1.0
C      1  0.5271840000000  0.6023230000000  0.4888480000000 1.0
C      1  0.4839750000000  0.4509760000000  0.5493920000000 1.0
C      1  0.5178050000000  0.5495840000000  0.5364630000000 1.0
C      1  0.6088000000000  0.4711480000000  0.4981970000000 1.0
C      1  0.5304450000000  0.4833180000000  0.4505810000000 1.0
C      1  0.4199690000000  0.4488420000000  0.4514120000000 1.0
C      1  0.4410580000000  0.5141440000000  0.4693030000000 1.0
C      1  0.4127460000000  0.4894260000000  0.5782050000000 1.0
C      1  0.4891610000000  0.4900120000000  0.4787960000000 1.0
C      1  0.4780170000000  0.5204350000000  0.3937880000000 1.0
C      1  0.4081260000000  0.4697490000000  0.5403180000000 1.0
C      1  0.4597230000000  0.5770970000000  0.5917970000000 1.0
C      1  0.5452020000000  0.5572920000000  0.5507830000000 1.0
C      1  0.4285410000000  0.5801720000000  0.4727950000000 1.0
C      1  0.5745250000000  0.5176230000000  0.4934850000000 1.0
C      1  0.5558650000000  0.5340950000000  0.4131030000000 1.0
C      1  0.5867060000000  0.5455770000000  0.4417360000000 1.0
C      1  0.5601260000000  0.5241880000000  0.4655290000000 1.0
C      1  0.5738170000000  0.4384970000000  0.5641890000000 1.0
C      1  0.4890800000000  0.4763950000000  0.5615650000000 1.0
C      1  0.5378610000000  0.4971120000000  0.5211050000000 1.0
C      1  0.4210490000000  0.4123210000000  0.4889730000000 1.0
C      1  0.4571690000000  0.5555280000000  0.4223060000000 1.0
C      1  0.4940200000000  0.5986700000000  0.5490190000000 1.0
C      1  0.4555920000000  0.3954350000000  0.5175500000000 1.0
C      1  0.5309150000000  0.5662480000000  0.5978280000000 1.0
C      1  0.6118160000000  0.4929090000000  0.4777030000000 1.0
C      1  0.4878070000000  0.4871810000000  0.5222870000000 1.0
C      1  0.4565740000000  0.4065320000000  0.4680850000000 1.0
C      1  0.5143030000000  0.4417940000000  0.4911550000000 1.0
C      1  0.5629370000000  0.4480450000000  0.4965840000000 1.0
C      1  0.4628210000000  0.5308780000000  0.6215160000000 1.0
C      1  0.5098680000000  0.5060940000000  0.5223360000000 1.0
C      1  0.5976730000000  0.4993090000000  0.5643070000000 1.0
C      1  0.6078000000000  0.5234960000000  0.5201770000000 1.0
C      1  0.4170450000000  0.4701440000000  0.4925590000000 1.0
C      1  0.4306770000000  0.4716240000000  0.5606320000000 1.0
C      1  0.5370680000000  0.4065200000000  0.5404890000000 1.0
C      1  0.5315640000000  0.4586510000000  0.5368130000000 1.0
C      1  0.5581920000000  0.5044380000000  0.5400400000000 1.0
C      1  0.6119630000000  0.4994020000000  0.5382670000000 1.0
C      1  0.5144870000000  0.5105390000000  0.5696640000000 1.0
C      1  0.4886980000000  0.4065480000000  0.4751540000000 1.0
C      1  0.4018050000000  0.4636680000000  0.4684090000000 1.0
C      1  0.5816170000000  0.4593310000000  0.5408930000000 1.0
C      1  0.4895980000000  0.5189400000000  0.5832460000000 1.0
C      1  0.4699140000000  0.4787410000000  0.6068960000000 1.0
C      1  0.5266390000000  0.4324370000000  0.5836150000000 1.0
C      1  0.5312720000000  0.4506330000000  0.4014140000000 1.0
C      1  0.4092680000000  0.4995430000000  0.4356660000000 1.0
C      1  0.4936070000000  0.4275130000000  0.5627810000000 1.0
C      1  0.5567110000000  0.4181830000000  0.4405670000000 1.0
C      1  0.5071710000000  0.5241520000000  0.5449080000000 1.0
C      1  0.4775280000000  0.5467960000000  0.4396820000000 1.0
C      1  0.5198910000000  0.5682560000000  0.4446500000000 1.0
C      1  0.3896860000000  0.5109540000000  0.4787120000000 1.0
C      1  0.5829220000000  0.4655090000000  0.4410740000000 1.0
C      1  0.5782090000000  0.5668300000000  0.5152870000000 1.0
C      1  0.4872500000000  0.4572420000000  0.5224140000000 1.0
C      1  0.4619410000000  0.4438160000000  0.4238130000000 1.0
C      1  0.4395120000000  0.4895820000000  0.4903200000000 1.0
C      1  0.5877580000000  0.5428500000000  0.5286440000000 1.0
C      1  0.4573620000000  0.5102250000000  0.4423780000000 1.0
C      1  0.4918490000000  0.5183500000000  0.4776240000000 1.0
C      1  0.4656040000000  0.4716320000000  0.4728240000000 1.0
C      1  0.6049130000000  0.5173510000000  0.4920440000000 1.0
C      1  0.6073960000000  0.4737430000000  0.5268070000000 1.0
C      1  0.5386300000000  0.4850760000000  0.4962540000000 1.0
C      1  0.4549870000000  0.5142980000000  0.4132430000000 1.0
C      1  0.4439840000000  0.4211040000000  0.5300760000000 1.0
C      1  0.4777120000000  0.4076550000000  0.5558240000000 1.0
C      1  0.4486360000000  0.5313180000000  0.5829600000000 1.0
C      1  0.5648960000000  0.4891160000000  0.4841510000000 1.0
C      1  0.5306230000000  0.4037060000000  0.5108500000000 1.0
C      1  0.4882520000000  0.4750770000000  0.4286300000000 1.0
C      1  0.5028330000000  0.5420500000000  0.4264490000000 1.0
C      1  0.5713790000000  0.4230390000000  0.4788680000000 1.0
C      1  0.4127190000000  0.5588390000000  0.4836390000000 1.0
C      1  0.4502380000000  0.5941250000000  0.4875000000000 1.0
C      1  0.5023010000000  0.4052220000000  0.5069090000000 1.0
C      1  0.4833930000000  0.6015990000000  0.5220420000000 1.0
C      1  0.4911490000000  0.4734540000000  0.3988510000000 1.0
C      1  0.5213450000000  0.4728150000000  0.5924500000000 1.0
C      1  0.5083190000000  0.5662390000000  0.5155610000000 1.0
C      1  0.4767340000000  0.4978920000000  0.5461130000000 1.0
C      1  0.4546280000000  0.5928610000000  0.5153570000000 1.0
C      1  0.4491770000000  0.5517940000000  0.6041660000000 1.0
C      1  0.5061500000000  0.4170080000000  0.4284470000000 1.0
C      1  0.4862850000000  0.4306450000000  0.4124950000000 1.0
C      1  0.4526530000000  0.4228440000000  0.5602230000000 1.0
C      1  0.5901820000000  0.5621990000000  0.4664110000000 1.0
C      1  0.4787030000000  0.5960180000000  0.4768260000000 1.0
C      1  0.5095350000000  0.4032280000000  0.4529690000000 1.0
C      1  0.4463860000000  0.4981480000000  0.5448410000000 1.0
C      1  0.4718420000000  0.4536260000000  0.5936170000000 1.0
C      1  0.4569800000000  0.5835910000000  0.4320350000000 1.0
C      1  0.4891250000000  0.4357260000000  0.4776930000000 1.0
C      1  0.5333130000000  0.4339470000000  0.4266660000000 1.0
C      1  0.5308780000000  0.5271340000000  0.3973030000000 1.0
C      1  0.5364600000000  0.5174760000000  0.5906310000000 1.0
C      1  0.4723400000000  0.5341210000000  0.5669910000000 1.0
C      1  0.5564390000000  0.4548810000000  0.5259600000000 1.0
C      1  0.4655390000000  0.5259970000000  0.5125790000000 1.0
C      1  0.4804370000000  0.5963210000000  0.4451280000000 1.0
C      1  0.5489840000000  0.4053200000000  0.4864020000000 1.0
C      1  0.4099960000000  0.5619090000000  0.5128520000000 1.0
C      1  0.5291890000000  0.5866070000000  0.5133520000000 1.0
C      1  0.4548100000000  0.5332130000000  0.4861380000000 1.0
C      1  0.5539880000000  0.4473360000000  0.5840500000000 1.0
C      1  0.4614500000000  0.4454570000000  0.5170500000000 1.0
C      1  0.3929820000000  0.4904100000000  0.4572600000000 1.0
C      1  0.4061750000000  0.5164660000000  0.5681230000000 1.0
END
