TITL C-884134-5972-342 6.39410913143816 125000 -20317.8682024542 0 0 137 (C1) n - 1
REM
REM in /home/nfs/bkarasulu/CARBON/AIRSS/Generating-Clusters/ReaxFF-fromJPCA2015/Units_Real/with-SteepDescent/Only-C1/SD-CG/Try1-3A/FIRE-CG
REM
REM
REM
REM
REM
REM ./C.cell (11c1c37f851c82e70ff6c80c92926a4b)
REM
REM compiler GCC version 9.2.1 20190827 (Red Hat 9.2.1-1)
REM options -cpp -mtune=generic -march=x86-64 -g -O0 -fpre-include=/usr/include/finclude/math-vector-fortran.h
REM seed 613934302 1060455692 215928303 -1628544562 1630185724 -781296834 1292992334 122911677 -2060867504 1541753090 504961068 -1541164636 -1433411241 1093729038 222374871 1663379897 -1806381792 1252414459 1538761266 -1831693362 774753021 -941295513 369429854 912491155 -1162538707 787484600 1540523935 -1987369444 -2094707962 -1100543188 1145526074 -707041164 -1064047923
REM
CELL 1.54180   50.00000   50.00000   50.00000   90.00000   90.00000   90.00000
LATT -1
SFAC C  
C      1  0.5309820000000  0.5391250000000  0.5065190000000 1.0
C      1  0.4091660000000  0.4812290000000  0.4563520000000 1.0
C      1  0.4845450000000  0.5546370000000  0.5032240000000 1.0
C      1  0.4889580000000  0.5833640000000  0.5537120000000 1.0
C      1  0.4109260000000  0.5166860000000  0.5444480000000 1.0
C      1  0.5168700000000  0.4211050000000  0.5661820000000 1.0
C      1  0.4935440000000  0.4883070000000  0.5077100000000 1.0
C      1  0.5460880000000  0.4603530000000  0.5128800000000 1.0
C      1  0.5716290000000  0.4499040000000  0.5234690000000 1.0
C      1  0.4651000000000  0.5375970000000  0.5503070000000 1.0
C      1  0.5410440000000  0.4692300000000  0.4852370000000 1.0
C      1  0.5374340000000  0.5027710000000  0.5977060000000 1.0
C      1  0.4382470000000  0.4951500000000  0.5806470000000 1.0
C      1  0.5835800000000  0.4966390000000  0.5446930000000 1.0
C      1  0.5530520000000  0.4816640000000  0.4082470000000 1.0
C      1  0.4904510000000  0.3869790000000  0.5482330000000 1.0
C      1  0.5116380000000  0.5311080000000  0.4635100000000 1.0
C      1  0.4462530000000  0.5771700000000  0.5229000000000 1.0
C      1  0.5706420000000  0.4582810000000  0.4555370000000 1.0
C      1  0.4753880000000  0.5597470000000  0.4571160000000 1.0
C      1  0.4522780000000  0.5577510000000  0.5671800000000 1.0
C      1  0.4366460000000  0.4417670000000  0.5033440000000 1.0
C      1  0.5497710000000  0.5088200000000  0.4042340000000 1.0
C      1  0.5096170000000  0.5948530000000  0.4903670000000 1.0
C      1  0.5046480000000  0.4949840000000  0.4311980000000 1.0
C      1  0.4930470000000  0.4085100000000  0.5689550000000 1.0
C      1  0.4974210000000  0.4245010000000  0.4565150000000 1.0
C      1  0.4077530000000  0.5094190000000  0.4456620000000 1.0
C      1  0.5358160000000  0.5796150000000  0.5308220000000 1.0
C      1  0.5353580000000  0.4640820000000  0.5686380000000 1.0
C      1  0.4181430000000  0.4929040000000  0.5590960000000 1.0
C      1  0.4732500000000  0.5494010000000  0.4293880000000 1.0
C      1  0.5903460000000  0.5093590000000  0.4714460000000 1.0
C      1  0.4714450000000  0.5313980000000  0.4870950000000 1.0
C      1  0.5276710000000  0.5767470000000  0.4569590000000 1.0
C      1  0.4775160000000  0.4600310000000  0.4182500000000 1.0
C      1  0.5850650000000  0.4635590000000  0.4780190000000 1.0
C      1  0.4290060000000  0.5543990000000  0.5226670000000 1.0
C      1  0.5562850000000  0.5214070000000  0.5842360000000 1.0
C      1  0.5446260000000  0.4389510000000  0.4303320000000 1.0
C      1  0.5463460000000  0.5574700000000  0.5475810000000 1.0
C      1  0.5417420000000  0.5328240000000  0.4072610000000 1.0
C      1  0.4890620000000  0.5225720000000  0.5606260000000 1.0
C      1  0.4613550000000  0.4471010000000  0.4868030000000 1.0
C      1  0.4027560000000  0.4715750000000  0.4825580000000 1.0
C      1  0.5737520000000  0.5132030000000  0.4498000000000 1.0
C      1  0.4503540000000  0.5884580000000  0.4954630000000 1.0
C      1  0.5502250000000  0.5830570000000  0.5060640000000 1.0
C      1  0.4563410000000  0.5049120000000  0.5269460000000 1.0
C      1  0.4991210000000  0.5698420000000  0.5795570000000 1.0
C      1  0.4710720000000  0.4235110000000  0.4679730000000 1.0
C      1  0.4742850000000  0.4337800000000  0.5591890000000 1.0
C      1  0.5379100000000  0.4044340000000  0.4912960000000 1.0
C      1  0.4845780000000  0.4927740000000  0.4534210000000 1.0
C      1  0.5063080000000  0.5877920000000  0.5315100000000 1.0
C      1  0.4884950000000  0.5861640000000  0.5068280000000 1.0
C      1  0.5731300000000  0.5532840000000  0.4744400000000 1.0
C      1  0.5753190000000  0.5676460000000  0.4977070000000 1.0
C      1  0.5194160000000  0.4840460000000  0.5512140000000 1.0
C      1  0.5565080000000  0.4280790000000  0.5363610000000 1.0
C      1  0.5231230000000  0.4692660000000  0.4622040000000 1.0
C      1  0.5500480000000  0.4070850000000  0.5168250000000 1.0
C      1  0.4542410000000  0.5272930000000  0.4254790000000 1.0
C      1  0.4111650000000  0.5324310000000  0.4599050000000 1.0
C      1  0.4153600000000  0.4447550000000  0.4837640000000 1.0
C      1  0.5256170000000  0.4245520000000  0.4738280000000 1.0
C      1  0.6014870000000  0.5194910000000  0.5157400000000 1.0
C      1  0.5127520000000  0.4410740000000  0.4955860000000 1.0
C      1  0.5359500000000  0.5928980000000  0.4818100000000 1.0
C      1  0.4888310000000  0.5429830000000  0.5865100000000 1.0
C      1  0.4957850000000  0.4417420000000  0.4328100000000 1.0
C      1  0.5599690000000  0.4862940000000  0.4379410000000 1.0
C      1  0.5901580000000  0.4720950000000  0.5292050000000 1.0
C      1  0.4720640000000  0.4922550000000  0.5504820000000 1.0
C      1  0.4817740000000  0.5032030000000  0.5997050000000 1.0
C      1  0.5368530000000  0.5302330000000  0.5375680000000 1.0
C      1  0.4605750000000  0.4795820000000  0.5747990000000 1.0
C      1  0.5257340000000  0.5619730000000  0.5835580000000 1.0
C      1  0.4732680000000  0.5098080000000  0.5051930000000 1.0
C      1  0.5527550000000  0.4796880000000  0.5851630000000 1.0
C      1  0.4456300000000  0.4154810000000  0.4536120000000 1.0
C      1  0.4083470000000  0.5434390000000  0.5061970000000 1.0
C      1  0.4915800000000  0.4744930000000  0.5385580000000 1.0
C      1  0.5085850000000  0.5028660000000  0.5992120000000 1.0
C      1  0.4339860000000  0.4657200000000  0.4477890000000 1.0
C      1  0.5398690000000  0.4358350000000  0.5608470000000 1.0
C      1  0.5218930000000  0.4408430000000  0.4147460000000 1.0
C      1  0.4302060000000  0.4498570000000  0.5313700000000 1.0
C      1  0.4952520000000  0.5047810000000  0.3929360000000 1.0
C      1  0.5518070000000  0.4353820000000  0.4561620000000 1.0
C      1  0.4314910000000  0.5770690000000  0.4762370000000 1.0
C      1  0.5015400000000  0.3995060000000  0.5232170000000 1.0
C      1  0.4257600000000  0.4372900000000  0.4570010000000 1.0
C      1  0.5754410000000  0.5209880000000  0.5069630000000 1.0
C      1  0.4572050000000  0.5787600000000  0.4691300000000 1.0
C      1  0.4564270000000  0.4514380000000  0.5744320000000 1.0
C      1  0.4111500000000  0.4891200000000  0.5078910000000 1.0
C      1  0.4132600000000  0.5532490000000  0.4775990000000 1.0
C      1  0.4532860000000  0.4748680000000  0.4723310000000 1.0
C      1  0.4960050000000  0.5509100000000  0.4112680000000 1.0
C      1  0.5502820000000  0.5505130000000  0.5760960000000 1.0
C      1  0.5046490000000  0.5588370000000  0.4615370000000 1.0
C      1  0.4424780000000  0.4376980000000  0.5545130000000 1.0
C      1  0.5887080000000  0.5459110000000  0.5123210000000 1.0
C      1  0.5157830000000  0.5143460000000  0.5520490000000 1.0
C      1  0.4603750000000  0.5434100000000  0.5916210000000 1.0
C      1  0.5300930000000  0.4885930000000  0.4433160000000 1.0
C      1  0.4879950000000  0.4463470000000  0.5372650000000 1.0
C      1  0.6076840000000  0.5017130000000  0.4926210000000 1.0
C      1  0.4549250000000  0.5140980000000  0.5952890000000 1.0
C      1  0.5004830000000  0.4781540000000  0.4049830000000 1.0
C      1  0.4171300000000  0.4757760000000  0.5352050000000 1.0
C      1  0.5390950000000  0.4989850000000  0.4892400000000 1.0
C      1  0.5609040000000  0.5087200000000  0.5293690000000 1.0
C      1  0.5714160000000  0.4994670000000  0.5722280000000 1.0
C      1  0.4015410000000  0.5172050000000  0.5173170000000 1.0
C      1  0.4958510000000  0.4678480000000  0.4624500000000 1.0
C      1  0.5265720000000  0.5543350000000  0.4153180000000 1.0
C      1  0.5345060000000  0.5254100000000  0.4802420000000 1.0
C      1  0.4396070000000  0.4907600000000  0.4918490000000 1.0
C      1  0.5296990000000  0.4649960000000  0.4017910000000 1.0
C      1  0.5080160000000  0.5469650000000  0.5051070000000 1.0
C      1  0.5006510000000  0.4290030000000  0.5190850000000 1.0
C      1  0.5212950000000  0.4976970000000  0.5104460000000 1.0
C      1  0.5271580000000  0.3907390000000  0.5122570000000 1.0
C      1  0.5383220000000  0.4850520000000  0.5273650000000 1.0
C      1  0.4877300000000  0.5169520000000  0.4682080000000 1.0
C      1  0.5993130000000  0.4732830000000  0.5007650000000 1.0
C      1  0.4400440000000  0.5285850000000  0.5367370000000 1.0
C      1  0.5433100000000  0.5605730000000  0.4382970000000 1.0
C      1  0.4940070000000  0.5276710000000  0.3953950000000 1.0
C      1  0.4910700000000  0.4602710000000  0.4888270000000 1.0
C      1  0.4604910000000  0.5796170000000  0.5489420000000 1.0
C      1  0.5661950000000  0.5426790000000  0.4505390000000 1.0
C      1  0.4478580000000  0.5002500000000  0.4140530000000 1.0
C      1  0.4527520000000  0.4726210000000  0.4227720000000 1.0
C      1  0.4264640000000  0.5182940000000  0.4233820000000 1.0
END
