TITL C-884132-5695-48 6075201.77864346 125000 -13053.768671467 0 0 87 (C1) n - 1
REM
REM in /home/nfs/bkarasulu/CARBON/AIRSS/Generating-Clusters/ReaxFF-fromJPCA2015/Units_Real/with-SteepDescent/Only-C1/SD-CG/Try1-3A/FIRE-CG
REM
REM
REM
REM
REM
REM ./C.cell (11c1c37f851c82e70ff6c80c92926a4b)
REM
REM compiler GCC version 9.2.1 20190827 (Red Hat 9.2.1-1)
REM options -cpp -mtune=generic -march=x86-64 -g -O0 -fpre-include=/usr/include/finclude/math-vector-fortran.h
REM seed 1135810195 1720915340 -1893838810 -713122638 -1284872835 1542997948 -671471081 -921818320 -1144996596 1354201985 124615468 256744393 1143775898 1667109714 -664550106 -1713072142 310600726 1374867942 1186059709 1498995447 -1661057800 1198211092 1065726026 459569878 -1266212055 -256100967 -1508946389 -564279365 304215502 1670906871 1538970952 -344867433 515438589
REM
CELL 1.54180   50.00000   50.00000   50.00000   90.00000   90.00000   90.00000
LATT -1
SFAC C  
C      1  0.4500810000000  0.5577360000000  0.4921740000000 1.0
C      1  0.4098860000000  0.4539140000000  0.4720790000000 1.0
C      1  0.4478370000000  0.4591570000000  0.4294540000000 1.0
C      1  0.4444340000000  0.5045730000000  0.5516950000000 1.0
C      1  0.4746600000000  0.5687080000000  0.5305390000000 1.0
C      1  0.5623850000000  0.5024730000000  0.4599440000000 1.0
C      1  0.5111460000000  0.4259130000000  0.5175780000000 1.0
C      1  0.5690450000000  0.5472070000000  0.4915570000000 1.0
C      1  0.4602050000000  0.5181270000000  0.5126540000000 1.0
C      1  0.5237470000000  0.5778590000000  0.4958590000000 1.0
C      1  0.4533430000000  0.5507220000000  0.5389220000000 1.0
C      1  0.5732120000000  0.4551120000000  0.4640360000000 1.0
C      1  0.5099900000000  0.5307420000000  0.4300840000000 1.0
C      1  0.4302060000000  0.4950100000000  0.5266380000000 1.0
C      1  0.5467290000000  0.5527860000000  0.4564700000000 1.0
C      1  0.5252200000000  0.4388770000000  0.4620410000000 1.0
C      1  0.5089010000000  0.5486020000000  0.5619550000000 1.0
C      1  0.4192390000000  0.5070050000000  0.4775250000000 1.0
C      1  0.5280300000000  0.5031500000000  0.5838260000000 1.0
C      1  0.4987080000000  0.4616990000000  0.5747580000000 1.0
C      1  0.4709590000000  0.4721350000000  0.4154430000000 1.0
C      1  0.4462380000000  0.4476630000000  0.5030630000000 1.0
C      1  0.5310590000000  0.4473360000000  0.5112450000000 1.0
C      1  0.5362420000000  0.5356900000000  0.5604150000000 1.0
C      1  0.4293780000000  0.4807380000000  0.4366080000000 1.0
C      1  0.4807010000000  0.4822510000000  0.5809790000000 1.0
C      1  0.4562870000000  0.4443440000000  0.4522920000000 1.0
C      1  0.4369990000000  0.4664380000000  0.5236540000000 1.0
C      1  0.5241860000000  0.5351930000000  0.5174430000000 1.0
C      1  0.5906420000000  0.4845240000000  0.5020110000000 1.0
C      1  0.5643180000000  0.5308040000000  0.4659990000000 1.0
C      1  0.4998360000000  0.5265920000000  0.5050430000000 1.0
C      1  0.5259390000000  0.5165500000000  0.5411720000000 1.0
C      1  0.4539420000000  0.4610310000000  0.5454030000000 1.0
C      1  0.4714880000000  0.5571500000000  0.4462070000000 1.0
C      1  0.5472590000000  0.5667220000000  0.5294690000000 1.0
C      1  0.5164580000000  0.4853860000000  0.4245990000000 1.0
C      1  0.4380150000000  0.4427460000000  0.4752110000000 1.0
C      1  0.4764220000000  0.4879740000000  0.4879910000000 1.0
C      1  0.4545120000000  0.5404610000000  0.4678340000000 1.0
C      1  0.4211330000000  0.5131810000000  0.5060700000000 1.0
C      1  0.4438790000000  0.5057810000000  0.4332310000000 1.0
C      1  0.4557650000000  0.4817780000000  0.5641460000000 1.0
C      1  0.5015330000000  0.4279010000000  0.4681820000000 1.0
C      1  0.4780890000000  0.4513830000000  0.5337120000000 1.0
C      1  0.4924130000000  0.4219920000000  0.4955650000000 1.0
C      1  0.4866430000000  0.5303930000000  0.5697550000000 1.0
C      1  0.5370790000000  0.4863530000000  0.4481550000000 1.0
C      1  0.4689390000000  0.5006870000000  0.4186140000000 1.0
C      1  0.5360470000000  0.4913430000000  0.5309580000000 1.0
C      1  0.4961870000000  0.5669360000000  0.4557100000000 1.0
C      1  0.5134250000000  0.4933760000000  0.4657580000000 1.0
C      1  0.5588460000000  0.4451270000000  0.5200440000000 1.0
C      1  0.4968230000000  0.5070940000000  0.5821030000000 1.0
C      1  0.4730440000000  0.5723690000000  0.5010440000000 1.0
C      1  0.4972860000000  0.4644430000000  0.4253260000000 1.0
C      1  0.5483660000000  0.5662360000000  0.4824480000000 1.0
C      1  0.4591440000000  0.5294900000000  0.5571360000000 1.0
C      1  0.5011450000000  0.5691890000000  0.5426420000000 1.0
C      1  0.5596530000000  0.5462020000000  0.5436790000000 1.0
C      1  0.5143210000000  0.5169520000000  0.4821380000000 1.0
C      1  0.5189970000000  0.4731110000000  0.5164670000000 1.0
C      1  0.4135170000000  0.4814980000000  0.4616290000000 1.0
C      1  0.4850060000000  0.5088000000000  0.5224020000000 1.0
C      1  0.5534680000000  0.5003930000000  0.5093870000000 1.0
C      1  0.4909580000000  0.4780320000000  0.4656670000000 1.0
C      1  0.4862150000000  0.4511060000000  0.4525550000000 1.0
C      1  0.5420620000000  0.4792270000000  0.5741810000000 1.0
C      1  0.5206670000000  0.5521450000000  0.4418720000000 1.0
C      1  0.5229180000000  0.5805360000000  0.5254920000000 1.0
C      1  0.5827260000000  0.4615630000000  0.5191030000000 1.0
C      1  0.5384540000000  0.5213650000000  0.4963350000000 1.0
C      1  0.5809030000000  0.5077990000000  0.5171450000000 1.0
C      1  0.5653570000000  0.4627330000000  0.5434960000000 1.0
C      1  0.5179280000000  0.4437240000000  0.5659260000000 1.0
C      1  0.4897210000000  0.4797840000000  0.5156850000000 1.0
C      1  0.4709240000000  0.4348590000000  0.5100790000000 1.0
C      1  0.5746410000000  0.5365480000000  0.5185590000000 1.0
C      1  0.4973610000000  0.5755700000000  0.4844300000000 1.0
C      1  0.5792970000000  0.4831100000000  0.4735650000000 1.0
C      1  0.4664850000000  0.5137800000000  0.4860920000000 1.0
C      1  0.4985550000000  0.5087210000000  0.4181160000000 1.0
C      1  0.4342460000000  0.5210530000000  0.4566700000000 1.0
C      1  0.5009670000000  0.4338710000000  0.5437670000000 1.0
C      1  0.4381030000000  0.5416330000000  0.5141020000000 1.0
C      1  0.5477930000000  0.4544540000000  0.5651430000000 1.0
C      1  0.5450890000000  0.4552810000000  0.4538490000000 1.0
END
