TITL C-883726-8501-413 6.2773125167218 125000 -24398.6865897323 0 0 163 (C1) n - 1
REM
REM in /home/nfs/bkarasulu/CARBON/AIRSS/Generating-Clusters/ReaxFF-fromJPCA2015/Units_Real/with-SteepDescent/Only-C1/SD-CG/Try1-3A/FIRE-CG
REM
REM
REM
REM
REM
REM ./C.cell (11c1c37f851c82e70ff6c80c92926a4b)
REM
REM compiler GCC version 9.2.1 20190827 (Red Hat 9.2.1-1)
REM options -cpp -mtune=generic -march=x86-64 -g -O0 -fpre-include=/usr/include/finclude/math-vector-fortran.h
REM seed -58100091 560395871 856034222 1750757060 1932771466 92108643 -1172623293 1194353980 197211903 -1202706971 -287533787 -797139064 341224474 713982550 -1816979243 164964128 -1496358882 1714327871 772179995 -418277385 -726151434 1048463409 989335059 -1812257990 -296602914 2019996325 1206118245 2146424705 -2073638663 1783398928 549093502 -614563059 -1871940256
REM
CELL 1.54180   50.00000   50.00000   50.00000   90.00000   90.00000   90.00000
LATT -1
SFAC C  
C      1  0.4449000000000  0.5801410000000  0.5563090000000 1.0
C      1  0.4288880000000  0.5052400000000  0.5047410000000 1.0
C      1  0.5557590000000  0.4574190000000  0.4078830000000 1.0
C      1  0.5770820000000  0.4771980000000  0.5717790000000 1.0
C      1  0.5027950000000  0.4026190000000  0.4580440000000 1.0
C      1  0.5597280000000  0.5372890000000  0.5062140000000 1.0
C      1  0.4394200000000  0.4983530000000  0.5305660000000 1.0
C      1  0.5063110000000  0.4441740000000  0.4761780000000 1.0
C      1  0.5480940000000  0.4092960000000  0.4680860000000 1.0
C      1  0.4069090000000  0.5626690000000  0.5272720000000 1.0
C      1  0.4373410000000  0.5270200000000  0.4243970000000 1.0
C      1  0.4256840000000  0.4158100000000  0.5037050000000 1.0
C      1  0.5094430000000  0.4828320000000  0.3967960000000 1.0
C      1  0.4336020000000  0.5583940000000  0.5712220000000 1.0
C      1  0.4226930000000  0.4913030000000  0.5528350000000 1.0
C      1  0.4459160000000  0.5807250000000  0.4691030000000 1.0
C      1  0.4246150000000  0.5129260000000  0.5738500000000 1.0
C      1  0.4513720000000  0.5468240000000  0.5914650000000 1.0
C      1  0.5433290000000  0.4150510000000  0.5391790000000 1.0
C      1  0.4863750000000  0.5409970000000  0.5249570000000 1.0
C      1  0.5512480000000  0.4462100000000  0.5388590000000 1.0
C      1  0.4454170000000  0.4520430000000  0.4887080000000 1.0
C      1  0.5727420000000  0.4539930000000  0.4303840000000 1.0
C      1  0.4727240000000  0.4730050000000  0.4479580000000 1.0
C      1  0.4997670000000  0.4595040000000  0.4517510000000 1.0
C      1  0.4919750000000  0.4801510000000  0.6092410000000 1.0
C      1  0.4767450000000  0.4582000000000  0.6024470000000 1.0
C      1  0.5008430000000  0.5900090000000  0.5185700000000 1.0
C      1  0.5225650000000  0.4083850000000  0.5581210000000 1.0
C      1  0.3954040000000  0.4576350000000  0.4754450000000 1.0
C      1  0.4605220000000  0.5283810000000  0.4093160000000 1.0
C      1  0.4640270000000  0.4812430000000  0.4214730000000 1.0
C      1  0.4863980000000  0.5330450000000  0.3970880000000 1.0
C      1  0.5024350000000  0.4540320000000  0.5172580000000 1.0
C      1  0.5500770000000  0.5091530000000  0.4332490000000 1.0
C      1  0.5799500000000  0.4531890000000  0.5281220000000 1.0
C      1  0.5108280000000  0.4159600000000  0.4340140000000 1.0
C      1  0.5645430000000  0.5701070000000  0.5545570000000 1.0
C      1  0.5196190000000  0.4732080000000  0.6042040000000 1.0
C      1  0.5230530000000  0.4582160000000  0.4969620000000 1.0
C      1  0.4089030000000  0.4417720000000  0.5371730000000 1.0
C      1  0.5708970000000  0.5427230000000  0.5637670000000 1.0
C      1  0.5163490000000  0.5885240000000  0.5743270000000 1.0
C      1  0.5641300000000  0.5113570000000  0.5192970000000 1.0
C      1  0.5237410000000  0.4882040000000  0.4838420000000 1.0
C      1  0.4659920000000  0.4532610000000  0.5415010000000 1.0
C      1  0.4799080000000  0.5283970000000  0.4582900000000 1.0
C      1  0.4631870000000  0.5120280000000  0.5407660000000 1.0
C      1  0.5437340000000  0.4546360000000  0.5649860000000 1.0
C      1  0.4521880000000  0.4608280000000  0.5153100000000 1.0
C      1  0.5425670000000  0.4934490000000  0.5241180000000 1.0
C      1  0.4929250000000  0.4041660000000  0.5091540000000 1.0
C      1  0.4294930000000  0.4719320000000  0.4422350000000 1.0
C      1  0.5246770000000  0.3926230000000  0.4745700000000 1.0
C      1  0.5994060000000  0.5567450000000  0.5374500000000 1.0
C      1  0.5605400000000  0.4194020000000  0.4925510000000 1.0
C      1  0.5512450000000  0.5644380000000  0.4317560000000 1.0
C      1  0.5563870000000  0.4964310000000  0.5786450000000 1.0
C      1  0.4007590000000  0.5360060000000  0.5330970000000 1.0
C      1  0.4409230000000  0.5037210000000  0.4774890000000 1.0
C      1  0.4959200000000  0.4613170000000  0.5436150000000 1.0
C      1  0.5391830000000  0.4797200000000  0.4002780000000 1.0
C      1  0.4038480000000  0.5042720000000  0.4582770000000 1.0
C      1  0.5709970000000  0.4662930000000  0.4552740000000 1.0
C      1  0.4785470000000  0.5057910000000  0.5935090000000 1.0
C      1  0.4950520000000  0.4562150000000  0.3985880000000 1.0
C      1  0.4977630000000  0.5071910000000  0.4963010000000 1.0
C      1  0.4248840000000  0.4123660000000  0.4779000000000 1.0
C      1  0.5110170000000  0.5693150000000  0.4597880000000 1.0
C      1  0.4663010000000  0.4606430000000  0.3994490000000 1.0
C      1  0.4985300000000  0.5720150000000  0.5853090000000 1.0
C      1  0.5326940000000  0.5513650000000  0.4104890000000 1.0
C      1  0.4605020000000  0.4213870000000  0.5433390000000 1.0
C      1  0.3915410000000  0.4620380000000  0.5243560000000 1.0
C      1  0.5247070000000  0.5560350000000  0.5378080000000 1.0
C      1  0.5225340000000  0.5330080000000  0.5526610000000 1.0
C      1  0.4395330000000  0.4215650000000  0.4552550000000 1.0
C      1  0.4763370000000  0.5910030000000  0.4330630000000 1.0
C      1  0.5923630000000  0.5045530000000  0.5294280000000 1.0
C      1  0.5167920000000  0.5060470000000  0.5397150000000 1.0
C      1  0.4520800000000  0.5284010000000  0.4678920000000 1.0
C      1  0.5720590000000  0.5865270000000  0.5068070000000 1.0
C      1  0.5465720000000  0.5046270000000  0.4772300000000 1.0
C      1  0.4717060000000  0.4196310000000  0.5689490000000 1.0
C      1  0.4949200000000  0.5685150000000  0.4341670000000 1.0
C      1  0.4939220000000  0.4388880000000  0.4230500000000 1.0
C      1  0.5446610000000  0.4045240000000  0.5124230000000 1.0
C      1  0.5509550000000  0.5059270000000  0.4046560000000 1.0
C      1  0.4221020000000  0.5012550000000  0.4367110000000 1.0
C      1  0.4408430000000  0.5650990000000  0.5314820000000 1.0
C      1  0.4724970000000  0.5978830000000  0.5134200000000 1.0
C      1  0.4044650000000  0.4688730000000  0.5493840000000 1.0
C      1  0.5246320000000  0.5330280000000  0.5815870000000 1.0
C      1  0.4794780000000  0.4105070000000  0.5298930000000 1.0
C      1  0.5281010000000  0.5984460000000  0.5223320000000 1.0
C      1  0.5980250000000  0.5022880000000  0.4614300000000 1.0
C      1  0.5331550000000  0.5273570000000  0.3937750000000 1.0
C      1  0.5009180000000  0.4152840000000  0.5778330000000 1.0
C      1  0.5569830000000  0.4328360000000  0.4222870000000 1.0
C      1  0.5136970000000  0.6177920000000  0.4642470000000 1.0
C      1  0.5181520000000  0.4318290000000  0.5932160000000 1.0
C      1  0.4614460000000  0.5410400000000  0.5333750000000 1.0
C      1  0.5781600000000  0.4424170000000  0.5003610000000 1.0
C      1  0.4812530000000  0.5529950000000  0.5957340000000 1.0
C      1  0.5469380000000  0.6001860000000  0.5001120000000 1.0
C      1  0.4298100000000  0.4228450000000  0.5299040000000 1.0
C      1  0.5374580000000  0.4500010000000  0.6045340000000 1.0
C      1  0.4351250000000  0.5538380000000  0.4378850000000 1.0
C      1  0.5866190000000  0.4599450000000  0.4788310000000 1.0
C      1  0.4468940000000  0.5187060000000  0.5922890000000 1.0
C      1  0.4576440000000  0.4674010000000  0.5673660000000 1.0
C      1  0.4617640000000  0.4432170000000  0.5847580000000 1.0
C      1  0.5230200000000  0.5052160000000  0.4423750000000 1.0
C      1  0.4353550000000  0.5524940000000  0.4672670000000 1.0
C      1  0.4248510000000  0.4664020000000  0.4711810000000 1.0
C      1  0.6052060000000  0.4832670000000  0.4826680000000 1.0
C      1  0.5088820000000  0.4833740000000  0.5557940000000 1.0
C      1  0.3872210000000  0.4751360000000  0.4974730000000 1.0
C      1  0.4618460000000  0.4386070000000  0.4176100000000 1.0
C      1  0.4804250000000  0.4869390000000  0.4911710000000 1.0
C      1  0.4503660000000  0.5917630000000  0.5315750000000 1.0
C      1  0.5934640000000  0.5317620000000  0.5477460000000 1.0
C      1  0.4165260000000  0.5371010000000  0.5600830000000 1.0
C      1  0.4599960000000  0.4313620000000  0.4741350000000 1.0
C      1  0.4933000000000  0.5134290000000  0.5239530000000 1.0
C      1  0.4981650000000  0.5297910000000  0.5944140000000 1.0
C      1  0.4038760000000  0.5186160000000  0.5074490000000 1.0
C      1  0.4489310000000  0.5805820000000  0.4397490000000 1.0
C      1  0.4664750000000  0.5934250000000  0.4856850000000 1.0
C      1  0.5392820000000  0.4189390000000  0.4411280000000 1.0
C      1  0.5712000000000  0.5560490000000  0.4489470000000 1.0
C      1  0.4789970000000  0.4646450000000  0.5057020000000 1.0
C      1  0.4880280000000  0.4966060000000  0.4173650000000 1.0
C      1  0.4946220000000  0.5956340000000  0.4735270000000 1.0
C      1  0.4684940000000  0.4943210000000  0.5681090000000 1.0
C      1  0.4391970000000  0.4438090000000  0.4347130000000 1.0
C      1  0.4951610000000  0.5296140000000  0.4806850000000 1.0
C      1  0.6062450000000  0.5062020000000  0.5014080000000 1.0
C      1  0.5670370000000  0.4957260000000  0.4551760000000 1.0
C      1  0.5628840000000  0.4551690000000  0.5859960000000 1.0
C      1  0.5151400000000  0.5480350000000  0.4840810000000 1.0
C      1  0.5071390000000  0.5152560000000  0.3872520000000 1.0
C      1  0.4626670000000  0.4858500000000  0.4701770000000 1.0
C      1  0.4957520000000  0.5159650000000  0.4372590000000 1.0
C      1  0.5382120000000  0.5806770000000  0.4532870000000 1.0
C      1  0.3915270000000  0.5032840000000  0.4859680000000 1.0
C      1  0.5775420000000  0.5596380000000  0.4970570000000 1.0
C      1  0.5205670000000  0.4801510000000  0.4562320000000 1.0
C      1  0.5414020000000  0.5317290000000  0.4846180000000 1.0
C      1  0.5294460000000  0.4779790000000  0.5744400000000 1.0
C      1  0.5044090000000  0.5547170000000  0.4103950000000 1.0
C      1  0.4891510000000  0.4204210000000  0.4800290000000 1.0
C      1  0.5063050000000  0.5600840000000  0.5151990000000 1.0
C      1  0.5532970000000  0.5246430000000  0.5804450000000 1.0
C      1  0.5873000000000  0.4763790000000  0.5431910000000 1.0
C      1  0.5411470000000  0.4653360000000  0.5186180000000 1.0
C      1  0.6031810000000  0.5250390000000  0.4781760000000 1.0
C      1  0.5832140000000  0.5803190000000  0.5342690000000 1.0
C      1  0.5881120000000  0.5510390000000  0.4705780000000 1.0
C      1  0.5192950000000  0.3928140000000  0.5032330000000 1.0
C      1  0.5361450000000  0.5813610000000  0.5483120000000 1.0
C      1  0.4900870000000  0.6122040000000  0.4480950000000 1.0
C      1  0.5387430000000  0.6042620000000  0.4710500000000 1.0
END
