TITL C-883733-4178-374 3.4111501218257 125000 -6462.21950117218 0 0 45 (C1) n - 1
REM
REM in /home/nfs/bkarasulu/CARBON/AIRSS/Generating-Clusters/ReaxFF-fromJPCA2015/Units_Real/with-SteepDescent/Only-C1/SD-CG/Try1-3A/FIRE-CG
REM
REM
REM
REM
REM
REM ./C.cell (11c1c37f851c82e70ff6c80c92926a4b)
REM
REM compiler GCC version 9.2.1 20190827 (Red Hat 9.2.1-1)
REM options -cpp -mtune=generic -march=x86-64 -g -O0 -fpre-include=/usr/include/finclude/math-vector-fortran.h
REM seed 1816341998 -1113921830 1057512731 -532242669 213621493 -363388932 317163039 2074378068 1594672704 -1829705956 1844988501 -116507091 1589834862 1633939032 545164136 2004436027 -908016272 -314956177 1846154425 1419783474 292625025 1542416565 399924967 1832074676 326904315 1297089620 160501420 1237070674 -2135163587 848139608 -1549021367 -1297442369 634923885
REM
CELL 1.54180   50.00000   50.00000   50.00000   90.00000   90.00000   90.00000
LATT -1
SFAC C  
C      1  0.5516220000000  0.4640870000000  0.4613150000000 1.0
C      1  0.5343790000000  0.4556720000000  0.5335550000000 1.0
C      1  0.4972280000000  0.5577180000000  0.5086810000000 1.0
C      1  0.4299980000000  0.5202860000000  0.5020260000000 1.0
C      1  0.5360890000000  0.5333370000000  0.5340860000000 1.0
C      1  0.4950300000000  0.5074140000000  0.4690840000000 1.0
C      1  0.4958270000000  0.5623880000000  0.5416130000000 1.0
C      1  0.4959010000000  0.5866210000000  0.5090310000000 1.0
C      1  0.5263280000000  0.5428730000000  0.5077230000000 1.0
C      1  0.4707360000000  0.5231940000000  0.4766770000000 1.0
C      1  0.4443830000000  0.5097650000000  0.4772580000000 1.0
C      1  0.4863550000000  0.4378690000000  0.5122370000000 1.0
C      1  0.5144810000000  0.5443320000000  0.5541160000000 1.0
C      1  0.4712800000000  0.5415080000000  0.4984900000000 1.0
C      1  0.5233940000000  0.4826490000000  0.5383440000000 1.0
C      1  0.5232610000000  0.5332820000000  0.4390660000000 1.0
C      1  0.5449700000000  0.5482210000000  0.4868380000000 1.0
C      1  0.4507460000000  0.5345050000000  0.5177380000000 1.0
C      1  0.5011310000000  0.4915540000000  0.5184540000000 1.0
C      1  0.5064260000000  0.5090500000000  0.4419730000000 1.0
C      1  0.5100030000000  0.4445990000000  0.5249380000000 1.0
C      1  0.5712200000000  0.5557780000000  0.5034150000000 1.0
C      1  0.5667140000000  0.4885680000000  0.5234100000000 1.0
C      1  0.5650220000000  0.5497540000000  0.5237090000000 1.0
C      1  0.4807430000000  0.5067340000000  0.5288740000000 1.0
C      1  0.4523070000000  0.4922400000000  0.5569330000000 1.0
C      1  0.5175110000000  0.4631440000000  0.4833890000000 1.0
C      1  0.4965940000000  0.4658250000000  0.4424690000000 1.0
C      1  0.4410960000000  0.4536610000000  0.5062360000000 1.0
C      1  0.4792690000000  0.4518840000000  0.4595690000000 1.0
C      1  0.5468660000000  0.4565150000000  0.4873550000000 1.0
C      1  0.5397180000000  0.5494830000000  0.4575470000000 1.0
C      1  0.4535210000000  0.4691000000000  0.5423040000000 1.0
C      1  0.5375640000000  0.4720920000000  0.4421840000000 1.0
C      1  0.4634630000000  0.5220740000000  0.5456450000000 1.0
C      1  0.4303700000000  0.4586600000000  0.4812790000000 1.0
C      1  0.4367430000000  0.4842530000000  0.4651170000000 1.0
C      1  0.5439390000000  0.5027480000000  0.5368710000000 1.0
C      1  0.5069800000000  0.4903640000000  0.4890050000000 1.0
C      1  0.4500090000000  0.4598260000000  0.4589020000000 1.0
C      1  0.4861110000000  0.5413100000000  0.5583700000000 1.0
C      1  0.4582860000000  0.4465490000000  0.5255200000000 1.0
C      1  0.5571670000000  0.4615120000000  0.5146720000000 1.0
C      1  0.4945970000000  0.4443350000000  0.4849320000000 1.0
C      1  0.5146210000000  0.4826660000000  0.4290510000000 1.0
END
