TITL C-883731-9874-421 -0.0667473433102258 125000 -8462.83914636343 0 0 59 (C1) n - 1
REM
REM in /home/nfs/bkarasulu/CARBON/AIRSS/Generating-Clusters/ReaxFF-fromJPCA2015/Units_Real/with-SteepDescent/Only-C1/SD-CG/Try1-3A/FIRE-CG
REM
REM
REM
REM
REM
REM ./C.cell (11c1c37f851c82e70ff6c80c92926a4b)
REM
REM compiler GCC version 9.2.1 20190827 (Red Hat 9.2.1-1)
REM options -cpp -mtune=generic -march=x86-64 -g -O0 -fpre-include=/usr/include/finclude/math-vector-fortran.h
REM seed -478354638 -1859744469 -214324708 159824940 -1240208338 -987621585 -1950844900 -2075731607 1118278901 133681639 495018816 916652393 -333810227 -296525785 521076253 -600319679 -1327917622 197465343 -1637317768 544926309 -1657520442 -668162243 1246754844 330493516 1887915018 -1257661760 -511591851 1240348880 -288507731 -718737487 931119428 1871548294 299031484
REM
CELL 1.54180   50.00000   50.00000   50.00000   90.00000   90.00000   90.00000
LATT -1
SFAC C  
C      1  0.5745320000000  0.4971260000000  0.5036720000000 1.0
C      1  0.4601490000000  0.4997600000000  0.5749550000000 1.0
C      1  0.5235050000000  0.4461340000000  0.5506940000000 1.0
C      1  0.5201930000000  0.4788390000000  0.4209680000000 1.0
C      1  0.5453270000000  0.4864280000000  0.4323690000000 1.0
C      1  0.4842740000000  0.4972790000000  0.5146210000000 1.0
C      1  0.4836790000000  0.4367770000000  0.4631930000000 1.0
C      1  0.5074700000000  0.4853600000000  0.5698190000000 1.0
C      1  0.4809560000000  0.4805220000000  0.5818460000000 1.0
C      1  0.4266430000000  0.4952010000000  0.5018290000000 1.0
C      1  0.5313280000000  0.5696290000000  0.4853340000000 1.0
C      1  0.5008800000000  0.4340050000000  0.4859760000000 1.0
C      1  0.4695890000000  0.4937320000000  0.4305460000000 1.0
C      1  0.5232870000000  0.4294870000000  0.5291650000000 1.0
C      1  0.5238710000000  0.5062180000000  0.5715880000000 1.0
C      1  0.5117550000000  0.4706200000000  0.5424360000000 1.0
C      1  0.4823630000000  0.4448850000000  0.4351120000000 1.0
C      1  0.5712390000000  0.4943330000000  0.5315290000000 1.0
C      1  0.5181170000000  0.5161050000000  0.4378090000000 1.0
C      1  0.4901360000000  0.4584560000000  0.4787390000000 1.0
C      1  0.4285210000000  0.5213610000000  0.4547150000000 1.0
C      1  0.4377950000000  0.5478410000000  0.5203440000000 1.0
C      1  0.5454780000000  0.5355660000000  0.5142330000000 1.0
C      1  0.4871700000000  0.4665880000000  0.5250320000000 1.0
C      1  0.5013220000000  0.4403610000000  0.5134700000000 1.0
C      1  0.4252170000000  0.5233850000000  0.5126660000000 1.0
C      1  0.4503370000000  0.5120280000000  0.4397640000000 1.0
C      1  0.5320000000000  0.5618930000000  0.4574860000000 1.0
C      1  0.4301820000000  0.4935100000000  0.4720610000000 1.0
C      1  0.4739490000000  0.5190400000000  0.5297680000000 1.0
C      1  0.5581840000000  0.4667310000000  0.5271150000000 1.0
C      1  0.5482140000000  0.4423880000000  0.5397370000000 1.0
C      1  0.4692380000000  0.5460890000000  0.5147120000000 1.0
C      1  0.5324110000000  0.4850380000000  0.4897950000000 1.0
C      1  0.5556350000000  0.5572520000000  0.4744060000000 1.0
C      1  0.4691770000000  0.5219360000000  0.5584710000000 1.0
C      1  0.4582540000000  0.4716580000000  0.5659680000000 1.0
C      1  0.5581130000000  0.5011600000000  0.4800100000000 1.0
C      1  0.4819880000000  0.5467100000000  0.5742560000000 1.0
C      1  0.5441820000000  0.5250150000000  0.5649710000000 1.0
C      1  0.5602260000000  0.5329780000000  0.4897980000000 1.0
C      1  0.4928330000000  0.5569650000000  0.5499500000000 1.0
C      1  0.5069480000000  0.4514080000000  0.4208500000000 1.0
C      1  0.4726110000000  0.5479950000000  0.4824160000000 1.0
C      1  0.5333080000000  0.4778740000000  0.5167820000000 1.0
C      1  0.5008810000000  0.4933360000000  0.4403360000000 1.0
C      1  0.4934480000000  0.5057150000000  0.4895490000000 1.0
C      1  0.4953840000000  0.5602760000000  0.5229900000000 1.0
C      1  0.4437220000000  0.4745750000000  0.4570270000000 1.0
C      1  0.4396150000000  0.4760710000000  0.5194960000000 1.0
C      1  0.5550590000000  0.5194910000000  0.5357910000000 1.0
C      1  0.5185680000000  0.5513250000000  0.5053330000000 1.0
C      1  0.5062100000000  0.4832460000000  0.4739230000000 1.0
C      1  0.4593010000000  0.4641110000000  0.5375250000000 1.0
C      1  0.4601750000000  0.4668510000000  0.4357470000000 1.0
C      1  0.5006010000000  0.5337530000000  0.4818630000000 1.0
C      1  0.4639320000000  0.5665810000000  0.4672980000000 1.0
C      1  0.5143590000000  0.5383760000000  0.4536680000000 1.0
C      1  0.5661580000000  0.4926240000000  0.4484770000000 1.0
END
