TITL C-883734-4173-333 23.7138634986881 125000 -29497.9413176039 0 0 196 (C1) n - 1
REM
REM in /home/nfs/bkarasulu/CARBON/AIRSS/Generating-Clusters/ReaxFF-fromJPCA2015/Units_Real/with-SteepDescent/Only-C1/SD-CG/Try1-3A/FIRE-CG
REM
REM
REM
REM
REM
REM ./C.cell (11c1c37f851c82e70ff6c80c92926a4b)
REM
REM compiler GCC version 9.2.1 20190827 (Red Hat 9.2.1-1)
REM options -cpp -mtune=generic -march=x86-64 -g -O0 -fpre-include=/usr/include/finclude/math-vector-fortran.h
REM seed 56499168 -1687190753 -2007219159 -128108488 -1327482504 368959179 -328552889 -119520490 -1168652435 -656248846 -2007757999 520892486 -1030337922 728561243 -1510611951 1020108741 373581024 -1779332887 110291323 -907011446 -125472968 -303306020 2123457362 -156494728 419323352 928023404 -2077412405 1203431701 63916367 290406290 -1164958042 572865318 -925020104
REM
CELL 1.54180   50.00000   50.00000   50.00000   90.00000   90.00000   90.00000
LATT -1
SFAC C  
C      1  0.4672130000000  0.5514610000000  0.5952880000000 1.0
C      1  0.4942400000000  0.4853480000000  0.5659700000000 1.0
C      1  0.5605080000000  0.4144030000000  0.5171890000000 1.0
C      1  0.4816840000000  0.4567620000000  0.5151190000000 1.0
C      1  0.4594400000000  0.5003840000000  0.6097610000000 1.0
C      1  0.5045500000000  0.5311000000000  0.5994030000000 1.0
C      1  0.4731170000000  0.4371160000000  0.4105550000000 1.0
C      1  0.4466320000000  0.4566950000000  0.5626680000000 1.0
C      1  0.5471790000000  0.5306070000000  0.5932640000000 1.0
C      1  0.4469280000000  0.4040100000000  0.4499180000000 1.0
C      1  0.5257290000000  0.4844350000000  0.4368270000000 1.0
C      1  0.4781850000000  0.5884550000000  0.4332040000000 1.0
C      1  0.5671890000000  0.4389860000000  0.5326960000000 1.0
C      1  0.4350170000000  0.4980140000000  0.4545090000000 1.0
C      1  0.4795210000000  0.4803920000000  0.4479410000000 1.0
C      1  0.5963900000000  0.5425620000000  0.5106630000000 1.0
C      1  0.4644120000000  0.4798300000000  0.5168840000000 1.0
C      1  0.6014610000000  0.4984400000000  0.4416640000000 1.0
C      1  0.4484390000000  0.5279620000000  0.6016180000000 1.0
C      1  0.5376610000000  0.4765970000000  0.5312140000000 1.0
C      1  0.4975910000000  0.5312260000000  0.4448170000000 1.0
C      1  0.4381580000000  0.5335370000000  0.4610720000000 1.0
C      1  0.5349040000000  0.5446400000000  0.5424850000000 1.0
C      1  0.5216720000000  0.5136450000000  0.4369160000000 1.0
C      1  0.5369290000000  0.5019120000000  0.5996670000000 1.0
C      1  0.5265030000000  0.5286410000000  0.4849430000000 1.0
C      1  0.4323520000000  0.5775050000000  0.4994790000000 1.0
C      1  0.4914030000000  0.5714130000000  0.4112030000000 1.0
C      1  0.5056380000000  0.4077010000000  0.5676490000000 1.0
C      1  0.5410330000000  0.5118470000000  0.3942890000000 1.0
C      1  0.4612430000000  0.5475530000000  0.5348390000000 1.0
C      1  0.5193510000000  0.4899180000000  0.5735880000000 1.0
C      1  0.4944830000000  0.5198970000000  0.5217080000000 1.0
C      1  0.4803540000000  0.5748740000000  0.5826350000000 1.0
C      1  0.5771710000000  0.4485690000000  0.5584970000000 1.0
C      1  0.3991970000000  0.5565090000000  0.4779910000000 1.0
C      1  0.5861420000000  0.5695900000000  0.5191820000000 1.0
C      1  0.5577830000000  0.6140570000000  0.4624050000000 1.0
C      1  0.4647890000000  0.4210360000000  0.4843730000000 1.0
C      1  0.4971720000000  0.4795470000000  0.3886280000000 1.0
C      1  0.4523300000000  0.5537050000000  0.5071580000000 1.0
C      1  0.5274780000000  0.5864570000000  0.5650510000000 1.0
C      1  0.4036530000000  0.5140210000000  0.5687360000000 1.0
C      1  0.5157100000000  0.4252190000000  0.5903560000000 1.0
C      1  0.5889120000000  0.4952530000000  0.5589020000000 1.0
C      1  0.4624680000000  0.4890640000000  0.4902970000000 1.0
C      1  0.4133270000000  0.4933250000000  0.4350980000000 1.0
C      1  0.5106420000000  0.5723790000000  0.5831220000000 1.0
C      1  0.5182280000000  0.4314010000000  0.4051000000000 1.0
C      1  0.5341150000000  0.5566060000000  0.4825070000000 1.0
C      1  0.6026260000000  0.5597150000000  0.4688600000000 1.0
C      1  0.5954490000000  0.5210090000000  0.5698070000000 1.0
C      1  0.4851730000000  0.4258110000000  0.5572630000000 1.0
C      1  0.5186470000000  0.4887390000000  0.5161930000000 1.0
C      1  0.4540530000000  0.4395890000000  0.5043730000000 1.0
C      1  0.4253570000000  0.4067830000000  0.5107790000000 1.0
C      1  0.4771480000000  0.5245960000000  0.3984630000000 1.0
C      1  0.5200050000000  0.4948040000000  0.3910510000000 1.0
C      1  0.4799890000000  0.6042010000000  0.4809630000000 1.0
C      1  0.5006680000000  0.5182870000000  0.4736960000000 1.0
C      1  0.4232260000000  0.5261770000000  0.5868480000000 1.0
C      1  0.5886090000000  0.5147760000000  0.4199320000000 1.0
C      1  0.4060290000000  0.4281400000000  0.5081870000000 1.0
C      1  0.4443550000000  0.4207500000000  0.5277850000000 1.0
C      1  0.4375530000000  0.5374130000000  0.5484170000000 1.0
C      1  0.4317030000000  0.4542590000000  0.4896140000000 1.0
C      1  0.5608000000000  0.4534670000000  0.5839100000000 1.0
C      1  0.5268510000000  0.3993370000000  0.4498390000000 1.0
C      1  0.3884270000000  0.4954230000000  0.5298040000000 1.0
C      1  0.4737930000000  0.4363030000000  0.4616190000000 1.0
C      1  0.5706840000000  0.4753910000000  0.4193670000000 1.0
C      1  0.4671670000000  0.5013060000000  0.5338740000000 1.0
C      1  0.5327860000000  0.6147670000000  0.4780680000000 1.0
C      1  0.4497030000000  0.3975150000000  0.4939030000000 1.0
C      1  0.4242190000000  0.4440120000000  0.4307040000000 1.0
C      1  0.6102840000000  0.5357330000000  0.4855800000000 1.0
C      1  0.4996270000000  0.4697800000000  0.6170080000000 1.0
C      1  0.4832840000000  0.5330830000000  0.5793580000000 1.0
C      1  0.4697480000000  0.5849740000000  0.5563660000000 1.0
C      1  0.4596360000000  0.4592130000000  0.4508150000000 1.0
C      1  0.5591300000000  0.5086660000000  0.4659840000000 1.0
C      1  0.5154180000000  0.3919440000000  0.5450130000000 1.0
C      1  0.5750120000000  0.5349120000000  0.5867650000000 1.0
C      1  0.5121580000000  0.4200400000000  0.5142990000000 1.0
C      1  0.4282120000000  0.5091810000000  0.4158060000000 1.0
C      1  0.4682770000000  0.5264470000000  0.4275020000000 1.0
C      1  0.5369370000000  0.5605330000000  0.4136240000000 1.0
C      1  0.4068040000000  0.4831700000000  0.5691960000000 1.0
C      1  0.5674660000000  0.5014870000000  0.4058540000000 1.0
C      1  0.4495680000000  0.4748000000000  0.6022300000000 1.0
C      1  0.5642010000000  0.4922250000000  0.5701840000000 1.0
C      1  0.4551850000000  0.5361280000000  0.4862600000000 1.0
C      1  0.3830640000000  0.4815040000000  0.4806360000000 1.0
C      1  0.5964820000000  0.4685610000000  0.5504580000000 1.0
C      1  0.4063220000000  0.4460410000000  0.5324850000000 1.0
C      1  0.5737130000000  0.5901400000000  0.4728830000000 1.0
C      1  0.5896750000000  0.5495500000000  0.5656150000000 1.0
C      1  0.4381500000000  0.5807450000000  0.4680940000000 1.0
C      1  0.5676560000000  0.4165080000000  0.4887450000000 1.0
C      1  0.5142930000000  0.4089030000000  0.4249760000000 1.0
C      1  0.4825770000000  0.5301930000000  0.4936640000000 1.0
C      1  0.3930900000000  0.5248020000000  0.5437200000000 1.0
C      1  0.4681260000000  0.3898960000000  0.5147760000000 1.0
C      1  0.4309930000000  0.4398650000000  0.5441670000000 1.0
C      1  0.4958780000000  0.4442520000000  0.6072240000000 1.0
C      1  0.3959530000000  0.4707380000000  0.5456700000000 1.0
C      1  0.5246390000000  0.5487790000000  0.5946520000000 1.0
C      1  0.4637040000000  0.5910500000000  0.4597340000000 1.0
C      1  0.5581110000000  0.4626280000000  0.5176680000000 1.0
C      1  0.4422860000000  0.5853880000000  0.5453800000000 1.0
C      1  0.5024900000000  0.4674440000000  0.4372190000000 1.0
C      1  0.5267820000000  0.4591680000000  0.4842940000000 1.0
C      1  0.5035780000000  0.6000350000000  0.4395260000000 1.0
C      1  0.5053310000000  0.5438230000000  0.5357210000000 1.0
C      1  0.5062570000000  0.4727970000000  0.4964660000000 1.0
C      1  0.5584660000000  0.4808560000000  0.5957770000000 1.0
C      1  0.5479440000000  0.5226870000000  0.4433970000000 1.0
C      1  0.4103150000000  0.4379690000000  0.4770160000000 1.0
C      1  0.4941910000000  0.3807390000000  0.5220870000000 1.0
C      1  0.4703950000000  0.4817470000000  0.5567260000000 1.0
C      1  0.5753150000000  0.5503010000000  0.4754620000000 1.0
C      1  0.5149000000000  0.6064890000000  0.5462980000000 1.0
C      1  0.4867620000000  0.4943150000000  0.6210630000000 1.0
C      1  0.5266090000000  0.5388820000000  0.3977670000000 1.0
C      1  0.5692090000000  0.4259650000000  0.4482430000000 1.0
C      1  0.5764260000000  0.5679380000000  0.5470450000000 1.0
C      1  0.4249660000000  0.4235130000000  0.4507560000000 1.0
C      1  0.6030760000000  0.5564440000000  0.4403370000000 1.0
C      1  0.5937460000000  0.4699870000000  0.4371800000000 1.0
C      1  0.4048130000000  0.4649090000000  0.4382670000000 1.0
C      1  0.4225140000000  0.5591010000000  0.4575920000000 1.0
C      1  0.5898980000000  0.4343790000000  0.4829830000000 1.0
C      1  0.5525200000000  0.4087550000000  0.4609200000000 1.0
C      1  0.5278060000000  0.5753840000000  0.5020990000000 1.0
C      1  0.4836490000000  0.5473040000000  0.5526750000000 1.0
C      1  0.3984980000000  0.5296850000000  0.4833730000000 1.0
C      1  0.4500020000000  0.4875380000000  0.4089550000000 1.0
C      1  0.5018160000000  0.5703320000000  0.5146450000000 1.0
C      1  0.4997360000000  0.4433470000000  0.4515870000000 1.0
C      1  0.4903270000000  0.5595300000000  0.4890050000000 1.0
C      1  0.5339220000000  0.4033360000000  0.5257420000000 1.0
C      1  0.5739050000000  0.5896600000000  0.5017900000000 1.0
C      1  0.6079630000000  0.5095720000000  0.4694490000000 1.0
C      1  0.5570340000000  0.5506080000000  0.4335820000000 1.0
C      1  0.4390680000000  0.5326190000000  0.4306300000000 1.0
C      1  0.4046510000000  0.5641320000000  0.5058070000000 1.0
C      1  0.4429100000000  0.4755690000000  0.4731950000000 1.0
C      1  0.5890030000000  0.4444180000000  0.4536550000000 1.0
C      1  0.5863640000000  0.5444450000000  0.4222930000000 1.0
C      1  0.5113240000000  0.5091880000000  0.6150320000000 1.0
C      1  0.3693910000000  0.4844830000000  0.5052010000000 1.0
C      1  0.4843910000000  0.4118760000000  0.4231160000000 1.0
C      1  0.5654630000000  0.4805360000000  0.4697460000000 1.0
C      1  0.6103740000000  0.4617300000000  0.5261100000000 1.0
C      1  0.5018560000000  0.3923850000000  0.4668800000000 1.0
C      1  0.4678670000000  0.4493450000000  0.6002280000000 1.0
C      1  0.5009310000000  0.3757800000000  0.4941150000000 1.0
C      1  0.5442270000000  0.6015720000000  0.5047520000000 1.0
C      1  0.4041720000000  0.5042680000000  0.4901070000000 1.0
C      1  0.5093420000000  0.4158820000000  0.4850920000000 1.0
C      1  0.4718760000000  0.6051450000000  0.5095900000000 1.0
C      1  0.5379820000000  0.4385310000000  0.5868830000000 1.0
C      1  0.5346670000000  0.6185280000000  0.5299160000000 1.0
C      1  0.4601770000000  0.4982050000000  0.4364590000000 1.0
C      1  0.3928770000000  0.4590620000000  0.4638500000000 1.0
C      1  0.4941080000000  0.4356180000000  0.5314430000000 1.0
C      1  0.6081220000000  0.4450170000000  0.5034660000000 1.0
C      1  0.4976750000000  0.5451150000000  0.3978110000000 1.0
C      1  0.4734140000000  0.4966020000000  0.3923180000000 1.0
C      1  0.5196480000000  0.4381730000000  0.4701430000000 1.0
C      1  0.4164060000000  0.5010510000000  0.5175170000000 1.0
C      1  0.5735390000000  0.5248110000000  0.5134120000000 1.0
C      1  0.5058210000000  0.6089780000000  0.4677690000000 1.0
C      1  0.4753880000000  0.3977020000000  0.4461290000000 1.0
C      1  0.4377260000000  0.5130290000000  0.5326780000000 1.0
C      1  0.4648990000000  0.4378250000000  0.5744120000000 1.0
C      1  0.5564080000000  0.5654010000000  0.4639290000000 1.0
C      1  0.4285890000000  0.4703830000000  0.5829590000000 1.0
C      1  0.4954970000000  0.4492990000000  0.3974920000000 1.0
C      1  0.4011660000000  0.5514030000000  0.5323380000000 1.0
C      1  0.6135080000000  0.4725360000000  0.5003650000000 1.0
C      1  0.5170190000000  0.5820900000000  0.4183540000000 1.0
C      1  0.5411260000000  0.4871070000000  0.5561340000000 1.0
C      1  0.5523310000000  0.4727700000000  0.4413350000000 1.0
C      1  0.4502900000000  0.4545840000000  0.4199990000000 1.0
C      1  0.4881170000000  0.5952560000000  0.5331960000000 1.0
C      1  0.5968010000000  0.4862150000000  0.4812190000000 1.0
C      1  0.5522650000000  0.4643520000000  0.4894390000000 1.0
C      1  0.5259190000000  0.5153520000000  0.5117600000000 1.0
C      1  0.4456660000000  0.5970840000000  0.5187540000000 1.0
C      1  0.4978470000000  0.5574660000000  0.4616160000000 1.0
C      1  0.5486910000000  0.5258160000000  0.5276430000000 1.0
C      1  0.5472910000000  0.5679030000000  0.5525340000000 1.0
C      1  0.5660170000000  0.5268200000000  0.4857290000000 1.0
C      1  0.4889330000000  0.4901520000000  0.4770120000000 1.0
C      1  0.4227990000000  0.5628170000000  0.5486410000000 1.0
END
