TITL C-883726-8501-119 11.6232565912655 125000 -17046.4756070672 0 0 117 (C1) n - 1
REM
REM in /home/nfs/bkarasulu/CARBON/AIRSS/Generating-Clusters/ReaxFF-fromJPCA2015/Units_Real/with-SteepDescent/Only-C1/SD-CG/Try1-3A/FIRE-CG
REM
REM
REM
REM
REM
REM ./C.cell (11c1c37f851c82e70ff6c80c92926a4b)
REM
REM compiler GCC version 9.2.1 20190827 (Red Hat 9.2.1-1)
REM options -cpp -mtune=generic -march=x86-64 -g -O0 -fpre-include=/usr/include/finclude/math-vector-fortran.h
REM seed 1845127223 2136269282 -1129835170 -431598460 -711529019 920961134 -396961510 -1523527895 610433817 -246214950 -842240530 -696482411 -1477640660 215742417 2039788193 -1569577610 455048065 -1079873332 -1681259645 -1599581252 -1662208021 -258171679 -2109264390 -1085482375 -917443300 357038881 -1274890996 -617818206 -1476328093 1927417895 206696965 1419244770 964386562
REM
CELL 1.54180   50.00000   50.00000   50.00000   90.00000   90.00000   90.00000
LATT -1
SFAC C  
C      1  0.4856770000000  0.5877780000000  0.5118600000000 1.0
C      1  0.5206310000000  0.4808650000000  0.5409640000000 1.0
C      1  0.5153790000000  0.4996550000000  0.4530490000000 1.0
C      1  0.5467740000000  0.5468430000000  0.5175400000000 1.0
C      1  0.4853440000000  0.4887220000000  0.4083190000000 1.0
C      1  0.4753550000000  0.5481170000000  0.5713990000000 1.0
C      1  0.5075570000000  0.4378730000000  0.5721520000000 1.0
C      1  0.4764390000000  0.4053430000000  0.5188710000000 1.0
C      1  0.5544780000000  0.4483080000000  0.5613150000000 1.0
C      1  0.4914580000000  0.5615540000000  0.4760400000000 1.0
C      1  0.4495970000000  0.5256710000000  0.4271270000000 1.0
C      1  0.5013900000000  0.4152700000000  0.5085390000000 1.0
C      1  0.5508180000000  0.4317920000000  0.5015820000000 1.0
C      1  0.5318660000000  0.4893240000000  0.5930870000000 1.0
C      1  0.5793340000000  0.5447400000000  0.4653030000000 1.0
C      1  0.5159930000000  0.4633360000000  0.5652440000000 1.0
C      1  0.5689030000000  0.4524500000000  0.4697590000000 1.0
C      1  0.4496790000000  0.4199670000000  0.5281710000000 1.0
C      1  0.4632440000000  0.4569740000000  0.5100170000000 1.0
C      1  0.5695790000000  0.4637480000000  0.5409370000000 1.0
C      1  0.5045780000000  0.4940070000000  0.5926450000000 1.0
C      1  0.5440070000000  0.5139170000000  0.5804900000000 1.0
C      1  0.5607060000000  0.5009680000000  0.4402560000000 1.0
C      1  0.5685910000000  0.5640720000000  0.5476190000000 1.0
C      1  0.4625650000000  0.5239180000000  0.5818800000000 1.0
C      1  0.5708390000000  0.5614270000000  0.5145640000000 1.0
C      1  0.4774370000000  0.4987340000000  0.5921180000000 1.0
C      1  0.5209330000000  0.4725550000000  0.4668730000000 1.0
C      1  0.4958560000000  0.4186880000000  0.5620430000000 1.0
C      1  0.6025310000000  0.5226390000000  0.4886820000000 1.0
C      1  0.5577820000000  0.5066120000000  0.4929440000000 1.0
C      1  0.5128020000000  0.5745370000000  0.5571010000000 1.0
C      1  0.4558190000000  0.5445790000000  0.4543090000000 1.0
C      1  0.4528600000000  0.4678480000000  0.4417140000000 1.0
C      1  0.5282330000000  0.4528960000000  0.4471300000000 1.0
C      1  0.4817490000000  0.4853270000000  0.5317030000000 1.0
C      1  0.5346960000000  0.5497410000000  0.4642120000000 1.0
C      1  0.4267320000000  0.5077500000000  0.4262310000000 1.0
C      1  0.4538290000000  0.4998940000000  0.5071960000000 1.0
C      1  0.4461790000000  0.4614220000000  0.5621630000000 1.0
C      1  0.4635230000000  0.5777660000000  0.4990180000000 1.0
C      1  0.5382310000000  0.4609750000000  0.5838350000000 1.0
C      1  0.4296300000000  0.4791700000000  0.5468890000000 1.0
C      1  0.4918440000000  0.5362110000000  0.5021340000000 1.0
C      1  0.5325420000000  0.5024580000000  0.4264700000000 1.0
C      1  0.4538160000000  0.4954890000000  0.5349760000000 1.0
C      1  0.5051680000000  0.5859600000000  0.4848230000000 1.0
C      1  0.4923060000000  0.4438420000000  0.4195940000000 1.0
C      1  0.4724290000000  0.5158130000000  0.4093520000000 1.0
C      1  0.4554160000000  0.5280300000000  0.5374500000000 1.0
C      1  0.5226550000000  0.5243050000000  0.4680540000000 1.0
C      1  0.5063350000000  0.5624040000000  0.4230650000000 1.0
C      1  0.4844740000000  0.5473550000000  0.4528060000000 1.0
C      1  0.5047720000000  0.4602670000000  0.4869030000000 1.0
C      1  0.4531610000000  0.4826980000000  0.5817450000000 1.0
C      1  0.5610950000000  0.4589460000000  0.5118680000000 1.0
C      1  0.5463870000000  0.5726430000000  0.5054080000000 1.0
C      1  0.5595090000000  0.5496110000000  0.4488280000000 1.0
C      1  0.4250280000000  0.4803650000000  0.4395560000000 1.0
C      1  0.4259290000000  0.5267990000000  0.4890620000000 1.0
C      1  0.4149270000000  0.4474700000000  0.4940970000000 1.0
C      1  0.4990820000000  0.4304120000000  0.4816290000000 1.0
C      1  0.4549220000000  0.4777840000000  0.4911300000000 1.0
C      1  0.4670140000000  0.5246870000000  0.5105770000000 1.0
C      1  0.5291600000000  0.5345900000000  0.5370170000000 1.0
C      1  0.4267330000000  0.4302010000000  0.5143440000000 1.0
C      1  0.5363940000000  0.5334390000000  0.4201640000000 1.0
C      1  0.4872700000000  0.5863930000000  0.4611310000000 1.0
C      1  0.4823420000000  0.5700330000000  0.4367490000000 1.0
C      1  0.4080630000000  0.5054920000000  0.5023350000000 1.0
C      1  0.5699810000000  0.5114880000000  0.5659440000000 1.0
C      1  0.4887810000000  0.5018110000000  0.4658280000000 1.0
C      1  0.4053640000000  0.4784690000000  0.4894090000000 1.0
C      1  0.4566060000000  0.4473370000000  0.5376920000000 1.0
C      1  0.5038440000000  0.5154790000000  0.4874040000000 1.0
C      1  0.5887510000000  0.5475690000000  0.4895330000000 1.0
C      1  0.4465670000000  0.5634510000000  0.4826380000000 1.0
C      1  0.5411130000000  0.4317030000000  0.5426370000000 1.0
C      1  0.5043890000000  0.5517730000000  0.5739560000000 1.0
C      1  0.5222800000000  0.4274180000000  0.4572510000000 1.0
C      1  0.4847770000000  0.4042410000000  0.5451910000000 1.0
C      1  0.5144030000000  0.4842200000000  0.4109040000000 1.0
C      1  0.5180450000000  0.4576160000000  0.4204940000000 1.0
C      1  0.5263180000000  0.5331420000000  0.5667110000000 1.0
C      1  0.4073950000000  0.5087420000000  0.5304820000000 1.0
C      1  0.4967910000000  0.4233660000000  0.4402190000000 1.0
C      1  0.5664470000000  0.4930620000000  0.4673350000000 1.0
C      1  0.4316630000000  0.5523680000000  0.5043950000000 1.0
C      1  0.4767380000000  0.4242740000000  0.4601400000000 1.0
C      1  0.4336870000000  0.4390690000000  0.4755500000000 1.0
C      1  0.5416500000000  0.5747140000000  0.5532130000000 1.0
C      1  0.4153920000000  0.5029020000000  0.5568010000000 1.0
C      1  0.5032370000000  0.5293590000000  0.5275380000000 1.0
C      1  0.5814190000000  0.4702840000000  0.4870960000000 1.0
C      1  0.5745810000000  0.4920290000000  0.5430640000000 1.0
C      1  0.4617230000000  0.4918500000000  0.4656920000000 1.0
C      1  0.5512960000000  0.4303180000000  0.4718960000000 1.0
C      1  0.5638670000000  0.5290700000000  0.4310320000000 1.0
C      1  0.5991640000000  0.4961650000000  0.4981130000000 1.0
C      1  0.4450770000000  0.5205650000000  0.4680860000000 1.0
C      1  0.4430260000000  0.5532830000000  0.5330210000000 1.0
C      1  0.5706320000000  0.5381950000000  0.5583070000000 1.0
C      1  0.5298440000000  0.4200020000000  0.5192600000000 1.0
C      1  0.4721920000000  0.4650500000000  0.4191360000000 1.0
C      1  0.5147050000000  0.5456550000000  0.4065010000000 1.0
C      1  0.5776230000000  0.5041980000000  0.5163020000000 1.0
C      1  0.5308460000000  0.4978050000000  0.4985110000000 1.0
C      1  0.4519780000000  0.4390230000000  0.4553020000000 1.0
C      1  0.5347600000000  0.4763020000000  0.5167390000000 1.0
C      1  0.4901900000000  0.4667790000000  0.5109910000000 1.0
C      1  0.4948350000000  0.5292000000000  0.4028480000000 1.0
C      1  0.5021090000000  0.5033000000000  0.5398280000000 1.0
C      1  0.4883350000000  0.5797900000000  0.5391250000000 1.0
C      1  0.4644400000000  0.5662240000000  0.5499640000000 1.0
C      1  0.5314350000000  0.5728110000000  0.4818510000000 1.0
C      1  0.4144810000000  0.4796890000000  0.4650140000000 1.0
C      1  0.4388460000000  0.5073710000000  0.5769010000000 1.0
END
