TITL C-883740-3686-184 -3.81253444246355 125000 -16012.5054870136 0 0 107 (C1) n - 1
REM
REM in /home/nfs/bkarasulu/CARBON/AIRSS/Generating-Clusters/ReaxFF-fromJPCA2015/Units_Real/with-SteepDescent/Only-C1/SD-CG/Try1-3A/FIRE-CG
REM
REM
REM
REM
REM
REM ./C.cell (11c1c37f851c82e70ff6c80c92926a4b)
REM
REM compiler GCC version 9.2.1 20190827 (Red Hat 9.2.1-1)
REM options -cpp -mtune=generic -march=x86-64 -g -O0 -fpre-include=/usr/include/finclude/math-vector-fortran.h
REM seed -1161818786 -586390414 1209720888 -1626672636 -920328149 1702340705 958256899 -1118558026 -1618988496 1788888317 1213015845 670377037 -751474647 330349652 1488696609 1295205532 1572036985 -555151873 -826515549 -2007341340 1988316851 -1493989467 959068784 -217289165 -2008891946 -193208243 988092935 555479596 330313793 -813811196 -1241301086 925290434 1810696663
REM
CELL 1.54180   50.00000   50.00000   50.00000   90.00000   90.00000   90.00000
LATT -1
SFAC C  
C      1  0.4244800000000  0.4713320000000  0.5474780000000 1.0
C      1  0.5732980000000  0.4958550000000  0.4968530000000 1.0
C      1  0.5666380000000  0.4888360000000  0.4684980000000 1.0
C      1  0.5151630000000  0.5549570000000  0.4296180000000 1.0
C      1  0.5007060000000  0.5826030000000  0.4787150000000 1.0
C      1  0.5287180000000  0.5599400000000  0.4551870000000 1.0
C      1  0.5228030000000  0.4940220000000  0.4496330000000 1.0
C      1  0.5375120000000  0.4895020000000  0.5840240000000 1.0
C      1  0.4892690000000  0.5161000000000  0.4972810000000 1.0
C      1  0.5183770000000  0.4541340000000  0.4802320000000 1.0
C      1  0.5795840000000  0.5362410000000  0.4694780000000 1.0
C      1  0.4648990000000  0.5735300000000  0.5117730000000 1.0
C      1  0.4238260000000  0.4522630000000  0.4983140000000 1.0
C      1  0.5744700000000  0.4554970000000  0.5344140000000 1.0
C      1  0.5264970000000  0.5308640000000  0.4168190000000 1.0
C      1  0.5033980000000  0.4114090000000  0.5055430000000 1.0
C      1  0.4907720000000  0.4150360000000  0.4794720000000 1.0
C      1  0.5371060000000  0.5817190000000  0.5281440000000 1.0
C      1  0.4441660000000  0.4510830000000  0.4475560000000 1.0
C      1  0.5050950000000  0.4791850000000  0.5543350000000 1.0
C      1  0.4258210000000  0.4717170000000  0.4366960000000 1.0
C      1  0.4389660000000  0.4459410000000  0.5455770000000 1.0
C      1  0.4123390000000  0.5071420000000  0.4935500000000 1.0
C      1  0.5185240000000  0.5351150000000  0.5739220000000 1.0
C      1  0.4284280000000  0.4738170000000  0.5180070000000 1.0
C      1  0.4520730000000  0.5204990000000  0.4323490000000 1.0
C      1  0.5010020000000  0.4691930000000  0.5828820000000 1.0
C      1  0.5277720000000  0.4957170000000  0.5203360000000 1.0
C      1  0.4433660000000  0.5571030000000  0.5223100000000 1.0
C      1  0.4367530000000  0.4975200000000  0.4291650000000 1.0
C      1  0.5609680000000  0.4340030000000  0.5372810000000 1.0
C      1  0.4495200000000  0.4477750000000  0.4764880000000 1.0
C      1  0.5713340000000  0.5627740000000  0.4715740000000 1.0
C      1  0.5468100000000  0.5278050000000  0.5703920000000 1.0
C      1  0.4795810000000  0.5317220000000  0.4237070000000 1.0
C      1  0.4548780000000  0.4161440000000  0.5107900000000 1.0
C      1  0.4840110000000  0.4693860000000  0.4265180000000 1.0
C      1  0.5465260000000  0.5397720000000  0.5015460000000 1.0
C      1  0.5127890000000  0.5693330000000  0.5307520000000 1.0
C      1  0.5034950000000  0.4929340000000  0.5062630000000 1.0
C      1  0.4708690000000  0.5211290000000  0.5856080000000 1.0
C      1  0.5852570000000  0.4666800000000  0.4594790000000 1.0
C      1  0.5126220000000  0.4927630000000  0.5963730000000 1.0
C      1  0.5275450000000  0.5855200000000  0.4683510000000 1.0
C      1  0.4897940000000  0.4431410000000  0.4355470000000 1.0
C      1  0.5360330000000  0.4715920000000  0.4618720000000 1.0
C      1  0.4226640000000  0.5189380000000  0.5477890000000 1.0
C      1  0.4796440000000  0.5467370000000  0.5494320000000 1.0
C      1  0.5299020000000  0.4219120000000  0.5134100000000 1.0
C      1  0.4523860000000  0.4855670000000  0.5068660000000 1.0
C      1  0.5077480000000  0.5139210000000  0.4623070000000 1.0
C      1  0.5371650000000  0.4546520000000  0.4352370000000 1.0
C      1  0.5276400000000  0.4721660000000  0.5379110000000 1.0
C      1  0.4061830000000  0.4793000000000  0.4850770000000 1.0
C      1  0.4314300000000  0.4951820000000  0.5621180000000 1.0
C      1  0.4551660000000  0.5126850000000  0.5163990000000 1.0
C      1  0.4377920000000  0.5442790000000  0.5492830000000 1.0
C      1  0.5755610000000  0.5236010000000  0.4992250000000 1.0
C      1  0.4262260000000  0.5152770000000  0.5186350000000 1.0
C      1  0.5019640000000  0.5153890000000  0.4133340000000 1.0
C      1  0.4773380000000  0.5206980000000  0.5347470000000 1.0
C      1  0.5793610000000  0.5211430000000  0.5295050000000 1.0
C      1  0.5393180000000  0.4358160000000  0.4892310000000 1.0
C      1  0.4866960000000  0.5555840000000  0.4381410000000 1.0
C      1  0.5534780000000  0.4248220000000  0.4657050000000 1.0
C      1  0.4642650000000  0.4486870000000  0.4292190000000 1.0
C      1  0.5205040000000  0.5869000000000  0.5737700000000 1.0
C      1  0.4795360000000  0.5707520000000  0.4633650000000 1.0
C      1  0.4677110000000  0.4684200000000  0.4899270000000 1.0
C      1  0.5778210000000  0.4799800000000  0.5212560000000 1.0
C      1  0.5803360000000  0.4378380000000  0.4603300000000 1.0
C      1  0.4958370000000  0.5670090000000  0.5072350000000 1.0
C      1  0.5065670000000  0.5580590000000  0.5575620000000 1.0
C      1  0.5330950000000  0.4281650000000  0.4454810000000 1.0
C      1  0.4998730000000  0.5197090000000  0.5894200000000 1.0
C      1  0.5589690000000  0.5003740000000  0.5702310000000 1.0
C      1  0.5364930000000  0.5241320000000  0.5241840000000 1.0
C      1  0.5531150000000  0.5687440000000  0.5076550000000 1.0
C      1  0.5676170000000  0.5167640000000  0.4517880000000 1.0
C      1  0.4352770000000  0.5517470000000  0.4931270000000 1.0
C      1  0.4536830000000  0.5177140000000  0.4621760000000 1.0
C      1  0.4629640000000  0.4202200000000  0.4834360000000 1.0
C      1  0.4598760000000  0.4945110000000  0.5742490000000 1.0
C      1  0.5437630000000  0.4939390000000  0.4285710000000 1.0
C      1  0.5289240000000  0.4729840000000  0.4138850000000 1.0
C      1  0.4570130000000  0.5699530000000  0.4838440000000 1.0
C      1  0.5549750000000  0.5830360000000  0.4821270000000 1.0
C      1  0.4332710000000  0.4336170000000  0.5198170000000 1.0
C      1  0.4306370000000  0.5259980000000  0.4794780000000 1.0
C      1  0.5052080000000  0.4321400000000  0.4579480000000 1.0
C      1  0.4803880000000  0.5105030000000  0.4713380000000 1.0
C      1  0.5532160000000  0.5212940000000  0.4263850000000 1.0
C      1  0.4725690000000  0.4660970000000  0.5777350000000 1.0
C      1  0.4676260000000  0.4509050000000  0.5525050000000 1.0
C      1  0.5026040000000  0.4856900000000  0.4118120000000 1.0
C      1  0.4593800000000  0.5431470000000  0.5700790000000 1.0
C      1  0.4854960000000  0.4473100000000  0.5295200000000 1.0
C      1  0.5376640000000  0.5908980000000  0.5542360000000 1.0
C      1  0.4940630000000  0.4646150000000  0.5025400000000 1.0
C      1  0.4817910000000  0.4192850000000  0.5242090000000 1.0
C      1  0.5012140000000  0.5408270000000  0.4960070000000 1.0
C      1  0.4820220000000  0.4967160000000  0.5500200000000 1.0
C      1  0.5346610000000  0.4423890000000  0.5354220000000 1.0
C      1  0.5564160000000  0.5337610000000  0.5431100000000 1.0
C      1  0.5224240000000  0.5371180000000  0.4761170000000 1.0
C      1  0.4123010000000  0.4835150000000  0.4587800000000 1.0
C      1  0.5773190000000  0.4965210000000  0.5450510000000 1.0
END
