TITL C-884136-4169-48 13745430.824422 125000 -29920.9717689142 0 0 200 (C1) n - 1
REM
REM in /home/nfs/bkarasulu/CARBON/AIRSS/Generating-Clusters/ReaxFF-fromJPCA2015/Units_Real/with-SteepDescent/Only-C1/SD-CG/Try1-3A/FIRE-CG
REM
REM
REM
REM
REM
REM ./C.cell (11c1c37f851c82e70ff6c80c92926a4b)
REM
REM compiler GCC version 9.2.1 20190827 (Red Hat 9.2.1-1)
REM options -cpp -mtune=generic -march=x86-64 -g -O0 -fpre-include=/usr/include/finclude/math-vector-fortran.h
REM seed -231477746 247188831 1972685468 1590203595 1466258374 503600733 119009990 -1634658564 -1049468109 585338795 1937445426 1209693595 -308315856 1688465112 2062940455 1829049481 -1772105574 1949381628 -1443893152 1859940126 1205381685 -582598746 1356621202 1603484182 1002355192 1195790622 586537282 -666528230 -633250591 -1756872185 -986864142 -1046263142 -1422369108
REM
CELL 1.54180   50.00000   50.00000   50.00000   90.00000   90.00000   90.00000
LATT -1
SFAC C  
C      1  0.4696360000000  0.5955700000000  0.5062280000000 1.0
C      1  0.4501560000000  0.4041420000000  0.5363270000000 1.0
C      1  0.4148190000000  0.4421380000000  0.4559230000000 1.0
C      1  0.4688410000000  0.4408680000000  0.5692460000000 1.0
C      1  0.5057300000000  0.4417960000000  0.4955020000000 1.0
C      1  0.5308830000000  0.4634030000000  0.4543860000000 1.0
C      1  0.5631290000000  0.5766730000000  0.4351820000000 1.0
C      1  0.3985810000000  0.5648710000000  0.4784990000000 1.0
C      1  0.5296370000000  0.4590230000000  0.4105800000000 1.0
C      1  0.5594070000000  0.4447260000000  0.4982770000000 1.0
C      1  0.4841680000000  0.4532870000000  0.5456960000000 1.0
C      1  0.4348110000000  0.5290270000000  0.4216430000000 1.0
C      1  0.6152950000000  0.4808130000000  0.5305400000000 1.0
C      1  0.4246770000000  0.4817490000000  0.4843510000000 1.0
C      1  0.5283660000000  0.4895080000000  0.5319040000000 1.0
C      1  0.5491760000000  0.4615890000000  0.5684110000000 1.0
C      1  0.5744820000000  0.5596910000000  0.5391140000000 1.0
C      1  0.5525410000000  0.4394900000000  0.5259430000000 1.0
C      1  0.4530580000000  0.5157980000000  0.4028450000000 1.0
C      1  0.5044470000000  0.5166750000000  0.6150090000000 1.0
C      1  0.4288540000000  0.4237090000000  0.5420550000000 1.0
C      1  0.4548640000000  0.3954760000000  0.4217040000000 1.0
C      1  0.4444400000000  0.4611730000000  0.5215310000000 1.0
C      1  0.5077940000000  0.4953060000000  0.3839800000000 1.0
C      1  0.5876690000000  0.4553600000000  0.4987830000000 1.0
C      1  0.5808940000000  0.4355660000000  0.5353690000000 1.0
C      1  0.5574500000000  0.5281020000000  0.4473070000000 1.0
C      1  0.4549900000000  0.4926370000000  0.4520240000000 1.0
C      1  0.5968750000000  0.5656880000000  0.4719490000000 1.0
C      1  0.5176940000000  0.4678490000000  0.4957130000000 1.0
C      1  0.6010870000000  0.4557990000000  0.5235200000000 1.0
C      1  0.5419140000000  0.5970690000000  0.5545040000000 1.0
C      1  0.4784620000000  0.4460880000000  0.4881590000000 1.0
C      1  0.4776750000000  0.4552180000000  0.3888790000000 1.0
C      1  0.5858060000000  0.5421270000000  0.5597790000000 1.0
C      1  0.4196680000000  0.4949950000000  0.5092920000000 1.0
C      1  0.4746450000000  0.5322610000000  0.3916830000000 1.0
C      1  0.4129740000000  0.4612270000000  0.4323300000000 1.0
C      1  0.4293020000000  0.4690230000000  0.4091180000000 1.0
C      1  0.5155170000000  0.4852950000000  0.4105330000000 1.0
C      1  0.4471970000000  0.5900760000000  0.4810370000000 1.0
C      1  0.5303030000000  0.3995550000000  0.4823650000000 1.0
C      1  0.4511150000000  0.5957350000000  0.5531390000000 1.0
C      1  0.5364870000000  0.4592050000000  0.5424160000000 1.0
C      1  0.4461880000000  0.5448640000000  0.4928290000000 1.0
C      1  0.5104760000000  0.3999110000000  0.4616530000000 1.0
C      1  0.5752730000000  0.4622100000000  0.5734470000000 1.0
C      1  0.5428190000000  0.5461060000000  0.5745420000000 1.0
C      1  0.4836390000000  0.4798350000000  0.5607410000000 1.0
C      1  0.4000400000000  0.4765680000000  0.5226510000000 1.0
C      1  0.4792330000000  0.3995070000000  0.5415410000000 1.0
C      1  0.5261010000000  0.5996430000000  0.5139540000000 1.0
C      1  0.4962560000000  0.6067380000000  0.4491490000000 1.0
C      1  0.4322210000000  0.4205970000000  0.4661160000000 1.0
C      1  0.5433790000000  0.4964890000000  0.5970580000000 1.0
C      1  0.4701150000000  0.3829380000000  0.4917350000000 1.0
C      1  0.4917730000000  0.4312110000000  0.3989870000000 1.0
C      1  0.4748510000000  0.5559300000000  0.5438540000000 1.0
C      1  0.4321990000000  0.5741120000000  0.5565680000000 1.0
C      1  0.4700040000000  0.5488060000000  0.4776720000000 1.0
C      1  0.6018180000000  0.4435790000000  0.4284210000000 1.0
C      1  0.6068670000000  0.5262430000000  0.5480010000000 1.0
C      1  0.4708060000000  0.4285400000000  0.4425890000000 1.0
C      1  0.6041760000000  0.5370970000000  0.4729020000000 1.0
C      1  0.5040400000000  0.4721210000000  0.4490190000000 1.0
C      1  0.5340630000000  0.5995670000000  0.4701770000000 1.0
C      1  0.4491280000000  0.5523990000000  0.5582390000000 1.0
C      1  0.5152550000000  0.4331740000000  0.4154840000000 1.0
C      1  0.4316470000000  0.4161090000000  0.4938580000000 1.0
C      1  0.5232650000000  0.5856970000000  0.5738790000000 1.0
C      1  0.4701570000000  0.4198330000000  0.4160730000000 1.0
C      1  0.5217170000000  0.5256380000000  0.4850370000000 1.0
C      1  0.5882070000000  0.4996830000000  0.4382690000000 1.0
C      1  0.4321440000000  0.5641490000000  0.5111000000000 1.0
C      1  0.4453870000000  0.4838500000000  0.5392340000000 1.0
C      1  0.5443940000000  0.5121850000000  0.4686790000000 1.0
C      1  0.4529360000000  0.5845530000000  0.4536900000000 1.0
C      1  0.5999680000000  0.4808380000000  0.4575100000000 1.0
C      1  0.3829300000000  0.5420480000000  0.4932490000000 1.0
C      1  0.4522730000000  0.4894670000000  0.4802640000000 1.0
C      1  0.5246090000000  0.5340500000000  0.4066510000000 1.0
C      1  0.4726710000000  0.5254260000000  0.5412210000000 1.0
C      1  0.4112750000000  0.5154810000000  0.4090170000000 1.0
C      1  0.5338850000000  0.4356630000000  0.4568710000000 1.0
C      1  0.4144480000000  0.5186460000000  0.4935040000000 1.0
C      1  0.5371720000000  0.5510240000000  0.5250910000000 1.0
C      1  0.4060470000000  0.5631610000000  0.4512270000000 1.0
C      1  0.4552530000000  0.6079340000000  0.5276960000000 1.0
C      1  0.5352370000000  0.5765960000000  0.4301950000000 1.0
C      1  0.5894610000000  0.5768890000000  0.4983140000000 1.0
C      1  0.4685570000000  0.5048490000000  0.4987190000000 1.0
C      1  0.5015530000000  0.4813440000000  0.5837430000000 1.0
C      1  0.5035690000000  0.4655470000000  0.6110180000000 1.0
C      1  0.4438880000000  0.4516640000000  0.5795890000000 1.0
C      1  0.3949820000000  0.4824040000000  0.4415320000000 1.0
C      1  0.5727620000000  0.4259890000000  0.4516790000000 1.0
C      1  0.4816220000000  0.3933540000000  0.4675420000000 1.0
C      1  0.5218220000000  0.4123530000000  0.5599380000000 1.0
C      1  0.5806650000000  0.4903940000000  0.5650350000000 1.0
C      1  0.4782290000000  0.4522400000000  0.4559600000000 1.0
C      1  0.5264810000000  0.6141070000000  0.5366460000000 1.0
C      1  0.4739970000000  0.5170640000000  0.6139530000000 1.0
C      1  0.5182070000000  0.5723380000000  0.5173930000000 1.0
C      1  0.4901040000000  0.5069620000000  0.5524880000000 1.0
C      1  0.4582040000000  0.4653420000000  0.4103530000000 1.0
C      1  0.6082680000000  0.4975020000000  0.5536640000000 1.0
C      1  0.5120910000000  0.5488200000000  0.4682880000000 1.0
C      1  0.5050390000000  0.4982320000000  0.4361810000000 1.0
C      1  0.4210450000000  0.5816130000000  0.4905230000000 1.0
C      1  0.5323570000000  0.4261190000000  0.5854230000000 1.0
C      1  0.4454570000000  0.5200460000000  0.4483320000000 1.0
C      1  0.5687260000000  0.5928880000000  0.5100170000000 1.0
C      1  0.4222060000000  0.4455070000000  0.5605640000000 1.0
C      1  0.4515330000000  0.5440400000000  0.5846260000000 1.0
C      1  0.4345600000000  0.5209320000000  0.5869580000000 1.0
C      1  0.4991040000000  0.4032790000000  0.5194990000000 1.0
C      1  0.5452580000000  0.4687540000000  0.4923570000000 1.0
C      1  0.5067560000000  0.4871960000000  0.5137480000000 1.0
C      1  0.5638580000000  0.4947730000000  0.4210820000000 1.0
C      1  0.4157390000000  0.5160150000000  0.5651910000000 1.0
C      1  0.5634270000000  0.5867870000000  0.5381340000000 1.0
C      1  0.5566030000000  0.4657490000000  0.4175700000000 1.0
C      1  0.4543770000000  0.5085050000000  0.5250920000000 1.0
C      1  0.4638620000000  0.4710270000000  0.4383180000000 1.0
C      1  0.4753070000000  0.5815990000000  0.5618540000000 1.0
C      1  0.5812210000000  0.5729190000000  0.4493240000000 1.0
C      1  0.6120950000000  0.4570460000000  0.4495590000000 1.0
C      1  0.5127010000000  0.4410390000000  0.5445010000000 1.0
C      1  0.4309550000000  0.4960540000000  0.3967670000000 1.0
C      1  0.4334610000000  0.5673340000000  0.4369490000000 1.0
C      1  0.4995610000000  0.5257310000000  0.4470360000000 1.0
C      1  0.4885360000000  0.5702620000000  0.5151750000000 1.0
C      1  0.5093930000000  0.4357460000000  0.5987020000000 1.0
C      1  0.4780460000000  0.5895440000000  0.4380520000000 1.0
C      1  0.4862940000000  0.4234600000000  0.5859900000000 1.0
C      1  0.5490050000000  0.5049030000000  0.5192030000000 1.0
C      1  0.4927130000000  0.5582190000000  0.4888050000000 1.0
C      1  0.5641930000000  0.3976050000000  0.5367260000000 1.0
C      1  0.4942100000000  0.4033110000000  0.5660510000000 1.0
C      1  0.3989900000000  0.4510090000000  0.4783470000000 1.0
C      1  0.5293970000000  0.5729170000000  0.4587960000000 1.0
C      1  0.5189410000000  0.4193850000000  0.4408280000000 1.0
C      1  0.5871410000000  0.4799030000000  0.4838320000000 1.0
C      1  0.5237620000000  0.3903900000000  0.5096600000000 1.0
C      1  0.5200150000000  0.5106940000000  0.5524330000000 1.0
C      1  0.4900230000000  0.4750640000000  0.3704710000000 1.0
C      1  0.6171280000000  0.4976680000000  0.5059260000000 1.0
C      1  0.5245910000000  0.5609060000000  0.5892950000000 1.0
C      1  0.5418800000000  0.5307000000000  0.5059220000000 1.0
C      1  0.4229740000000  0.4882090000000  0.5590300000000 1.0
C      1  0.5146360000000  0.4286610000000  0.5196150000000 1.0
C      1  0.4743490000000  0.5335050000000  0.4534370000000 1.0
C      1  0.4707450000000  0.4537620000000  0.5139630000000 1.0
C      1  0.4972550000000  0.5079530000000  0.4971830000000 1.0
C      1  0.5678250000000  0.5071740000000  0.5858990000000 1.0
C      1  0.4795450000000  0.6186220000000  0.5231880000000 1.0
C      1  0.6128020000000  0.5386420000000  0.5220990000000 1.0
C      1  0.5462870000000  0.6041260000000  0.4962560000000 1.0
C      1  0.5223150000000  0.4938220000000  0.6168470000000 1.0
C      1  0.3888440000000  0.5326310000000  0.5195190000000 1.0
C      1  0.5483960000000  0.4834710000000  0.4679610000000 1.0
C      1  0.5167300000000  0.6238370000000  0.4602780000000 1.0
C      1  0.5874280000000  0.4993670000000  0.5062450000000 1.0
C      1  0.4746630000000  0.4684630000000  0.6119810000000 1.0
C      1  0.6178770000000  0.5257130000000  0.4967580000000 1.0
C      1  0.4746620000000  0.5439060000000  0.6026580000000 1.0
C      1  0.3870500000000  0.5046540000000  0.4227380000000 1.0
C      1  0.4889760000000  0.5717380000000  0.4162530000000 1.0
C      1  0.5028310000000  0.5236450000000  0.3899210000000 1.0
C      1  0.4229410000000  0.4369420000000  0.5156870000000 1.0
C      1  0.6012470000000  0.4308760000000  0.4550060000000 1.0
C      1  0.4512170000000  0.5019280000000  0.6025160000000 1.0
C      1  0.4993080000000  0.6179340000000  0.5442810000000 1.0
C      1  0.4332100000000  0.5289150000000  0.4748780000000 1.0
C      1  0.5236090000000  0.4966020000000  0.5768430000000 1.0
C      1  0.5872810000000  0.5252110000000  0.4518940000000 1.0
C      1  0.5865390000000  0.4082270000000  0.5368570000000 1.0
C      1  0.5319680000000  0.5385040000000  0.5500250000000 1.0
C      1  0.3969940000000  0.4523720000000  0.5065810000000 1.0
C      1  0.3869760000000  0.5149210000000  0.4820660000000 1.0
C      1  0.4044520000000  0.4675610000000  0.5500590000000 1.0
C      1  0.4683060000000  0.5599020000000  0.4000710000000 1.0
C      1  0.5365120000000  0.3942280000000  0.5364550000000 1.0
C      1  0.5476360000000  0.5196210000000  0.4204940000000 1.0
C      1  0.4484790000000  0.4717930000000  0.6025030000000 1.0
C      1  0.5041370000000  0.5441620000000  0.6022270000000 1.0
C      1  0.5567870000000  0.4429700000000  0.5862190000000 1.0
C      1  0.3998630000000  0.4909870000000  0.4696120000000 1.0
C      1  0.4566640000000  0.4068170000000  0.4522200000000 1.0
C      1  0.4479840000000  0.3969690000000  0.5080510000000 1.0
C      1  0.5513950000000  0.4219320000000  0.4743260000000 1.0
C      1  0.4041630000000  0.5346560000000  0.5439540000000 1.0
C      1  0.5673820000000  0.5345680000000  0.5802170000000 1.0
C      1  0.5722720000000  0.4421310000000  0.4272130000000 1.0
C      1  0.4171810000000  0.5603630000000  0.5365580000000 1.0
C      1  0.5735470000000  0.4989080000000  0.5315020000000 1.0
C      1  0.4981580000000  0.5983610000000  0.5660670000000 1.0
C      1  0.5162460000000  0.5611200000000  0.4135890000000 1.0
C      1  0.4403770000000  0.5686960000000  0.4082180000000 1.0
C      1  0.5951980000000  0.5602970000000  0.5198900000000 1.0
END
