TITL C-883726-8501-417 31.1587645191127 125000 -12373.5304652838 0 0 84 (C1) n - 1
REM
REM in /home/nfs/bkarasulu/CARBON/AIRSS/Generating-Clusters/ReaxFF-fromJPCA2015/Units_Real/with-SteepDescent/Only-C1/SD-CG/Try1-3A/FIRE-CG
REM
REM
REM
REM
REM
REM ./C.cell (11c1c37f851c82e70ff6c80c92926a4b)
REM
REM compiler GCC version 9.2.1 20190827 (Red Hat 9.2.1-1)
REM options -cpp -mtune=generic -march=x86-64 -g -O0 -fpre-include=/usr/include/finclude/math-vector-fortran.h
REM seed -1206044475 -1729659992 1943511342 1651709032 -146064871 -1233577051 -1900868511 1491006614 -476263506 809381684 488448877 843950681 -1932860568 1557573682 584400877 -1404761646 120327800 783907489 1735205168 -1157670862 216092029 -32522881 -99333877 -1677214734 1574275818 -944525176 1470973520 -896608176 -1257700712 -809247650 -1268384345 -1562327297 -324901019
REM
CELL 1.54180   50.00000   50.00000   50.00000   90.00000   90.00000   90.00000
LATT -1
SFAC C  
C      1  0.5174350000000  0.4309500000000  0.5463760000000 1.0
C      1  0.4344210000000  0.4922470000000  0.5330750000000 1.0
C      1  0.4621060000000  0.4814100000000  0.5706880000000 1.0
C      1  0.5507860000000  0.5168060000000  0.5539860000000 1.0
C      1  0.5459830000000  0.4995980000000  0.5769640000000 1.0
C      1  0.4793930000000  0.5027710000000  0.5549050000000 1.0
C      1  0.5019040000000  0.4696210000000  0.4969880000000 1.0
C      1  0.5514580000000  0.4260960000000  0.4806420000000 1.0
C      1  0.5304190000000  0.4168010000000  0.4978170000000 1.0
C      1  0.5265940000000  0.5585990000000  0.4619760000000 1.0
C      1  0.4548440000000  0.5626930000000  0.5625050000000 1.0
C      1  0.5262190000000  0.5879530000000  0.5096150000000 1.0
C      1  0.4495750000000  0.4568100000000  0.4945250000000 1.0
C      1  0.4594930000000  0.5025820000000  0.4229390000000 1.0
C      1  0.5647920000000  0.5549620000000  0.5195000000000 1.0
C      1  0.5218100000000  0.4778740000000  0.4773040000000 1.0
C      1  0.5620240000000  0.4660530000000  0.4574860000000 1.0
C      1  0.4914180000000  0.5336690000000  0.5024110000000 1.0
C      1  0.5001910000000  0.4672240000000  0.5265860000000 1.0
C      1  0.5009030000000  0.5583110000000  0.5531930000000 1.0
C      1  0.4712540000000  0.4761200000000  0.4168680000000 1.0
C      1  0.5378100000000  0.4330720000000  0.4549630000000 1.0
C      1  0.4752140000000  0.4145850000000  0.4936040000000 1.0
C      1  0.5335690000000  0.4628730000000  0.4543090000000 1.0
C      1  0.4865380000000  0.5819800000000  0.4758110000000 1.0
C      1  0.4583640000000  0.5087910000000  0.5344320000000 1.0
C      1  0.5445100000000  0.5221410000000  0.4554920000000 1.0
C      1  0.5163750000000  0.5381200000000  0.5106320000000 1.0
C      1  0.5354500000000  0.4267640000000  0.5237420000000 1.0
C      1  0.4650310000000  0.4572720000000  0.4392720000000 1.0
C      1  0.5389480000000  0.5022230000000  0.4815180000000 1.0
C      1  0.5071170000000  0.5889990000000  0.4929120000000 1.0
C      1  0.5272220000000  0.5158670000000  0.5894830000000 1.0
C      1  0.5715540000000  0.5337070000000  0.5408450000000 1.0
C      1  0.4548780000000  0.4315070000000  0.4801450000000 1.0
C      1  0.5702310000000  0.4447040000000  0.4931390000000 1.0
C      1  0.5068500000000  0.4878620000000  0.5469530000000 1.0
C      1  0.4282910000000  0.4825590000000  0.4577650000000 1.0
C      1  0.5685500000000  0.5454780000000  0.4927430000000 1.0
C      1  0.5054440000000  0.5290240000000  0.5894240000000 1.0
C      1  0.4190380000000  0.5160580000000  0.4905510000000 1.0
C      1  0.4812330000000  0.5209550000000  0.4277420000000 1.0
C      1  0.5279380000000  0.5145650000000  0.5064880000000 1.0
C      1  0.4849150000000  0.5361980000000  0.4526000000000 1.0
C      1  0.4729090000000  0.4750970000000  0.4959630000000 1.0
C      1  0.4994700000000  0.5623030000000  0.4566450000000 1.0
C      1  0.5519320000000  0.5486760000000  0.4671430000000 1.0
C      1  0.4656580000000  0.4314680000000  0.4523840000000 1.0
C      1  0.4759980000000  0.5669720000000  0.5428770000000 1.0
C      1  0.4994490000000  0.4805160000000  0.4075040000000 1.0
C      1  0.5278140000000  0.4490020000000  0.5677590000000 1.0
C      1  0.4746380000000  0.4303800000000  0.5163280000000 1.0
C      1  0.4265320000000  0.4743280000000  0.4859950000000 1.0
C      1  0.4202080000000  0.5305020000000  0.4433590000000 1.0
C      1  0.5060380000000  0.5084800000000  0.4167050000000 1.0
C      1  0.4713970000000  0.5475650000000  0.5799460000000 1.0
C      1  0.5225180000000  0.5551970000000  0.5343080000000 1.0
C      1  0.5583500000000  0.4480750000000  0.5203040000000 1.0
C      1  0.4484930000000  0.5357120000000  0.5258890000000 1.0
C      1  0.5315210000000  0.5164050000000  0.4303190000000 1.0
C      1  0.4321150000000  0.5501020000000  0.5456710000000 1.0
C      1  0.4392100000000  0.4762810000000  0.5543170000000 1.0
C      1  0.4888850000000  0.5324610000000  0.5706260000000 1.0
C      1  0.5438530000000  0.5746520000000  0.5268050000000 1.0
C      1  0.5926490000000  0.5197240000000  0.5256110000000 1.0
C      1  0.5831450000000  0.5200760000000  0.4962930000000 1.0
C      1  0.5523900000000  0.4744050000000  0.5274830000000 1.0
C      1  0.4711180000000  0.5534740000000  0.5144480000000 1.0
C      1  0.4323660000000  0.5050610000000  0.4373070000000 1.0
C      1  0.4731120000000  0.4954940000000  0.4758170000000 1.0
C      1  0.4416750000000  0.5575340000000  0.4800370000000 1.0
C      1  0.4621730000000  0.5718490000000  0.4897700000000 1.0
C      1  0.5702390000000  0.4965280000000  0.4851960000000 1.0
C      1  0.4177240000000  0.4940320000000  0.5065220000000 1.0
C      1  0.5112460000000  0.4296390000000  0.4599950000000 1.0
C      1  0.4893490000000  0.4144660000000  0.4541640000000 1.0
C      1  0.4838020000000  0.5213420000000  0.4764790000000 1.0
C      1  0.4572560000000  0.4798050000000  0.4567650000000 1.0
C      1  0.5248190000000  0.4783210000000  0.5701050000000 1.0
C      1  0.5040890000000  0.4097570000000  0.4810080000000 1.0
C      1  0.4901850000000  0.4410470000000  0.5369400000000 1.0
C      1  0.5365190000000  0.5001310000000  0.5320440000000 1.0
C      1  0.4207570000000  0.5391640000000  0.4733720000000 1.0
C      1  0.5803100000000  0.4695270000000  0.4788820000000 1.0
END
