TITL C-884140-4336-281 31.329112288014 125000 -29607.1780055387 0 0 196 (C1) n - 1
REM
REM in /home/nfs/bkarasulu/CARBON/AIRSS/Generating-Clusters/ReaxFF-fromJPCA2015/Units_Real/with-SteepDescent/Only-C1/SD-CG/Try1-3A/FIRE-CG
REM
REM
REM
REM
REM
REM ./C.cell (11c1c37f851c82e70ff6c80c92926a4b)
REM
REM compiler GCC version 9.2.1 20190827 (Red Hat 9.2.1-1)
REM options -cpp -mtune=generic -march=x86-64 -g -O0 -fpre-include=/usr/include/finclude/math-vector-fortran.h
REM seed -753319188 686478937 1767982494 878845589 1062490259 2115558974 212523501 1568957932 227496250 -1385562798 -270459574 834361634 -1198652576 1535847765 -680279823 -1897662837 1151238612 1804861683 -1973015154 -758578321 -2054295053 -1188368888 1450753913 -663634990 -1301392847 -1884254862 895405227 -331052133 1660549730 645422391 -460672889 -1001880094 -1318679274
REM
CELL 1.54180   50.00000   50.00000   50.00000   90.00000   90.00000   90.00000
LATT -1
SFAC C  
C      1  0.4221190000000  0.5341450000000  0.5846180000000 1.0
C      1  0.4133180000000  0.5084430000000  0.5920220000000 1.0
C      1  0.5854630000000  0.5597960000000  0.4961020000000 1.0
C      1  0.4023910000000  0.4689880000000  0.4558370000000 1.0
C      1  0.4906520000000  0.4921830000000  0.4883220000000 1.0
C      1  0.5110260000000  0.4052510000000  0.4507200000000 1.0
C      1  0.5420690000000  0.5047670000000  0.4643150000000 1.0
C      1  0.4422730000000  0.4969270000000  0.4196490000000 1.0
C      1  0.5972840000000  0.5570340000000  0.5571230000000 1.0
C      1  0.4667890000000  0.4848300000000  0.5954260000000 1.0
C      1  0.4634330000000  0.5242910000000  0.3880630000000 1.0
C      1  0.4631460000000  0.5070500000000  0.5032430000000 1.0
C      1  0.6075230000000  0.4691840000000  0.4546600000000 1.0
C      1  0.5218250000000  0.4129410000000  0.4949590000000 1.0
C      1  0.5203040000000  0.4554530000000  0.4615210000000 1.0
C      1  0.5346300000000  0.6005200000000  0.4539710000000 1.0
C      1  0.4129120000000  0.4932370000000  0.5243370000000 1.0
C      1  0.4440970000000  0.4872050000000  0.5762450000000 1.0
C      1  0.5193630000000  0.5041710000000  0.4240540000000 1.0
C      1  0.5708400000000  0.4289220000000  0.4487370000000 1.0
C      1  0.4904710000000  0.4668270000000  0.4733740000000 1.0
C      1  0.5385270000000  0.5009610000000  0.5927940000000 1.0
C      1  0.4140470000000  0.5354110000000  0.4431750000000 1.0
C      1  0.5418080000000  0.4561030000000  0.5431260000000 1.0
C      1  0.4922060000000  0.5207500000000  0.3838930000000 1.0
C      1  0.4408550000000  0.4562800000000  0.4185830000000 1.0
C      1  0.5478990000000  0.5264670000000  0.5775420000000 1.0
C      1  0.5271310000000  0.5220270000000  0.6129250000000 1.0
C      1  0.5499940000000  0.4175230000000  0.5010010000000 1.0
C      1  0.4602480000000  0.3945240000000  0.5032710000000 1.0
C      1  0.5925070000000  0.4603620000000  0.5451590000000 1.0
C      1  0.4298560000000  0.4194670000000  0.4721880000000 1.0
C      1  0.5534490000000  0.5008340000000  0.5215460000000 1.0
C      1  0.5485290000000  0.4754420000000  0.4640620000000 1.0
C      1  0.4047500000000  0.4655910000000  0.5332100000000 1.0
C      1  0.4951450000000  0.5144930000000  0.4707850000000 1.0
C      1  0.5283010000000  0.4511420000000  0.6046450000000 1.0
C      1  0.5067910000000  0.4615910000000  0.5143750000000 1.0
C      1  0.5412490000000  0.4540700000000  0.4181930000000 1.0
C      1  0.4006220000000  0.4659490000000  0.5619000000000 1.0
C      1  0.6050970000000  0.5030080000000  0.5124060000000 1.0
C      1  0.5337930000000  0.4131050000000  0.5633830000000 1.0
C      1  0.4213040000000  0.4661020000000  0.4342810000000 1.0
C      1  0.5208610000000  0.5632120000000  0.5718470000000 1.0
C      1  0.5033730000000  0.4109160000000  0.5733310000000 1.0
C      1  0.5101080000000  0.4043930000000  0.5189640000000 1.0
C      1  0.6050490000000  0.4989510000000  0.4587140000000 1.0
C      1  0.4403590000000  0.4957150000000  0.4882620000000 1.0
C      1  0.5529460000000  0.4478940000000  0.5936470000000 1.0
C      1  0.4997710000000  0.4837970000000  0.4260960000000 1.0
C      1  0.5157630000000  0.4650880000000  0.5609960000000 1.0
C      1  0.4331870000000  0.4457750000000  0.5891780000000 1.0
C      1  0.4651730000000  0.4612100000000  0.5460250000000 1.0
C      1  0.5389800000000  0.5710240000000  0.5936330000000 1.0
C      1  0.5264450000000  0.5082980000000  0.5177330000000 1.0
C      1  0.5813420000000  0.4177670000000  0.5257140000000 1.0
C      1  0.4767500000000  0.4255840000000  0.4102660000000 1.0
C      1  0.4411230000000  0.5938700000000  0.5364130000000 1.0
C      1  0.5466680000000  0.5630480000000  0.4209710000000 1.0
C      1  0.4663200000000  0.5406930000000  0.5480750000000 1.0
C      1  0.5333120000000  0.4004300000000  0.5373610000000 1.0
C      1  0.3941700000000  0.4584040000000  0.4846720000000 1.0
C      1  0.5304890000000  0.5879300000000  0.4296940000000 1.0
C      1  0.5827160000000  0.4818830000000  0.5802230000000 1.0
C      1  0.4868880000000  0.6139010000000  0.5323440000000 1.0
C      1  0.3800070000000  0.4835130000000  0.4886370000000 1.0
C      1  0.5113050000000  0.5236800000000  0.5354210000000 1.0
C      1  0.4652440000000  0.4080300000000  0.4317420000000 1.0
C      1  0.5085170000000  0.4338900000000  0.3832810000000 1.0
C      1  0.5111230000000  0.5693440000000  0.4885230000000 1.0
C      1  0.4213480000000  0.5617050000000  0.4539430000000 1.0
C      1  0.4334740000000  0.4215690000000  0.5415180000000 1.0
C      1  0.3974850000000  0.5224500000000  0.4632920000000 1.0
C      1  0.5890730000000  0.4601000000000  0.4979220000000 1.0
C      1  0.4911890000000  0.5006450000000  0.5903660000000 1.0
C      1  0.4850310000000  0.3961970000000  0.5559310000000 1.0
C      1  0.5175030000000  0.4552680000000  0.3707980000000 1.0
C      1  0.4478880000000  0.5418230000000  0.4056810000000 1.0
C      1  0.4882030000000  0.4496610000000  0.4967790000000 1.0
C      1  0.4904990000000  0.4631600000000  0.5535330000000 1.0
C      1  0.4717170000000  0.3942790000000  0.4789760000000 1.0
C      1  0.4648050000000  0.4518570000000  0.4033440000000 1.0
C      1  0.5247280000000  0.4108030000000  0.4258640000000 1.0
C      1  0.5037890000000  0.4162600000000  0.4041940000000 1.0
C      1  0.4479670000000  0.4863300000000  0.5471160000000 1.0
C      1  0.5636470000000  0.4730080000000  0.4337290000000 1.0
C      1  0.6059220000000  0.5136350000000  0.4844210000000 1.0
C      1  0.5642830000000  0.5783240000000  0.4892780000000 1.0
C      1  0.4023890000000  0.4457340000000  0.5098410000000 1.0
C      1  0.4432050000000  0.4708600000000  0.4714890000000 1.0
C      1  0.4266530000000  0.5671540000000  0.5420110000000 1.0
C      1  0.5800360000000  0.4337630000000  0.5498290000000 1.0
C      1  0.3957110000000  0.5390070000000  0.4877130000000 1.0
C      1  0.4677360000000  0.5676790000000  0.4611760000000 1.0
C      1  0.4649560000000  0.5560040000000  0.5720030000000 1.0
C      1  0.5405030000000  0.6026400000000  0.5293050000000 1.0
C      1  0.5883120000000  0.5408820000000  0.4482530000000 1.0
C      1  0.5345590000000  0.4662480000000  0.5158850000000 1.0
C      1  0.3876640000000  0.5010530000000  0.5114870000000 1.0
C      1  0.5133290000000  0.6038200000000  0.5404200000000 1.0
C      1  0.5602590000000  0.5988070000000  0.5514130000000 1.0
C      1  0.4494990000000  0.5447530000000  0.5951250000000 1.0
C      1  0.5444990000000  0.5421570000000  0.6013730000000 1.0
C      1  0.5877290000000  0.4303500000000  0.4986870000000 1.0
C      1  0.4216170000000  0.5178230000000  0.5380560000000 1.0
C      1  0.4323580000000  0.4328510000000  0.5667100000000 1.0
C      1  0.4648010000000  0.6029700000000  0.5509150000000 1.0
C      1  0.5649620000000  0.4992670000000  0.5480370000000 1.0
C      1  0.5467410000000  0.5986170000000  0.5006650000000 1.0
C      1  0.5975440000000  0.5263510000000  0.5285620000000 1.0
C      1  0.5004890000000  0.5946750000000  0.4300790000000 1.0
C      1  0.4775260000000  0.6154540000000  0.5052570000000 1.0
C      1  0.4169520000000  0.4761760000000  0.5854700000000 1.0
C      1  0.5382080000000  0.4641510000000  0.3874640000000 1.0
C      1  0.5675030000000  0.5046750000000  0.4960610000000 1.0
C      1  0.4618190000000  0.4417840000000  0.5042410000000 1.0
C      1  0.4809920000000  0.4039850000000  0.5267250000000 1.0
C      1  0.5046190000000  0.5855990000000  0.5620500000000 1.0
C      1  0.4601050000000  0.4329560000000  0.5324610000000 1.0
C      1  0.5545400000000  0.5235880000000  0.4790310000000 1.0
C      1  0.4765540000000  0.5838390000000  0.5691990000000 1.0
C      1  0.5286780000000  0.4910500000000  0.3854200000000 1.0
C      1  0.4173760000000  0.5581420000000  0.4829670000000 1.0
C      1  0.5690010000000  0.4773630000000  0.4851260000000 1.0
C      1  0.4325280000000  0.4051050000000  0.4984110000000 1.0
C      1  0.5368110000000  0.5411980000000  0.4041800000000 1.0
C      1  0.4749220000000  0.4760080000000  0.3886340000000 1.0
C      1  0.4798040000000  0.5306200000000  0.4905360000000 1.0
C      1  0.4833400000000  0.5732940000000  0.4191070000000 1.0
C      1  0.6027380000000  0.5289690000000  0.5573990000000 1.0
C      1  0.5012690000000  0.4456240000000  0.6099750000000 1.0
C      1  0.4737930000000  0.4609890000000  0.6105780000000 1.0
C      1  0.3861370000000  0.5298430000000  0.5142510000000 1.0
C      1  0.5087010000000  0.5390420000000  0.3993020000000 1.0
C      1  0.3887320000000  0.4941180000000  0.4624810000000 1.0
C      1  0.4878600000000  0.4252490000000  0.5937900000000 1.0
C      1  0.4974000000000  0.5208950000000  0.6117130000000 1.0
C      1  0.5889170000000  0.5131750000000  0.4376770000000 1.0
C      1  0.4712510000000  0.4932020000000  0.4363550000000 1.0
C      1  0.5253030000000  0.5617440000000  0.4652890000000 1.0
C      1  0.5341280000000  0.5410110000000  0.5551050000000 1.0
C      1  0.4995420000000  0.4917260000000  0.3810570000000 1.0
C      1  0.4549640000000  0.5686070000000  0.4167850000000 1.0
C      1  0.3960840000000  0.5326270000000  0.5425860000000 1.0
C      1  0.5659050000000  0.5578660000000  0.4420220000000 1.0
C      1  0.4972740000000  0.6149370000000  0.4812370000000 1.0
C      1  0.4525750000000  0.6012160000000  0.5107370000000 1.0
C      1  0.5877930000000  0.5838790000000  0.5527650000000 1.0
C      1  0.4770570000000  0.5227590000000  0.4473120000000 1.0
C      1  0.4672770000000  0.4717460000000  0.4557530000000 1.0
C      1  0.5484680000000  0.4423850000000  0.5184020000000 1.0
C      1  0.4923350000000  0.5034950000000  0.5387560000000 1.0
C      1  0.4777270000000  0.5571710000000  0.5281210000000 1.0
C      1  0.4547790000000  0.4964400000000  0.3928370000000 1.0
C      1  0.5587390000000  0.4002270000000  0.5232920000000 1.0
C      1  0.4828960000000  0.3946220000000  0.4534100000000 1.0
C      1  0.4316490000000  0.5445090000000  0.5257030000000 1.0
C      1  0.5575130000000  0.4284290000000  0.5691540000000 1.0
C      1  0.5676360000000  0.4720430000000  0.5540570000000 1.0
C      1  0.5144840000000  0.4876640000000  0.5788460000000 1.0
C      1  0.5150690000000  0.4606300000000  0.4330650000000 1.0
C      1  0.5213070000000  0.5175530000000  0.4487240000000 1.0
C      1  0.5241380000000  0.5588050000000  0.5130730000000 1.0
C      1  0.5841590000000  0.5081090000000  0.5668090000000 1.0
C      1  0.4453780000000  0.4133270000000  0.4495790000000 1.0
C      1  0.4726420000000  0.5345160000000  0.6073840000000 1.0
C      1  0.5728780000000  0.4207860000000  0.4762360000000 1.0
C      1  0.4939080000000  0.5459290000000  0.4261890000000 1.0
C      1  0.5684510000000  0.4999830000000  0.4228090000000 1.0
C      1  0.4634170000000  0.5703600000000  0.5058740000000 1.0
C      1  0.5433710000000  0.5103570000000  0.4072500000000 1.0
C      1  0.4937290000000  0.6076120000000  0.4550810000000 1.0
C      1  0.4309520000000  0.5240490000000  0.4215880000000 1.0
C      1  0.5165080000000  0.5453250000000  0.4448410000000 1.0
C      1  0.6010240000000  0.4743580000000  0.5202820000000 1.0
C      1  0.4832990000000  0.5749300000000  0.4843510000000 1.0
C      1  0.4450670000000  0.5752280000000  0.4437200000000 1.0
C      1  0.4598760000000  0.4384340000000  0.5990050000000 1.0
C      1  0.5174850000000  0.4263330000000  0.4695180000000 1.0
C      1  0.4164830000000  0.4210580000000  0.5170360000000 1.0
C      1  0.5533530000000  0.5556500000000  0.4703870000000 1.0
C      1  0.4629530000000  0.5392380000000  0.4677240000000 1.0
C      1  0.5860690000000  0.4538980000000  0.4414110000000 1.0
C      1  0.5486820000000  0.4267370000000  0.4286110000000 1.0
C      1  0.5598090000000  0.4762640000000  0.5971420000000 1.0
C      1  0.5037660000000  0.4901110000000  0.5145290000000 1.0
C      1  0.5278740000000  0.6098920000000  0.4796550000000 1.0
C      1  0.4101310000000  0.5510660000000  0.5606260000000 1.0
C      1  0.5974430000000  0.5403320000000  0.4764420000000 1.0
C      1  0.4991570000000  0.5429060000000  0.5175650000000 1.0
C      1  0.5756730000000  0.5465950000000  0.5203300000000 1.0
C      1  0.4641130000000  0.5104510000000  0.5378450000000 1.0
C      1  0.4397950000000  0.4449050000000  0.4849040000000 1.0
C      1  0.5475230000000  0.5507630000000  0.5280870000000 1.0
C      1  0.4403230000000  0.5521890000000  0.4996310000000 1.0
C      1  0.5538630000000  0.5879810000000  0.5763940000000 1.0
END
