TITL C-884138-6203-257 105.364973689431 125000 -22671.2707632947 0 0 154 (C1) n - 1
REM
REM in /home/nfs/bkarasulu/CARBON/AIRSS/Generating-Clusters/ReaxFF-fromJPCA2015/Units_Real/with-SteepDescent/Only-C1/SD-CG/Try1-3A/FIRE-CG
REM
REM
REM
REM
REM
REM ./C.cell (11c1c37f851c82e70ff6c80c92926a4b)
REM
REM compiler GCC version 9.2.1 20190827 (Red Hat 9.2.1-1)
REM options -cpp -mtune=generic -march=x86-64 -g -O0 -fpre-include=/usr/include/finclude/math-vector-fortran.h
REM seed -2118923436 236688918 591308985 1422402082 -156717184 244893628 568706272 790242106 -313696629 1759329996 582509242 1589240009 1686869855 -30722744 -1970784323 -767668442 647637946 863943821 -253194555 -409982939 1396263168 -819784358 -1287098642 927693750 305473166 -231257389 382315396 1561388729 1059328398 163684662 -1812918040 1147505568 -2002959899
REM
CELL 1.54180   50.00000   50.00000   50.00000   90.00000   90.00000   90.00000
LATT -1
SFAC C  
C      1  0.4805970000000  0.5893280000000  0.5321430000000 1.0
C      1  0.5256650000000  0.4530000000000  0.4226050000000 1.0
C      1  0.4595510000000  0.4458640000000  0.4315530000000 1.0
C      1  0.5867500000000  0.5150330000000  0.4619570000000 1.0
C      1  0.5955410000000  0.4772620000000  0.5215780000000 1.0
C      1  0.5452800000000  0.4650940000000  0.4668000000000 1.0
C      1  0.5965370000000  0.4744580000000  0.4755940000000 1.0
C      1  0.4304010000000  0.5007090000000  0.5930290000000 1.0
C      1  0.5308500000000  0.5467520000000  0.4975270000000 1.0
C      1  0.5346820000000  0.5295680000000  0.5379000000000 1.0
C      1  0.5007980000000  0.4707210000000  0.4188050000000 1.0
C      1  0.4865690000000  0.5458620000000  0.4336010000000 1.0
C      1  0.4578740000000  0.5477880000000  0.4751680000000 1.0
C      1  0.5215340000000  0.5781120000000  0.5621520000000 1.0
C      1  0.5961650000000  0.5204620000000  0.5279250000000 1.0
C      1  0.5837760000000  0.4790750000000  0.5486150000000 1.0
C      1  0.5650050000000  0.5512010000000  0.4348800000000 1.0
C      1  0.4629320000000  0.5893530000000  0.5033670000000 1.0
C      1  0.4494220000000  0.4736900000000  0.5146660000000 1.0
C      1  0.5858970000000  0.5675630000000  0.5042130000000 1.0
C      1  0.5512050000000  0.4418420000000  0.5659530000000 1.0
C      1  0.4589790000000  0.5241740000000  0.4013260000000 1.0
C      1  0.5781220000000  0.4771880000000  0.4980530000000 1.0
C      1  0.5436430000000  0.4747410000000  0.4196460000000 1.0
C      1  0.4945850000000  0.5172790000000  0.5216060000000 1.0
C      1  0.5557400000000  0.5269560000000  0.5029990000000 1.0
C      1  0.4938330000000  0.4888940000000  0.4737930000000 1.0
C      1  0.5274810000000  0.5433350000000  0.4117910000000 1.0
C      1  0.4394020000000  0.5657150000000  0.4965820000000 1.0
C      1  0.5318890000000  0.5721000000000  0.5136320000000 1.0
C      1  0.4726950000000  0.4449260000000  0.5714510000000 1.0
C      1  0.5606820000000  0.5876070000000  0.5070550000000 1.0
C      1  0.4450670000000  0.5609840000000  0.5493450000000 1.0
C      1  0.4728610000000  0.4681290000000  0.4710790000000 1.0
C      1  0.4893370000000  0.4024510000000  0.5103100000000 1.0
C      1  0.4828580000000  0.4428660000000  0.4819040000000 1.0
C      1  0.4684230000000  0.5219830000000  0.5634090000000 1.0
C      1  0.4223400000000  0.4363530000000  0.4645810000000 1.0
C      1  0.4234580000000  0.5009400000000  0.4241070000000 1.0
C      1  0.5753440000000  0.4671280000000  0.4533510000000 1.0
C      1  0.4425030000000  0.4962110000000  0.5323820000000 1.0
C      1  0.4328980000000  0.4199020000000  0.5107490000000 1.0
C      1  0.5039200000000  0.3942570000000  0.4647500000000 1.0
C      1  0.5256110000000  0.4267600000000  0.4374630000000 1.0
C      1  0.5470060000000  0.5753460000000  0.4348120000000 1.0
C      1  0.4239870000000  0.5591870000000  0.4477900000000 1.0
C      1  0.4556450000000  0.4971740000000  0.4168590000000 1.0
C      1  0.4287560000000  0.5581870000000  0.5228320000000 1.0
C      1  0.4832380000000  0.5624670000000  0.5788090000000 1.0
C      1  0.6079810000000  0.5008210000000  0.4803030000000 1.0
C      1  0.5108640000000  0.5610250000000  0.5837070000000 1.0
C      1  0.4169560000000  0.5574620000000  0.4762520000000 1.0
C      1  0.4970320000000  0.4515880000000  0.5222720000000 1.0
C      1  0.5078000000000  0.5831570000000  0.5367320000000 1.0
C      1  0.5008300000000  0.4388890000000  0.5661420000000 1.0
C      1  0.5137160000000  0.4025070000000  0.5254900000000 1.0
C      1  0.5475490000000  0.5085460000000  0.5242170000000 1.0
C      1  0.4661400000000  0.5395430000000  0.5409920000000 1.0
C      1  0.5208910000000  0.5703270000000  0.4235030000000 1.0
C      1  0.5425920000000  0.4361240000000  0.5368870000000 1.0
C      1  0.4806990000000  0.4305390000000  0.5120110000000 1.0
C      1  0.4732170000000  0.4655090000000  0.5937370000000 1.0
C      1  0.4994440000000  0.5858520000000  0.4404670000000 1.0
C      1  0.4966890000000  0.4831390000000  0.5949410000000 1.0
C      1  0.4163780000000  0.5089180000000  0.5442920000000 1.0
C      1  0.4015890000000  0.5027450000000  0.4849620000000 1.0
C      1  0.5448980000000  0.5563240000000  0.5349400000000 1.0
C      1  0.6099450000000  0.5014770000000  0.5101400000000 1.0
C      1  0.5341550000000  0.3945420000000  0.5056870000000 1.0
C      1  0.5302120000000  0.3969790000000  0.4764430000000 1.0
C      1  0.5412250000000  0.4889080000000  0.4813300000000 1.0
C      1  0.5260230000000  0.4561880000000  0.5155960000000 1.0
C      1  0.4538690000000  0.4835230000000  0.4876650000000 1.0
C      1  0.4437990000000  0.4857760000000  0.5710500000000 1.0
C      1  0.4721870000000  0.4684030000000  0.4191920000000 1.0
C      1  0.5232730000000  0.5163660000000  0.5594460000000 1.0
C      1  0.4643900000000  0.5979810000000  0.4752240000000 1.0
C      1  0.5125810000000  0.5184890000000  0.4042750000000 1.0
C      1  0.4485950000000  0.4428820000000  0.5525170000000 1.0
C      1  0.4611100000000  0.4081930000000  0.4679370000000 1.0
C      1  0.5191690000000  0.5337690000000  0.5964250000000 1.0
C      1  0.4063040000000  0.4552250000000  0.4776620000000 1.0
C      1  0.4065560000000  0.5295290000000  0.4729050000000 1.0
C      1  0.5780870000000  0.4182740000000  0.4963190000000 1.0
C      1  0.5678700000000  0.4243130000000  0.5224830000000 1.0
C      1  0.5086920000000  0.4477520000000  0.4761570000000 1.0
C      1  0.5177150000000  0.4222100000000  0.5479180000000 1.0
C      1  0.4678870000000  0.4950990000000  0.5624710000000 1.0
C      1  0.5669200000000  0.5177860000000  0.5748840000000 1.0
C      1  0.5390180000000  0.5154230000000  0.5843180000000 1.0
C      1  0.4779480000000  0.5340320000000  0.5879430000000 1.0
C      1  0.5435460000000  0.5922180000000  0.4580200000000 1.0
C      1  0.4723400000000  0.4218370000000  0.4443190000000 1.0
C      1  0.5746500000000  0.5072360000000  0.5462190000000 1.0
C      1  0.4213950000000  0.4550370000000  0.5460190000000 1.0
C      1  0.4936830000000  0.5639050000000  0.5038450000000 1.0
C      1  0.5504360000000  0.5725590000000  0.5592030000000 1.0
C      1  0.5815480000000  0.5410620000000  0.5142850000000 1.0
C      1  0.5434910000000  0.4147840000000  0.4572520000000 1.0
C      1  0.5586080000000  0.4996900000000  0.4215650000000 1.0
C      1  0.5714020000000  0.4219580000000  0.4661570000000 1.0
C      1  0.5136670000000  0.4627480000000  0.5820280000000 1.0
C      1  0.5689720000000  0.5602460000000  0.5777650000000 1.0
C      1  0.4418090000000  0.5162960000000  0.5132230000000 1.0
C      1  0.4284310000000  0.5485070000000  0.5739230000000 1.0
C      1  0.5515090000000  0.5303160000000  0.4194500000000 1.0
C      1  0.4189860000000  0.5314490000000  0.5226810000000 1.0
C      1  0.4981120000000  0.5141130000000  0.5978440000000 1.0
C      1  0.5143830000000  0.5937880000000  0.4644340000000 1.0
C      1  0.4128820000000  0.4610630000000  0.5036280000000 1.0
C      1  0.5071510000000  0.5472720000000  0.4524570000000 1.0
C      1  0.5701020000000  0.4632720000000  0.5690610000000 1.0
C      1  0.5301350000000  0.4868030000000  0.5090320000000 1.0
C      1  0.4136010000000  0.4384430000000  0.5235580000000 1.0
C      1  0.5627500000000  0.3981870000000  0.5116000000000 1.0
C      1  0.5022760000000  0.5041180000000  0.5462530000000 1.0
C      1  0.5791070000000  0.4944670000000  0.4405610000000 1.0
C      1  0.5866270000000  0.4378170000000  0.4474300000000 1.0
C      1  0.5829820000000  0.5452650000000  0.4563060000000 1.0
C      1  0.4023140000000  0.4804650000000  0.4656490000000 1.0
C      1  0.4994710000000  0.4948160000000  0.5026530000000 1.0
C      1  0.4493850000000  0.5689820000000  0.4350750000000 1.0
C      1  0.4866730000000  0.5444870000000  0.5220900000000 1.0
C      1  0.5103260000000  0.5370980000000  0.4788290000000 1.0
C      1  0.4481890000000  0.5270420000000  0.4566610000000 1.0
C      1  0.4462790000000  0.4771800000000  0.5988390000000 1.0
C      1  0.4201640000000  0.5287490000000  0.4458850000000 1.0
C      1  0.5852270000000  0.5373220000000  0.5887790000000 1.0
C      1  0.4000800000000  0.4865440000000  0.5104160000000 1.0
C      1  0.4373650000000  0.4179760000000  0.4813450000000 1.0
C      1  0.5647010000000  0.5048830000000  0.4854620000000 1.0
C      1  0.4637980000000  0.5495690000000  0.4171970000000 1.0
C      1  0.4798700000000  0.5316670000000  0.4838530000000 1.0
C      1  0.4707260000000  0.5782540000000  0.5565210000000 1.0
C      1  0.4059090000000  0.4807870000000  0.5387700000000 1.0
C      1  0.4854010000000  0.5200280000000  0.3963410000000 1.0
C      1  0.4857840000000  0.4805930000000  0.5478100000000 1.0
C      1  0.4935470000000  0.5053830000000  0.4500370000000 1.0
C      1  0.5852370000000  0.5678640000000  0.4746540000000 1.0
C      1  0.4650150000000  0.5089000000000  0.4432480000000 1.0
C      1  0.4318980000000  0.4506570000000  0.4411510000000 1.0
C      1  0.5100390000000  0.4978980000000  0.4267380000000 1.0
C      1  0.4700580000000  0.5859050000000  0.4475420000000 1.0
C      1  0.4171190000000  0.4756690000000  0.4410190000000 1.0
C      1  0.5426590000000  0.4641280000000  0.5826870000000 1.0
C      1  0.4604240000000  0.5112210000000  0.4922260000000 1.0
C      1  0.4818310000000  0.3940020000000  0.4834780000000 1.0
C      1  0.4802400000000  0.4732600000000  0.5204020000000 1.0
C      1  0.5000880000000  0.4133240000000  0.4424450000000 1.0
C      1  0.5008130000000  0.5826460000000  0.4874840000000 1.0
C      1  0.5341290000000  0.4471040000000  0.4866390000000 1.0
C      1  0.5662690000000  0.5907250000000  0.4759190000000 1.0
C      1  0.4205830000000  0.5217010000000  0.5744030000000 1.0
C      1  0.4536810000000  0.4266060000000  0.5293030000000 1.0
END
