TITL C-883739-1268-104 6.77110811346335 125000 -19488.20217613 0 0 131 (C1) n - 1
REM
REM in /home/nfs/bkarasulu/CARBON/AIRSS/Generating-Clusters/ReaxFF-fromJPCA2015/Units_Real/with-SteepDescent/Only-C1/SD-CG/Try1-3A/FIRE-CG
REM
REM
REM
REM
REM
REM ./C.cell (11c1c37f851c82e70ff6c80c92926a4b)
REM
REM compiler GCC version 9.2.1 20190827 (Red Hat 9.2.1-1)
REM options -cpp -mtune=generic -march=x86-64 -g -O0 -fpre-include=/usr/include/finclude/math-vector-fortran.h
REM seed -2084659167 -1163553621 980517604 -1160287862 -1118751836 1226201193 -1799602603 -1337297483 -244355494 -1352798389 621749655 -121820944 454614559 1564025735 -1710342637 23764521 1099342935 -1838986507 -1082376380 386198551 172828150 -592912478 1792321442 -309256305 -507684851 -2006076059 -147268662 -936958603 40533381 26512141 1064620956 732611613 -2105309460
REM
CELL 1.54180   50.00000   50.00000   50.00000   90.00000   90.00000   90.00000
LATT -1
SFAC C  
C      1  0.5519680000000  0.4526690000000  0.4701380000000 1.0
C      1  0.4285830000000  0.4417320000000  0.5696410000000 1.0
C      1  0.4966620000000  0.4737820000000  0.5672490000000 1.0
C      1  0.5528430000000  0.4116170000000  0.4745430000000 1.0
C      1  0.5139890000000  0.5228810000000  0.5996130000000 1.0
C      1  0.4564280000000  0.5814200000000  0.4869170000000 1.0
C      1  0.4939190000000  0.4084440000000  0.4720040000000 1.0
C      1  0.5349160000000  0.5023340000000  0.5872210000000 1.0
C      1  0.5404900000000  0.4582250000000  0.4165480000000 1.0
C      1  0.5786000000000  0.4602670000000  0.5469640000000 1.0
C      1  0.4757460000000  0.5948550000000  0.5358430000000 1.0
C      1  0.4440180000000  0.4527190000000  0.5259870000000 1.0
C      1  0.4355680000000  0.5580920000000  0.5157280000000 1.0
C      1  0.5160350000000  0.4142380000000  0.4231260000000 1.0
C      1  0.4074340000000  0.4974010000000  0.5329920000000 1.0
C      1  0.5746430000000  0.4831740000000  0.5624400000000 1.0
C      1  0.5695280000000  0.5742230000000  0.4956820000000 1.0
C      1  0.4918290000000  0.4280230000000  0.4168850000000 1.0
C      1  0.4043950000000  0.5177780000000  0.5192140000000 1.0
C      1  0.4386910000000  0.5361680000000  0.5591270000000 1.0
C      1  0.5001440000000  0.4484380000000  0.5517210000000 1.0
C      1  0.5035330000000  0.5368000000000  0.5242770000000 1.0
C      1  0.4840330000000  0.4833290000000  0.4938900000000 1.0
C      1  0.4543930000000  0.5462550000000  0.4318600000000 1.0
C      1  0.4153400000000  0.4727520000000  0.4657310000000 1.0
C      1  0.5509180000000  0.4494220000000  0.5518900000000 1.0
C      1  0.4662150000000  0.5196020000000  0.4263130000000 1.0
C      1  0.5240850000000  0.5405700000000  0.4900330000000 1.0
C      1  0.4627120000000  0.5501140000000  0.5168710000000 1.0
C      1  0.4606690000000  0.5309020000000  0.4701480000000 1.0
C      1  0.5727150000000  0.4737080000000  0.4696090000000 1.0
C      1  0.5826680000000  0.4774130000000  0.4966910000000 1.0
C      1  0.5110470000000  0.5782780000000  0.4347000000000 1.0
C      1  0.5654150000000  0.4320300000000  0.5083620000000 1.0
C      1  0.5221450000000  0.4852930000000  0.4726850000000 1.0
C      1  0.4819190000000  0.5376970000000  0.5708420000000 1.0
C      1  0.5489660000000  0.4090180000000  0.5025060000000 1.0
C      1  0.4326570000000  0.4963310000000  0.5475510000000 1.0
C      1  0.5903380000000  0.5291470000000  0.4919460000000 1.0
C      1  0.4966350000000  0.4855640000000  0.4028740000000 1.0
C      1  0.5552160000000  0.4283880000000  0.4521360000000 1.0
C      1  0.5106200000000  0.5681740000000  0.5747980000000 1.0
C      1  0.5762390000000  0.5329630000000  0.5734810000000 1.0
C      1  0.4818200000000  0.5873580000000  0.4723450000000 1.0
C      1  0.5254220000000  0.5866890000000  0.4572700000000 1.0
C      1  0.4374570000000  0.5431550000000  0.4589760000000 1.0
C      1  0.5393460000000  0.4229180000000  0.5585550000000 1.0
C      1  0.5506240000000  0.5743230000000  0.4465970000000 1.0
C      1  0.5698010000000  0.5355980000000  0.4676520000000 1.0
C      1  0.4257520000000  0.4495700000000  0.4748520000000 1.0
C      1  0.5119020000000  0.4251450000000  0.5609570000000 1.0
C      1  0.4568300000000  0.4564460000000  0.4362940000000 1.0
C      1  0.4908560000000  0.4499390000000  0.5244270000000 1.0
C      1  0.4706420000000  0.4448800000000  0.4112030000000 1.0
C      1  0.4166200000000  0.4490080000000  0.5208360000000 1.0
C      1  0.5694710000000  0.5583580000000  0.5583160000000 1.0
C      1  0.4961320000000  0.4001850000000  0.5007760000000 1.0
C      1  0.5860240000000  0.5374990000000  0.5466510000000 1.0
C      1  0.4635280000000  0.5020350000000  0.5901620000000 1.0
C      1  0.4809810000000  0.5667070000000  0.5733910000000 1.0
C      1  0.5745210000000  0.4901440000000  0.4447970000000 1.0
C      1  0.5263470000000  0.5367270000000  0.4440380000000 1.0
C      1  0.5113500000000  0.5160360000000  0.4336530000000 1.0
C      1  0.4940980000000  0.5242620000000  0.5456730000000 1.0
C      1  0.5731370000000  0.5171680000000  0.5294750000000 1.0
C      1  0.5237010000000  0.5419650000000  0.5802290000000 1.0
C      1  0.4266890000000  0.4324520000000  0.4950870000000 1.0
C      1  0.5446480000000  0.5133040000000  0.5367220000000 1.0
C      1  0.5692470000000  0.5668150000000  0.4676010000000 1.0
C      1  0.4922710000000  0.4952520000000  0.5454370000000 1.0
C      1  0.4911130000000  0.5131380000000  0.4128200000000 1.0
C      1  0.4041060000000  0.4768810000000  0.5148100000000 1.0
C      1  0.4805330000000  0.4378190000000  0.4788160000000 1.0
C      1  0.4172720000000  0.5208010000000  0.4520240000000 1.0
C      1  0.5103500000000  0.4972890000000  0.4966740000000 1.0
C      1  0.5628550000000  0.5315310000000  0.4203470000000 1.0
C      1  0.4735870000000  0.5655660000000  0.4301640000000 1.0
C      1  0.5422550000000  0.5529060000000  0.4278310000000 1.0
C      1  0.5325870000000  0.5206650000000  0.5626150000000 1.0
C      1  0.4767590000000  0.4672330000000  0.3910230000000 1.0
C      1  0.4133530000000  0.5294730000000  0.4975060000000 1.0
C      1  0.5222800000000  0.4761580000000  0.5849350000000 1.0
C      1  0.5223410000000  0.4051320000000  0.5436290000000 1.0
C      1  0.4503740000000  0.4778090000000  0.5338410000000 1.0
C      1  0.4708080000000  0.4869010000000  0.4690080000000 1.0
C      1  0.5587430000000  0.5057790000000  0.4094850000000 1.0
C      1  0.4718600000000  0.5775760000000  0.5115230000000 1.0
C      1  0.5059880000000  0.4063520000000  0.4485020000000 1.0
C      1  0.4850530000000  0.5881370000000  0.4410770000000 1.0
C      1  0.5040300000000  0.6020070000000  0.5421360000000 1.0
C      1  0.4396550000000  0.5193000000000  0.5020440000000 1.0
C      1  0.5796740000000  0.4548350000000  0.5160630000000 1.0
C      1  0.5679580000000  0.5050320000000  0.5780160000000 1.0
C      1  0.5393340000000  0.5318580000000  0.4682350000000 1.0
C      1  0.5157820000000  0.4727820000000  0.4222700000000 1.0
C      1  0.4657020000000  0.4341290000000  0.5255000000000 1.0
C      1  0.5494010000000  0.5735920000000  0.5430450000000 1.0
C      1  0.5390730000000  0.4691220000000  0.5353800000000 1.0
C      1  0.4772970000000  0.4819910000000  0.5234050000000 1.0
C      1  0.4028810000000  0.5118610000000  0.4754470000000 1.0
C      1  0.4371120000000  0.4755400000000  0.4319820000000 1.0
C      1  0.4722420000000  0.4607620000000  0.4611260000000 1.0
C      1  0.5313440000000  0.4911110000000  0.5221990000000 1.0
C      1  0.4526020000000  0.4213360000000  0.4880040000000 1.0
C      1  0.4666850000000  0.5273460000000  0.4979260000000 1.0
C      1  0.5031450000000  0.4453440000000  0.4965150000000 1.0
C      1  0.4004240000000  0.4847710000000  0.4864460000000 1.0
C      1  0.5053730000000  0.5254560000000  0.5008690000000 1.0
C      1  0.4675480000000  0.5106640000000  0.4538390000000 1.0
C      1  0.5776880000000  0.5192450000000  0.4427550000000 1.0
C      1  0.4850000000000  0.5215280000000  0.5952200000000 1.0
C      1  0.5255830000000  0.4583430000000  0.4828540000000 1.0
C      1  0.4380180000000  0.5617480000000  0.5468740000000 1.0
C      1  0.4500460000000  0.4535780000000  0.5854460000000 1.0
C      1  0.5210050000000  0.4024090000000  0.5150010000000 1.0
C      1  0.5412050000000  0.4311450000000  0.4260270000000 1.0
C      1  0.5620570000000  0.4799940000000  0.4193310000000 1.0
C      1  0.5165390000000  0.4902780000000  0.4454050000000 1.0
C      1  0.4336120000000  0.5623150000000  0.4869180000000 1.0
C      1  0.4614590000000  0.5788700000000  0.5556350000000 1.0
C      1  0.5874860000000  0.5043520000000  0.5071540000000 1.0
C      1  0.5246210000000  0.5856360000000  0.5557030000000 1.0
C      1  0.4108560000000  0.4345190000000  0.5505250000000 1.0
C      1  0.4408830000000  0.5119510000000  0.5716420000000 1.0
C      1  0.4690210000000  0.4102700000000  0.5091160000000 1.0
C      1  0.5463050000000  0.5739830000000  0.5141780000000 1.0
C      1  0.4706970000000  0.4748070000000  0.5867070000000 1.0
C      1  0.4230280000000  0.4976980000000  0.4366600000000 1.0
C      1  0.5933140000000  0.5561900000000  0.5032150000000 1.0
C      1  0.5085580000000  0.5833090000000  0.4819810000000 1.0
C      1  0.5194220000000  0.5656790000000  0.5038270000000 1.0
END
