TITL C-883738-3659-126 157.20454862223 125000 -18796.3375653271 0 0 127 (C1) n - 1
REM
REM in /home/nfs/bkarasulu/CARBON/AIRSS/Generating-Clusters/ReaxFF-fromJPCA2015/Units_Real/with-SteepDescent/Only-C1/SD-CG/Try1-3A/FIRE-CG
REM
REM
REM
REM
REM
REM ./C.cell (11c1c37f851c82e70ff6c80c92926a4b)
REM
REM compiler GCC version 9.2.1 20190827 (Red Hat 9.2.1-1)
REM options -cpp -mtune=generic -march=x86-64 -g -O0 -fpre-include=/usr/include/finclude/math-vector-fortran.h
REM seed 787388470 1768720396 -1831502199 1206435628 1204601082 243824463 1278113719 1186200688 -39519723 -1339528698 2101861779 -2055011599 -429355123 -235219189 -1441304508 -1897137451 -687584501 1051182973 -837078427 -788141422 -1846436775 -869406545 986065345 -1185687338 -617688654 -1855720548 871087962 1871997271 -1435689836 -771284143 -527572231 905289639 1544990574
REM
CELL 1.54180   50.00000   50.00000   50.00000   90.00000   90.00000   90.00000
LATT -1
SFAC C  
C      1  0.4816970000000  0.4867130000000  0.4550230000000 1.0
C      1  0.4817410000000  0.4803290000000  0.5947170000000 1.0
C      1  0.4897360000000  0.5438320000000  0.4990270000000 1.0
C      1  0.4674970000000  0.4241950000000  0.4432310000000 1.0
C      1  0.4846540000000  0.4055090000000  0.4861240000000 1.0
C      1  0.4970130000000  0.6004730000000  0.5091680000000 1.0
C      1  0.4409910000000  0.4981640000000  0.5767150000000 1.0
C      1  0.5809210000000  0.5251530000000  0.4962060000000 1.0
C      1  0.4285110000000  0.5648410000000  0.5368240000000 1.0
C      1  0.4711430000000  0.6049460000000  0.4996340000000 1.0
C      1  0.4360000000000  0.4714720000000  0.5626500000000 1.0
C      1  0.4238720000000  0.5208190000000  0.4787750000000 1.0
C      1  0.5221400000000  0.5168630000000  0.5792080000000 1.0
C      1  0.4072470000000  0.4816480000000  0.5178570000000 1.0
C      1  0.5827340000000  0.4760850000000  0.5005300000000 1.0
C      1  0.5441820000000  0.5342810000000  0.4286930000000 1.0
C      1  0.5642250000000  0.4956550000000  0.5658030000000 1.0
C      1  0.4965210000000  0.5587200000000  0.4248430000000 1.0
C      1  0.4427920000000  0.5303250000000  0.5173960000000 1.0
C      1  0.5012730000000  0.4983170000000  0.4918380000000 1.0
C      1  0.4504210000000  0.4229550000000  0.5269720000000 1.0
C      1  0.5207220000000  0.4705410000000  0.5237630000000 1.0
C      1  0.4201320000000  0.4424740000000  0.4645920000000 1.0
C      1  0.4057970000000  0.4836710000000  0.4890240000000 1.0
C      1  0.5310820000000  0.4905830000000  0.4091850000000 1.0
C      1  0.5048140000000  0.4718450000000  0.4600150000000 1.0
C      1  0.5703580000000  0.5627320000000  0.4798290000000 1.0
C      1  0.5662270000000  0.4567110000000  0.5447900000000 1.0
C      1  0.4781020000000  0.5162070000000  0.4904880000000 1.0
C      1  0.5547420000000  0.4840160000000  0.4980330000000 1.0
C      1  0.5106940000000  0.5867860000000  0.4611620000000 1.0
C      1  0.4251810000000  0.5103210000000  0.4516350000000 1.0
C      1  0.4207070000000  0.5485290000000  0.4871930000000 1.0
C      1  0.4696570000000  0.4963480000000  0.5383860000000 1.0
C      1  0.4801780000000  0.5356240000000  0.4189970000000 1.0
C      1  0.4912140000000  0.4600080000000  0.4166720000000 1.0
C      1  0.4669790000000  0.4455330000000  0.4228720000000 1.0
C      1  0.4936630000000  0.5106380000000  0.5376500000000 1.0
C      1  0.5754990000000  0.4275590000000  0.4883440000000 1.0
C      1  0.5053070000000  0.5419900000000  0.4710400000000 1.0
C      1  0.5432980000000  0.4517350000000  0.5259090000000 1.0
C      1  0.4281400000000  0.4411630000000  0.5213270000000 1.0
C      1  0.4914440000000  0.4227050000000  0.5515740000000 1.0
C      1  0.5510600000000  0.4103780000000  0.4883150000000 1.0
C      1  0.4665060000000  0.4548500000000  0.5974900000000 1.0
C      1  0.4396560000000  0.5515780000000  0.5608530000000 1.0
C      1  0.4866320000000  0.5749160000000  0.4472310000000 1.0
C      1  0.4460130000000  0.5942790000000  0.4971190000000 1.0
C      1  0.4843760000000  0.4873220000000  0.4113950000000 1.0
C      1  0.5320240000000  0.5134190000000  0.4612470000000 1.0
C      1  0.5368410000000  0.5736050000000  0.5038400000000 1.0
C      1  0.5322740000000  0.5375210000000  0.4770710000000 1.0
C      1  0.5878810000000  0.4458760000000  0.5085070000000 1.0
C      1  0.4764050000000  0.5122310000000  0.4651120000000 1.0
C      1  0.5163350000000  0.5891480000000  0.4892060000000 1.0
C      1  0.4143250000000  0.4838110000000  0.4601500000000 1.0
C      1  0.4676160000000  0.5325800000000  0.4465340000000 1.0
C      1  0.4896140000000  0.5736130000000  0.5584760000000 1.0
C      1  0.5926920000000  0.5093130000000  0.5193550000000 1.0
C      1  0.4617450000000  0.5561240000000  0.5060760000000 1.0
C      1  0.5334750000000  0.4062510000000  0.5113300000000 1.0
C      1  0.5379270000000  0.4936980000000  0.5190010000000 1.0
C      1  0.5238340000000  0.4865930000000  0.4784630000000 1.0
C      1  0.5414240000000  0.5445630000000  0.5010540000000 1.0
C      1  0.5602090000000  0.5126800000000  0.4462400000000 1.0
C      1  0.4447820000000  0.5673020000000  0.4793000000000 1.0
C      1  0.5762050000000  0.4658540000000  0.4538720000000 1.0
C      1  0.5061420000000  0.5401030000000  0.5857410000000 1.0
C      1  0.4621900000000  0.4153170000000  0.5014510000000 1.0
C      1  0.5143600000000  0.4536400000000  0.4355420000000 1.0
C      1  0.4221580000000  0.4646010000000  0.5379560000000 1.0
C      1  0.5191520000000  0.4312410000000  0.5572430000000 1.0
C      1  0.4265990000000  0.4472680000000  0.4932670000000 1.0
C      1  0.5510560000000  0.5394770000000  0.5465770000000 1.0
C      1  0.5678660000000  0.4387940000000  0.4624210000000 1.0
C      1  0.5491940000000  0.5193130000000  0.5701850000000 1.0
C      1  0.4974990000000  0.4559890000000  0.5117660000000 1.0
C      1  0.4460090000000  0.4290610000000  0.4614720000000 1.0
C      1  0.4733140000000  0.4650280000000  0.4998130000000 1.0
C      1  0.5869370000000  0.5035270000000  0.5483200000000 1.0
C      1  0.5617670000000  0.4821370000000  0.4356850000000 1.0
C      1  0.5164960000000  0.4263470000000  0.4501540000000 1.0
C      1  0.5401840000000  0.4680710000000  0.4222440000000 1.0
C      1  0.4175250000000  0.5478700000000  0.5157810000000 1.0
C      1  0.5555190000000  0.5626690000000  0.4562820000000 1.0
C      1  0.5141230000000  0.5639160000000  0.5699100000000 1.0
C      1  0.4467840000000  0.5092110000000  0.4981680000000 1.0
C      1  0.5033330000000  0.4745880000000  0.5751180000000 1.0
C      1  0.5045970000000  0.4042040000000  0.5070370000000 1.0
C      1  0.5931920000000  0.5306100000000  0.5402280000000 1.0
C      1  0.5083750000000  0.5265140000000  0.4472440000000 1.0
C      1  0.4960790000000  0.4278010000000  0.5229550000000 1.0
C      1  0.4216980000000  0.4616520000000  0.4425310000000 1.0
C      1  0.4546160000000  0.4399540000000  0.4881020000000 1.0
C      1  0.4593880000000  0.4862490000000  0.5125220000000 1.0
C      1  0.4474910000000  0.5154840000000  0.4340110000000 1.0
C      1  0.4776600000000  0.5330820000000  0.5848290000000 1.0
C      1  0.4319480000000  0.5229490000000  0.5636640000000 1.0
C      1  0.5424130000000  0.4223810000000  0.4623050000000 1.0
C      1  0.5306690000000  0.5810530000000  0.5317250000000 1.0
C      1  0.5367170000000  0.4242110000000  0.5344010000000 1.0
C      1  0.5808320000000  0.5531150000000  0.5048450000000 1.0
C      1  0.5798640000000  0.5129430000000  0.4695100000000 1.0
C      1  0.4449440000000  0.4639930000000  0.4256960000000 1.0
C      1  0.5261730000000  0.4565920000000  0.5715890000000 1.0
C      1  0.4518760000000  0.4487340000000  0.5717370000000 1.0
C      1  0.4501470000000  0.5785920000000  0.5222920000000 1.0
C      1  0.4675280000000  0.5549500000000  0.5681360000000 1.0
C      1  0.5912590000000  0.4404340000000  0.5374970000000 1.0
C      1  0.5266810000000  0.5179190000000  0.4114800000000 1.0
C      1  0.5346800000000  0.5789520000000  0.4460590000000 1.0
C      1  0.4967670000000  0.5133050000000  0.4101650000000 1.0
C      1  0.4910720000000  0.4152720000000  0.4584580000000 1.0
C      1  0.5267530000000  0.5575280000000  0.4275370000000 1.0
C      1  0.5533160000000  0.4678690000000  0.5684840000000 1.0
C      1  0.4628280000000  0.5622980000000  0.4568820000000 1.0
C      1  0.5326960000000  0.5258620000000  0.5217190000000 1.0
C      1  0.5038630000000  0.5006730000000  0.5613360000000 1.0
C      1  0.4602350000000  0.4894760000000  0.4276670000000 1.0
C      1  0.5025290000000  0.5875340000000  0.5359990000000 1.0
C      1  0.5745200000000  0.5521490000000  0.5341910000000 1.0
C      1  0.4474730000000  0.5155870000000  0.5409360000000 1.0
C      1  0.5886400000000  0.4853830000000  0.4727660000000 1.0
C      1  0.4664650000000  0.5055770000000  0.5888670000000 1.0
C      1  0.5039720000000  0.5309280000000  0.5217470000000 1.0
C      1  0.5398610000000  0.5651730000000  0.5539950000000 1.0
C      1  0.4628730000000  0.4283340000000  0.5528110000000 1.0
END
