TITL C-883732-77-378 15.8331259948774 125000 -16220.1222002248 0 0 111 (C1) n - 1
REM
REM in /home/nfs/bkarasulu/CARBON/AIRSS/Generating-Clusters/ReaxFF-fromJPCA2015/Units_Real/with-SteepDescent/Only-C1/SD-CG/Try1-3A/FIRE-CG
REM
REM
REM
REM
REM
REM ./C.cell (11c1c37f851c82e70ff6c80c92926a4b)
REM
REM compiler GCC version 9.2.1 20190827 (Red Hat 9.2.1-1)
REM options -cpp -mtune=generic -march=x86-64 -g -O0 -fpre-include=/usr/include/finclude/math-vector-fortran.h
REM seed -943997520 2102924190 542140465 1514339686 -1337718125 -1581883467 -1664811697 1981843569 882569582 1852425696 -422628677 1127822492 -1207886521 398305146 -716391120 -2027315708 -134576383 -1052952721 -437918923 -797793834 349826733 -620099426 1201207852 128391868 248989165 -438128727 -1266122936 946168521 -1258235669 51884650 -1857952436 1737807069 632942277
REM
CELL 1.54180   50.00000   50.00000   50.00000   90.00000   90.00000   90.00000
LATT -1
SFAC C  
C      1  0.4786150000000  0.4157280000000  0.4975770000000 1.0
C      1  0.4647860000000  0.5870780000000  0.4817000000000 1.0
C      1  0.5420760000000  0.4511210000000  0.5017360000000 1.0
C      1  0.4178420000000  0.5368970000000  0.5059820000000 1.0
C      1  0.5488260000000  0.5239400000000  0.5012430000000 1.0
C      1  0.5056860000000  0.5295660000000  0.5853330000000 1.0
C      1  0.4009210000000  0.4703840000000  0.5127520000000 1.0
C      1  0.4018830000000  0.5124950000000  0.5127010000000 1.0
C      1  0.5414100000000  0.5667570000000  0.4841550000000 1.0
C      1  0.5527500000000  0.4640450000000  0.5529060000000 1.0
C      1  0.4462610000000  0.5308670000000  0.5526800000000 1.0
C      1  0.5106590000000  0.4254960000000  0.5516380000000 1.0
C      1  0.4972770000000  0.4643810000000  0.5628270000000 1.0
C      1  0.4558340000000  0.5182830000000  0.5029930000000 1.0
C      1  0.5166180000000  0.5813440000000  0.4422110000000 1.0
C      1  0.5380200000000  0.5299510000000  0.5268260000000 1.0
C      1  0.4861990000000  0.4714580000000  0.5121660000000 1.0
C      1  0.5585650000000  0.4987870000000  0.4920680000000 1.0
C      1  0.5649840000000  0.4669240000000  0.4206190000000 1.0
C      1  0.4481600000000  0.5643790000000  0.4726420000000 1.0
C      1  0.5512430000000  0.5125910000000  0.4291180000000 1.0
C      1  0.5732620000000  0.4602070000000  0.5309700000000 1.0
C      1  0.5149520000000  0.5505600000000  0.4334650000000 1.0
C      1  0.5205740000000  0.4360340000000  0.5124980000000 1.0
C      1  0.5844960000000  0.4843100000000  0.4638780000000 1.0
C      1  0.5500470000000  0.4439390000000  0.4326230000000 1.0
C      1  0.5065600000000  0.4303180000000  0.4547640000000 1.0
C      1  0.5806090000000  0.5271890000000  0.5388060000000 1.0
C      1  0.5520280000000  0.5710500000000  0.5145000000000 1.0
C      1  0.5262180000000  0.5192210000000  0.4676630000000 1.0
C      1  0.4133770000000  0.4979120000000  0.4653890000000 1.0
C      1  0.4163200000000  0.4457360000000  0.5188540000000 1.0
C      1  0.4762950000000  0.5307940000000  0.5842300000000 1.0
C      1  0.5206660000000  0.4838000000000  0.4005630000000 1.0
C      1  0.5227850000000  0.4880680000000  0.5211640000000 1.0
C      1  0.4943150000000  0.5285230000000  0.5391950000000 1.0
C      1  0.5321920000000  0.5782230000000  0.5321780000000 1.0
C      1  0.4812620000000  0.4935200000000  0.4557880000000 1.0
C      1  0.4708420000000  0.5017000000000  0.5770770000000 1.0
C      1  0.4750540000000  0.5326570000000  0.4221530000000 1.0
C      1  0.4511710000000  0.5235700000000  0.4362970000000 1.0
C      1  0.4675520000000  0.5671590000000  0.5450340000000 1.0
C      1  0.4715520000000  0.5110740000000  0.5445130000000 1.0
C      1  0.5884920000000  0.5050900000000  0.4864160000000 1.0
C      1  0.4677590000000  0.4593330000000  0.5698890000000 1.0
C      1  0.4614630000000  0.5507260000000  0.5684180000000 1.0
C      1  0.5152600000000  0.5736460000000  0.5529950000000 1.0
C      1  0.4642480000000  0.4866750000000  0.5252400000000 1.0
C      1  0.4817480000000  0.4803480000000  0.4288170000000 1.0
C      1  0.5273070000000  0.5112590000000  0.4116330000000 1.0
C      1  0.4297370000000  0.5365610000000  0.5309880000000 1.0
C      1  0.4488730000000  0.4814830000000  0.5714380000000 1.0
C      1  0.4937340000000  0.4768480000000  0.4774120000000 1.0
C      1  0.4805340000000  0.5247080000000  0.4917520000000 1.0
C      1  0.5712630000000  0.4488980000000  0.5022160000000 1.0
C      1  0.4871120000000  0.4501090000000  0.4654400000000 1.0
C      1  0.4511550000000  0.5706150000000  0.4999140000000 1.0
C      1  0.5701920000000  0.4910220000000  0.4374290000000 1.0
C      1  0.4880210000000  0.5404370000000  0.5136490000000 1.0
C      1  0.5444270000000  0.5362300000000  0.5716120000000 1.0
C      1  0.5204680000000  0.4426340000000  0.4314950000000 1.0
C      1  0.5875880000000  0.5531300000000  0.4649970000000 1.0
C      1  0.5138080000000  0.5434110000000  0.5597490000000 1.0
C      1  0.5182880000000  0.4106090000000  0.5258640000000 1.0
C      1  0.5571750000000  0.4469880000000  0.4625140000000 1.0
C      1  0.4521650000000  0.4188900000000  0.4967730000000 1.0
C      1  0.5598710000000  0.5564400000000  0.4621570000000 1.0
C      1  0.5135070000000  0.4084210000000  0.4741170000000 1.0
C      1  0.4309800000000  0.4362380000000  0.4957430000000 1.0
C      1  0.5285170000000  0.5385620000000  0.4880680000000 1.0
C      1  0.5609770000000  0.5484780000000  0.5314210000000 1.0
C      1  0.5420280000000  0.5343110000000  0.4474110000000 1.0
C      1  0.5025760000000  0.4764640000000  0.5353930000000 1.0
C      1  0.4908870000000  0.4411920000000  0.5144410000000 1.0
C      1  0.4861500000000  0.5446950000000  0.4460960000000 1.0
C      1  0.4275590000000  0.4771200000000  0.5517000000000 1.0
C      1  0.4557030000000  0.4721380000000  0.4172240000000 1.0
C      1  0.5388410000000  0.4684730000000  0.4644450000000 1.0
C      1  0.4312380000000  0.5423130000000  0.4786330000000 1.0
C      1  0.4219300000000  0.4710110000000  0.4589010000000 1.0
C      1  0.5817290000000  0.4858390000000  0.5319100000000 1.0
C      1  0.5201070000000  0.5033430000000  0.5837230000000 1.0
C      1  0.4579180000000  0.4379970000000  0.5529840000000 1.0
C      1  0.4408710000000  0.4584510000000  0.4400540000000 1.0
C      1  0.4848470000000  0.5209200000000  0.4635140000000 1.0
C      1  0.5908980000000  0.5322350000000  0.4743560000000 1.0
C      1  0.4075230000000  0.4896610000000  0.5329780000000 1.0
C      1  0.4830530000000  0.4287040000000  0.5411490000000 1.0
C      1  0.5189820000000  0.5847380000000  0.4702190000000 1.0
C      1  0.4003830000000  0.4926990000000  0.4913080000000 1.0
C      1  0.4640970000000  0.5538850000000  0.5188150000000 1.0
C      1  0.5216800000000  0.4899820000000  0.4696370000000 1.0
C      1  0.4920910000000  0.5909210000000  0.5129600000000 1.0
C      1  0.5643890000000  0.5179980000000  0.5635500000000 1.0
C      1  0.4936670000000  0.5935730000000  0.4861080000000 1.0
C      1  0.5056950000000  0.5317480000000  0.4126040000000 1.0
C      1  0.4489830000000  0.4911390000000  0.5017470000000 1.0
C      1  0.4404620000000  0.4639070000000  0.4819680000000 1.0
C      1  0.5437990000000  0.4946010000000  0.5642280000000 1.0
C      1  0.5040030000000  0.4000450000000  0.5010720000000 1.0
C      1  0.4305580000000  0.5217010000000  0.4578430000000 1.0
C      1  0.5323970000000  0.4450500000000  0.5546190000000 1.0
C      1  0.5909140000000  0.5078620000000  0.5200070000000 1.0
C      1  0.4978890000000  0.4858090000000  0.5827430000000 1.0
C      1  0.5294830000000  0.5059750000000  0.5407270000000 1.0
C      1  0.5066270000000  0.4648990000000  0.4182680000000 1.0
C      1  0.4910070000000  0.5863230000000  0.5409930000000 1.0
C      1  0.4321950000000  0.4496340000000  0.5430800000000 1.0
C      1  0.5816310000000  0.4579250000000  0.4761120000000 1.0
C      1  0.4583570000000  0.4495110000000  0.4620370000000 1.0
C      1  0.5414440000000  0.4793810000000  0.5028140000000 1.0
END
