TITL C-883739-1268-279 -13.6029306818928 125000 -16176.093421157 0 0 107 (C1) n - 1
REM
REM in /home/nfs/bkarasulu/CARBON/AIRSS/Generating-Clusters/ReaxFF-fromJPCA2015/Units_Real/with-SteepDescent/Only-C1/SD-CG/Try1-3A/FIRE-CG
REM
REM
REM
REM
REM
REM ./C.cell (11c1c37f851c82e70ff6c80c92926a4b)
REM
REM compiler GCC version 9.2.1 20190827 (Red Hat 9.2.1-1)
REM options -cpp -mtune=generic -march=x86-64 -g -O0 -fpre-include=/usr/include/finclude/math-vector-fortran.h
REM seed 782068679 1884926449 -11457328 880566150 1403165852 1222586900 -435421468 426946515 1577547540 1979893530 641088520 95292009 1703293873 1111503158 944709580 -823701045 1721821103 447658892 1214231253 64737108 -2038052867 -1835767852 -129757909 -1586118392 830823054 754285768 -495184268 1490897577 -585845538 -27703894 -1602057932 1554857519 1441098979
REM
CELL 1.54180   50.00000   50.00000   50.00000   90.00000   90.00000   90.00000
LATT -1
SFAC C  
C      1  0.4166960000000  0.5217220000000  0.4968910000000 1.0
C      1  0.5657270000000  0.4898410000000  0.4314530000000 1.0
C      1  0.4785610000000  0.5807920000000  0.4765460000000 1.0
C      1  0.4404210000000  0.4094170000000  0.4849920000000 1.0
C      1  0.4289650000000  0.5049580000000  0.5508370000000 1.0
C      1  0.4942820000000  0.5172590000000  0.4711190000000 1.0
C      1  0.5125340000000  0.4273360000000  0.5304990000000 1.0
C      1  0.5712550000000  0.5345750000000  0.4482920000000 1.0
C      1  0.4619690000000  0.4389750000000  0.4424120000000 1.0
C      1  0.5069270000000  0.5841980000000  0.5393130000000 1.0
C      1  0.5299060000000  0.5837490000000  0.4892640000000 1.0
C      1  0.4987720000000  0.5617450000000  0.5807280000000 1.0
C      1  0.5722520000000  0.5010390000000  0.5438620000000 1.0
C      1  0.4415330000000  0.5602990000000  0.4986860000000 1.0
C      1  0.5172850000000  0.4597840000000  0.5746890000000 1.0
C      1  0.5378030000000  0.5038150000000  0.4652220000000 1.0
C      1  0.4328330000000  0.5330290000000  0.5438260000000 1.0
C      1  0.5447630000000  0.5014540000000  0.4176340000000 1.0
C      1  0.4202010000000  0.4610390000000  0.5365630000000 1.0
C      1  0.5165050000000  0.5082820000000  0.5612780000000 1.0
C      1  0.4414730000000  0.5513370000000  0.4710660000000 1.0
C      1  0.4531120000000  0.4633670000000  0.4576000000000 1.0
C      1  0.4697650000000  0.4660370000000  0.4813440000000 1.0
C      1  0.5584400000000  0.5601400000000  0.4553500000000 1.0
C      1  0.4619680000000  0.4221250000000  0.5305950000000 1.0
C      1  0.5243430000000  0.4787030000000  0.4634250000000 1.0
C      1  0.5290910000000  0.5011970000000  0.5144780000000 1.0
C      1  0.4891500000000  0.5282660000000  0.4267390000000 1.0
C      1  0.5653230000000  0.4290330000000  0.5181910000000 1.0
C      1  0.5621590000000  0.5226780000000  0.5602640000000 1.0
C      1  0.5537840000000  0.5677250000000  0.4833630000000 1.0
C      1  0.4514580000000  0.4211330000000  0.4607240000000 1.0
C      1  0.5646820000000  0.5484720000000  0.5028630000000 1.0
C      1  0.4264530000000  0.4757680000000  0.4633630000000 1.0
C      1  0.5174120000000  0.5667200000000  0.5607680000000 1.0
C      1  0.5764520000000  0.5218600000000  0.4945450000000 1.0
C      1  0.5173550000000  0.5519970000000  0.5991230000000 1.0
C      1  0.5256210000000  0.4128450000000  0.4672890000000 1.0
C      1  0.5024500000000  0.5365930000000  0.5296020000000 1.0
C      1  0.5459560000000  0.5729090000000  0.5322630000000 1.0
C      1  0.4264410000000  0.4506560000000  0.5107010000000 1.0
C      1  0.5269700000000  0.4328990000000  0.4894030000000 1.0
C      1  0.4342820000000  0.5031550000000  0.4260220000000 1.0
C      1  0.4750050000000  0.4848770000000  0.5653020000000 1.0
C      1  0.4794050000000  0.5223950000000  0.5379020000000 1.0
C      1  0.4761670000000  0.5279360000000  0.4911230000000 1.0
C      1  0.5070010000000  0.5824180000000  0.4708100000000 1.0
C      1  0.5797360000000  0.4740110000000  0.5033000000000 1.0
C      1  0.4963290000000  0.4072020000000  0.4638670000000 1.0
C      1  0.4895090000000  0.4284410000000  0.4433230000000 1.0
C      1  0.5112270000000  0.4729160000000  0.4372440000000 1.0
C      1  0.4636870000000  0.4415960000000  0.5513520000000 1.0
C      1  0.5645020000000  0.4411980000000  0.4650790000000 1.0
C      1  0.4971740000000  0.5104220000000  0.4026480000000 1.0
C      1  0.4881980000000  0.4593640000000  0.5576800000000 1.0
C      1  0.5461470000000  0.5438060000000  0.5708450000000 1.0
C      1  0.5365420000000  0.4211620000000  0.5153060000000 1.0
C      1  0.5193810000000  0.4742920000000  0.5138340000000 1.0
C      1  0.4126550000000  0.4881940000000  0.5336990000000 1.0
C      1  0.4670150000000  0.5116050000000  0.5135850000000 1.0
C      1  0.5098390000000  0.5671510000000  0.4456040000000 1.0
C      1  0.5349810000000  0.5537120000000  0.4396120000000 1.0
C      1  0.4708500000000  0.5035290000000  0.3954950000000 1.0
C      1  0.4913320000000  0.4093780000000  0.4912600000000 1.0
C      1  0.5222100000000  0.4618080000000  0.4875900000000 1.0
C      1  0.4404600000000  0.4579150000000  0.5557770000000 1.0
C      1  0.5367990000000  0.5148700000000  0.4910130000000 1.0
C      1  0.5387540000000  0.4318160000000  0.4495560000000 1.0
C      1  0.5160310000000  0.5331730000000  0.4833850000000 1.0
C      1  0.5143000000000  0.4430700000000  0.4375050000000 1.0
C      1  0.5433670000000  0.5233190000000  0.4409940000000 1.0
C      1  0.4975190000000  0.5438740000000  0.5024980000000 1.0
C      1  0.5265180000000  0.5210120000000  0.5363100000000 1.0
C      1  0.4886360000000  0.5079760000000  0.5603810000000 1.0
C      1  0.4278880000000  0.5410290000000  0.5160050000000 1.0
C      1  0.4714660000000  0.4839560000000  0.5063010000000 1.0
C      1  0.4478040000000  0.5021510000000  0.4048600000000 1.0
C      1  0.4794340000000  0.5837160000000  0.5275100000000 1.0
C      1  0.5796510000000  0.5004810000000  0.5146280000000 1.0
C      1  0.5769800000000  0.4667490000000  0.4742640000000 1.0
C      1  0.4234540000000  0.5033960000000  0.4514370000000 1.0
C      1  0.4882370000000  0.4134290000000  0.5186840000000 1.0
C      1  0.4462800000000  0.5491920000000  0.5911810000000 1.0
C      1  0.5455690000000  0.4646860000000  0.5695780000000 1.0
C      1  0.4842680000000  0.5559840000000  0.4369700000000 1.0
C      1  0.4945840000000  0.5083560000000  0.4438210000000 1.0
C      1  0.4157100000000  0.4716060000000  0.4893670000000 1.0
C      1  0.5172650000000  0.4911390000000  0.4140410000000 1.0
C      1  0.5692110000000  0.4292360000000  0.4901550000000 1.0
C      1  0.5517750000000  0.5453020000000  0.5289080000000 1.0
C      1  0.4663340000000  0.5623320000000  0.5796540000000 1.0
C      1  0.4467940000000  0.4852190000000  0.5634200000000 1.0
C      1  0.5839060000000  0.5160860000000  0.4664170000000 1.0
C      1  0.5822090000000  0.4885130000000  0.4547160000000 1.0
C      1  0.4255110000000  0.5268220000000  0.4698560000000 1.0
C      1  0.4648360000000  0.5638240000000  0.4572100000000 1.0
C      1  0.5405000000000  0.5431530000000  0.5976140000000 1.0
C      1  0.5288410000000  0.5900350000000  0.5179760000000 1.0
C      1  0.4643940000000  0.5794840000000  0.5030350000000 1.0
C      1  0.5654320000000  0.4725700000000  0.5491180000000 1.0
C      1  0.4088940000000  0.4945140000000  0.5052560000000 1.0
C      1  0.4420910000000  0.5530990000000  0.5636100000000 1.0
C      1  0.4390190000000  0.4222230000000  0.5123870000000 1.0
C      1  0.4579950000000  0.4589520000000  0.5064890000000 1.0
C      1  0.5270260000000  0.4867100000000  0.5778290000000 1.0
C      1  0.5731290000000  0.4567470000000  0.5260180000000 1.0
C      1  0.5089030000000  0.4559490000000  0.5346190000000 1.0
END
