TITL C-884140-4336-164 41.1447959684519 125000 -22057.7351182629 0 0 148 (C1) n - 1
REM
REM in /home/nfs/bkarasulu/CARBON/AIRSS/Generating-Clusters/ReaxFF-fromJPCA2015/Units_Real/with-SteepDescent/Only-C1/SD-CG/Try1-3A/FIRE-CG
REM
REM
REM
REM
REM
REM ./C.cell (11c1c37f851c82e70ff6c80c92926a4b)
REM
REM compiler GCC version 9.2.1 20190827 (Red Hat 9.2.1-1)
REM options -cpp -mtune=generic -march=x86-64 -g -O0 -fpre-include=/usr/include/finclude/math-vector-fortran.h
REM seed 1982612585 -2010968044 -1838922466 -766866879 -1809963741 1865910234 1510353050 -518020404 -1248204117 747315028 1189282073 1535058666 1340030633 -1737945292 -640780092 1170289782 1476415607 -487338892 -1736237134 -1548087798 -1665782231 -1230589258 884790769 265223784 -2139301490 -1469066504 -591829108 757489878 1896723859 1556276736 -1862255416 -491633485 -626227940
REM
CELL 1.54180   50.00000   50.00000   50.00000   90.00000   90.00000   90.00000
LATT -1
SFAC C  
C      1  0.5308410000000  0.5691220000000  0.5873380000000 1.0
C      1  0.5210660000000  0.4529360000000  0.4798760000000 1.0
C      1  0.4214770000000  0.4911100000000  0.5667250000000 1.0
C      1  0.5692140000000  0.4626530000000  0.5002050000000 1.0
C      1  0.5743810000000  0.4319790000000  0.5083500000000 1.0
C      1  0.4355480000000  0.4220850000000  0.4799610000000 1.0
C      1  0.4492730000000  0.4700720000000  0.5289320000000 1.0
C      1  0.5684650000000  0.5120240000000  0.5742080000000 1.0
C      1  0.5692030000000  0.4966970000000  0.4081190000000 1.0
C      1  0.5075260000000  0.4943520000000  0.5795120000000 1.0
C      1  0.4274930000000  0.4950930000000  0.4076640000000 1.0
C      1  0.5565800000000  0.4658020000000  0.5640930000000 1.0
C      1  0.5895800000000  0.5429460000000  0.5314090000000 1.0
C      1  0.4119260000000  0.4573750000000  0.5211990000000 1.0
C      1  0.4194830000000  0.5310230000000  0.4661850000000 1.0
C      1  0.4834420000000  0.5765450000000  0.4106690000000 1.0
C      1  0.5358450000000  0.4041980000000  0.5121870000000 1.0
C      1  0.5648560000000  0.4357020000000  0.5614040000000 1.0
C      1  0.6014020000000  0.5218530000000  0.5174070000000 1.0
C      1  0.4484300000000  0.5115610000000  0.3973050000000 1.0
C      1  0.5270450000000  0.4611710000000  0.4024210000000 1.0
C      1  0.5455980000000  0.5455650000000  0.5496590000000 1.0
C      1  0.4439290000000  0.4872860000000  0.5850180000000 1.0
C      1  0.4386780000000  0.5472320000000  0.4476690000000 1.0
C      1  0.4101110000000  0.5148490000000  0.5063620000000 1.0
C      1  0.4786810000000  0.4758740000000  0.4015430000000 1.0
C      1  0.5709230000000  0.4321390000000  0.5353460000000 1.0
C      1  0.5462870000000  0.5193870000000  0.5933490000000 1.0
C      1  0.5069490000000  0.6013730000000  0.4856680000000 1.0
C      1  0.5323300000000  0.5441750000000  0.6004690000000 1.0
C      1  0.5562700000000  0.4028290000000  0.4700160000000 1.0
C      1  0.4930200000000  0.4706580000000  0.5864870000000 1.0
C      1  0.4875140000000  0.5995260000000  0.5065460000000 1.0
C      1  0.4972500000000  0.4526560000000  0.3992340000000 1.0
C      1  0.4067270000000  0.5038830000000  0.4595320000000 1.0
C      1  0.5202120000000  0.4591410000000  0.4335160000000 1.0
C      1  0.5341540000000  0.5959600000000  0.4907010000000 1.0
C      1  0.4793610000000  0.5576700000000  0.5931860000000 1.0
C      1  0.5926020000000  0.5461880000000  0.4689050000000 1.0
C      1  0.5404330000000  0.5784690000000  0.5101970000000 1.0
C      1  0.5449560000000  0.4817550000000  0.3954910000000 1.0
C      1  0.4713660000000  0.4750690000000  0.5457940000000 1.0
C      1  0.4863110000000  0.4493740000000  0.5482560000000 1.0
C      1  0.5462320000000  0.4202780000000  0.4517330000000 1.0
C      1  0.5045990000000  0.5458930000000  0.5024630000000 1.0
C      1  0.4566330000000  0.5376690000000  0.4974170000000 1.0
C      1  0.4637690000000  0.4032430000000  0.5140030000000 1.0
C      1  0.5311600000000  0.4941620000000  0.5957040000000 1.0
C      1  0.5860990000000  0.4805100000000  0.4579910000000 1.0
C      1  0.4641380000000  0.5364430000000  0.4404790000000 1.0
C      1  0.5751290000000  0.5261600000000  0.4138360000000 1.0
C      1  0.4312390000000  0.5100510000000  0.5248050000000 1.0
C      1  0.4406880000000  0.5716510000000  0.4633970000000 1.0
C      1  0.4094000000000  0.5147360000000  0.5694360000000 1.0
C      1  0.4274590000000  0.4355670000000  0.5275910000000 1.0
C      1  0.4909040000000  0.5581970000000  0.5246020000000 1.0
C      1  0.5058100000000  0.3957830000000  0.4748900000000 1.0
C      1  0.5496610000000  0.5124650000000  0.4929110000000 1.0
C      1  0.4594020000000  0.5215210000000  0.5235890000000 1.0
C      1  0.4722050000000  0.5241280000000  0.4133010000000 1.0
C      1  0.4859340000000  0.5486500000000  0.4004040000000 1.0
C      1  0.5922990000000  0.4962780000000  0.5310370000000 1.0
C      1  0.5486100000000  0.5377870000000  0.4865790000000 1.0
C      1  0.5379110000000  0.4662480000000  0.5884220000000 1.0
C      1  0.5103050000000  0.4894130000000  0.4349190000000 1.0
C      1  0.4472900000000  0.4170710000000  0.5342440000000 1.0
C      1  0.5307300000000  0.5809240000000  0.4476040000000 1.0
C      1  0.4589490000000  0.4667120000000  0.5008720000000 1.0
C      1  0.4930350000000  0.5294040000000  0.4816270000000 1.0
C      1  0.4797660000000  0.4226420000000  0.4407950000000 1.0
C      1  0.4204940000000  0.5782550000000  0.4824510000000 1.0
C      1  0.4579600000000  0.5097790000000  0.5895770000000 1.0
C      1  0.4577590000000  0.4053210000000  0.4845120000000 1.0
C      1  0.5250520000000  0.5564180000000  0.4327950000000 1.0
C      1  0.4043000000000  0.4922510000000  0.4861070000000 1.0
C      1  0.4204820000000  0.4913700000000  0.4367580000000 1.0
C      1  0.5142860000000  0.5347280000000  0.4481820000000 1.0
C      1  0.4338670000000  0.4515630000000  0.4507380000000 1.0
C      1  0.4085700000000  0.5417980000000  0.4962300000000 1.0
C      1  0.5590750000000  0.4097550000000  0.4969860000000 1.0
C      1  0.5305330000000  0.3977740000000  0.4590830000000 1.0
C      1  0.5067510000000  0.5964050000000  0.4558260000000 1.0
C      1  0.5767270000000  0.4913450000000  0.5559550000000 1.0
C      1  0.4720640000000  0.5432220000000  0.5395800000000 1.0
C      1  0.5713210000000  0.5524920000000  0.5427130000000 1.0
C      1  0.5351360000000  0.4663390000000  0.5416200000000 1.0
C      1  0.4913570000000  0.5887460000000  0.4341100000000 1.0
C      1  0.4900680000000  0.3997080000000  0.5252880000000 1.0
C      1  0.4824600000000  0.5972140000000  0.5603080000000 1.0
C      1  0.5098150000000  0.3951490000000  0.5041400000000 1.0
C      1  0.5620590000000  0.4680700000000  0.4701630000000 1.0
C      1  0.6004180000000  0.5235930000000  0.4871190000000 1.0
C      1  0.4263290000000  0.4844410000000  0.5367190000000 1.0
C      1  0.4750030000000  0.5306720000000  0.5869550000000 1.0
C      1  0.5104640000000  0.5610210000000  0.4078710000000 1.0
C      1  0.5745730000000  0.5403050000000  0.4401670000000 1.0
C      1  0.4690400000000  0.4460320000000  0.4800130000000 1.0
C      1  0.4973290000000  0.5876270000000  0.5330930000000 1.0
C      1  0.5299370000000  0.5246750000000  0.5362530000000 1.0
C      1  0.4875930000000  0.5330290000000  0.5617580000000 1.0
C      1  0.5485470000000  0.4773910000000  0.5191980000000 1.0
C      1  0.5789410000000  0.4892180000000  0.4327410000000 1.0
C      1  0.4956380000000  0.4435960000000  0.4900900000000 1.0
C      1  0.5132890000000  0.4469460000000  0.5352960000000 1.0
C      1  0.4655340000000  0.5780450000000  0.5742250000000 1.0
C      1  0.4699300000000  0.4256510000000  0.5534840000000 1.0
C      1  0.5503340000000  0.5839670000000  0.4700660000000 1.0
C      1  0.4881350000000  0.4633040000000  0.5100050000000 1.0
C      1  0.4399320000000  0.5797250000000  0.5247070000000 1.0
C      1  0.5074240000000  0.5590920000000  0.5992160000000 1.0
C      1  0.4807040000000  0.4048790000000  0.4643670000000 1.0
C      1  0.4609670000000  0.5879780000000  0.5048620000000 1.0
C      1  0.5407690000000  0.4944330000000  0.4730620000000 1.0
C      1  0.4414180000000  0.4797240000000  0.4527470000000 1.0
C      1  0.5295830000000  0.5887040000000  0.5382460000000 1.0
C      1  0.4072710000000  0.4642020000000  0.4928720000000 1.0
C      1  0.4852350000000  0.5003740000000  0.5319980000000 1.0
C      1  0.5410800000000  0.4175550000000  0.5615140000000 1.0
C      1  0.4507880000000  0.4832710000000  0.3933330000000 1.0
C      1  0.5294220000000  0.4212180000000  0.5347690000000 1.0
C      1  0.5049990000000  0.5119990000000  0.5514220000000 1.0
C      1  0.4895210000000  0.4965550000000  0.4176460000000 1.0
C      1  0.5928120000000  0.4818280000000  0.5061960000000 1.0
C      1  0.4992650000000  0.4380020000000  0.4244500000000 1.0
C      1  0.5255590000000  0.5086780000000  0.4486410000000 1.0
C      1  0.5535060000000  0.5364510000000  0.4579230000000 1.0
C      1  0.5753890000000  0.5683780000000  0.4721010000000 1.0
C      1  0.4982390000000  0.4890690000000  0.5040620000000 1.0
C      1  0.4172750000000  0.4425360000000  0.4742280000000 1.0
C      1  0.4593330000000  0.5648050000000  0.4866440000000 1.0
C      1  0.3983030000000  0.5364450000000  0.5719260000000 1.0
C      1  0.5325930000000  0.5510200000000  0.5057530000000 1.0
C      1  0.4153820000000  0.5676100000000  0.5081960000000 1.0
C      1  0.4432160000000  0.5196340000000  0.4808530000000 1.0
C      1  0.4620720000000  0.4427320000000  0.4528480000000 1.0
C      1  0.4937700000000  0.4096510000000  0.5545460000000 1.0
C      1  0.4837610000000  0.5030930000000  0.4837640000000 1.0
C      1  0.4564550000000  0.4933100000000  0.4775040000000 1.0
C      1  0.4883650000000  0.5396210000000  0.4564810000000 1.0
C      1  0.5987810000000  0.4957860000000  0.4812910000000 1.0
C      1  0.5143060000000  0.4222760000000  0.5733010000000 1.0
C      1  0.5405000000000  0.4479960000000  0.4567280000000 1.0
C      1  0.5214610000000  0.4788080000000  0.4881850000000 1.0
C      1  0.5403690000000  0.5699550000000  0.5615680000000 1.0
C      1  0.4484140000000  0.5768060000000  0.5506230000000 1.0
C      1  0.5141630000000  0.4493490000000  0.5861080000000 1.0
C      1  0.4657110000000  0.4723140000000  0.5751380000000 1.0
C      1  0.5446260000000  0.5059780000000  0.5192410000000 1.0
END
