TITL C-883735-9890-77 8.34242164562189 125000 -10009.6117518846 0 0 68 (C1) n - 1
REM
REM in /home/nfs/bkarasulu/CARBON/AIRSS/Generating-Clusters/ReaxFF-fromJPCA2015/Units_Real/with-SteepDescent/Only-C1/SD-CG/Try1-3A/FIRE-CG
REM
REM
REM
REM
REM
REM ./C.cell (11c1c37f851c82e70ff6c80c92926a4b)
REM
REM compiler GCC version 9.2.1 20190827 (Red Hat 9.2.1-1)
REM options -cpp -mtune=generic -march=x86-64 -g -O0 -fpre-include=/usr/include/finclude/math-vector-fortran.h
REM seed 432213755 -600637227 1683155867 -756703511 1003488565 -1217860943 1566740912 714151561 -369551383 342280888 2023696777 -82618269 1328514586 546793538 -101308296 -2070864568 199818875 987532988 -776611550 1543041425 -730990660 -375111820 1325183284 1325754055 -743334131 1720285675 973536980 769058609 -548697203 899806390 899108541 78037641 -1242909940
REM
CELL 1.54180   50.00000   50.00000   50.00000   90.00000   90.00000   90.00000
LATT -1
SFAC C  
C      1  0.4671580000000  0.5716860000000  0.5154600000000 1.0
C      1  0.5044140000000  0.5008540000000  0.4249860000000 1.0
C      1  0.4632680000000  0.4373890000000  0.4847910000000 1.0
C      1  0.4996590000000  0.5346150000000  0.5654140000000 1.0
C      1  0.4098170000000  0.5098710000000  0.4970700000000 1.0
C      1  0.5456980000000  0.5493670000000  0.5554910000000 1.0
C      1  0.4470200000000  0.5830850000000  0.5034690000000 1.0
C      1  0.5097920000000  0.4195680000000  0.5020670000000 1.0
C      1  0.5780870000000  0.4841890000000  0.4883150000000 1.0
C      1  0.5074770000000  0.4713840000000  0.4307580000000 1.0
C      1  0.4362960000000  0.4629400000000  0.4539180000000 1.0
C      1  0.4767900000000  0.5055280000000  0.4158100000000 1.0
C      1  0.4546880000000  0.5316250000000  0.4813340000000 1.0
C      1  0.5519270000000  0.5208150000000  0.5526560000000 1.0
C      1  0.5287380000000  0.4291680000000  0.5233400000000 1.0
C      1  0.5542910000000  0.5169620000000  0.5223580000000 1.0
C      1  0.5006100000000  0.5478630000000  0.4524010000000 1.0
C      1  0.4552320000000  0.5438320000000  0.5117810000000 1.0
C      1  0.4983480000000  0.5100610000000  0.4708450000000 1.0
C      1  0.4159240000000  0.4974720000000  0.5239400000000 1.0
C      1  0.4681570000000  0.4566720000000  0.5536110000000 1.0
C      1  0.5495140000000  0.5263430000000  0.4714830000000 1.0
C      1  0.5494430000000  0.4459820000000  0.5118830000000 1.0
C      1  0.4634570000000  0.4792010000000  0.4208930000000 1.0
C      1  0.4618500000000  0.4495530000000  0.4565920000000 1.0
C      1  0.5609730000000  0.4669710000000  0.5288680000000 1.0
C      1  0.4581990000000  0.4714620000000  0.5280940000000 1.0
C      1  0.4772530000000  0.5145140000000  0.4825190000000 1.0
C      1  0.5181220000000  0.5727130000000  0.5332840000000 1.0
C      1  0.4937320000000  0.4647880000000  0.4907950000000 1.0
C      1  0.4572530000000  0.5251510000000  0.5329340000000 1.0
C      1  0.5501490000000  0.5006630000000  0.4612080000000 1.0
C      1  0.4361650000000  0.4809050000000  0.4310900000000 1.0
C      1  0.4705470000000  0.5444820000000  0.4548020000000 1.0
C      1  0.5185180000000  0.5630320000000  0.4700690000000 1.0
C      1  0.4681490000000  0.5107020000000  0.5789340000000 1.0
C      1  0.5750750000000  0.4815620000000  0.4604370000000 1.0
C      1  0.5216670000000  0.4435830000000  0.5482090000000 1.0
C      1  0.4701140000000  0.5313210000000  0.5596830000000 1.0
C      1  0.5078070000000  0.4891570000000  0.4862370000000 1.0
C      1  0.5104740000000  0.5211820000000  0.4449550000000 1.0
C      1  0.5125660000000  0.4435320000000  0.4854720000000 1.0
C      1  0.4880830000000  0.4931140000000  0.5890810000000 1.0
C      1  0.4808040000000  0.4161170000000  0.4961420000000 1.0
C      1  0.5391470000000  0.4548990000000  0.4855560000000 1.0
C      1  0.5715480000000  0.4901630000000  0.5145860000000 1.0
C      1  0.5586600000000  0.4648930000000  0.4439520000000 1.0
C      1  0.5468620000000  0.5635890000000  0.5294930000000 1.0
C      1  0.5545290000000  0.5444730000000  0.5090770000000 1.0
C      1  0.5338380000000  0.4823520000000  0.4780100000000 1.0
C      1  0.5172470000000  0.5571120000000  0.5585050000000 1.0
C      1  0.5077200000000  0.5853950000000  0.4864860000000 1.0
C      1  0.5111440000000  0.5095260000000  0.5758030000000 1.0
C      1  0.5219580000000  0.4827530000000  0.5328470000000 1.0
C      1  0.5454010000000  0.5507640000000  0.4809340000000 1.0
C      1  0.4797020000000  0.4605700000000  0.4359480000000 1.0
C      1  0.4699060000000  0.5275100000000  0.4324260000000 1.0
C      1  0.4948860000000  0.4475760000000  0.5520200000000 1.0
C      1  0.5341870000000  0.4640400000000  0.4359080000000 1.0
C      1  0.4449930000000  0.4974360000000  0.5306460000000 1.0
C      1  0.5406200000000  0.4705930000000  0.5516780000000 1.0
C      1  0.4669980000000  0.4617730000000  0.5020730000000 1.0
C      1  0.4294660000000  0.5129990000000  0.4754420000000 1.0
C      1  0.5226770000000  0.5068670000000  0.5193640000000 1.0
C      1  0.4982550000000  0.5809430000000  0.5143740000000 1.0
C      1  0.4260900000000  0.4912750000000  0.4567670000000 1.0
C      1  0.4736100000000  0.4711850000000  0.5777770000000 1.0
C      1  0.5372530000000  0.5003400000000  0.5668480000000 1.0
END
