TITL C-884135-4325-273 109.559118544881 125000 -24038.7027632851 0 0 164 (C1) n - 1
REM
REM in /home/nfs/bkarasulu/CARBON/AIRSS/Generating-Clusters/ReaxFF-fromJPCA2015/Units_Real/with-SteepDescent/Only-C1/SD-CG/Try1-3A/FIRE-CG
REM
REM
REM
REM
REM
REM ./C.cell (11c1c37f851c82e70ff6c80c92926a4b)
REM
REM compiler GCC version 9.2.1 20190827 (Red Hat 9.2.1-1)
REM options -cpp -mtune=generic -march=x86-64 -g -O0 -fpre-include=/usr/include/finclude/math-vector-fortran.h
REM seed -2023063777 -313551248 977446732 -259950954 -1926407509 -576088773 1623754454 550804311 283723066 -172063740 -739876794 800117550 271520892 1814036777 697399554 1714781624 -1328224518 2089472872 1979678719 853993870 1849823496 -1898343916 1451546181 -1743316593 409774860 -389073297 906902322 1233560234 1261212199 -632010576 -1565669229 -2023890701 1781263195
REM
CELL 1.54180   50.00000   50.00000   50.00000   90.00000   90.00000   90.00000
LATT -1
SFAC C  
C      1  0.5031990000000  0.4027590000000  0.4627090000000 1.0
C      1  0.5374260000000  0.4615340000000  0.4105500000000 1.0
C      1  0.4674400000000  0.4158720000000  0.5024850000000 1.0
C      1  0.5541150000000  0.4852610000000  0.4146510000000 1.0
C      1  0.4588200000000  0.4588180000000  0.5302300000000 1.0
C      1  0.5900300000000  0.4649500000000  0.5524270000000 1.0
C      1  0.5732120000000  0.5061650000000  0.4900530000000 1.0
C      1  0.5638450000000  0.5056550000000  0.5182130000000 1.0
C      1  0.5363450000000  0.4367850000000  0.4498920000000 1.0
C      1  0.4363790000000  0.5762050000000  0.5377020000000 1.0
C      1  0.5298500000000  0.4411450000000  0.4933040000000 1.0
C      1  0.5447420000000  0.4301750000000  0.5859160000000 1.0
C      1  0.5185120000000  0.4786820000000  0.5761650000000 1.0
C      1  0.5438610000000  0.5429400000000  0.4903940000000 1.0
C      1  0.4803980000000  0.4731190000000  0.6066370000000 1.0
C      1  0.5372280000000  0.5086850000000  0.4079550000000 1.0
C      1  0.4422370000000  0.4057570000000  0.5155750000000 1.0
C      1  0.5273300000000  0.5918410000000  0.4487250000000 1.0
C      1  0.4559090000000  0.4134550000000  0.4752340000000 1.0
C      1  0.4001500000000  0.5187770000000  0.5087260000000 1.0
C      1  0.5508900000000  0.5179760000000  0.5746980000000 1.0
C      1  0.5637430000000  0.4231530000000  0.5225090000000 1.0
C      1  0.4098880000000  0.4468890000000  0.5146610000000 1.0
C      1  0.4281560000000  0.4977670000000  0.5741390000000 1.0
C      1  0.5642710000000  0.4520010000000  0.4529390000000 1.0
C      1  0.4429850000000  0.5632410000000  0.4631460000000 1.0
C      1  0.5674670000000  0.4575600000000  0.4812000000000 1.0
C      1  0.4311890000000  0.4445070000000  0.4413060000000 1.0
C      1  0.4656720000000  0.5520350000000  0.5234930000000 1.0
C      1  0.4961290000000  0.4643280000000  0.4085370000000 1.0
C      1  0.4656650000000  0.5466760000000  0.4719140000000 1.0
C      1  0.4490380000000  0.5381430000000  0.4041770000000 1.0
C      1  0.4169270000000  0.5267390000000  0.4885760000000 1.0
C      1  0.4393420000000  0.4790060000000  0.5893400000000 1.0
C      1  0.6063110000000  0.4827350000000  0.5008920000000 1.0
C      1  0.5094110000000  0.5050460000000  0.5140920000000 1.0
C      1  0.4092600000000  0.5205360000000  0.4498700000000 1.0
C      1  0.4767740000000  0.4067250000000  0.4545420000000 1.0
C      1  0.5309970000000  0.5480110000000  0.5164110000000 1.0
C      1  0.4761800000000  0.4217430000000  0.4287980000000 1.0
C      1  0.5435260000000  0.4659560000000  0.5268690000000 1.0
C      1  0.5783340000000  0.5760060000000  0.4931240000000 1.0
C      1  0.4477370000000  0.4422790000000  0.5513860000000 1.0
C      1  0.4953730000000  0.4130330000000  0.5469830000000 1.0
C      1  0.4413350000000  0.5572550000000  0.5797720000000 1.0
C      1  0.4987470000000  0.4726140000000  0.4721580000000 1.0
C      1  0.5191880000000  0.4510780000000  0.4711350000000 1.0
C      1  0.6094140000000  0.5052740000000  0.5205480000000 1.0
C      1  0.4659090000000  0.5489550000000  0.5939910000000 1.0
C      1  0.4748510000000  0.5531730000000  0.4006670000000 1.0
C      1  0.5723780000000  0.4744460000000  0.4368590000000 1.0
C      1  0.5345970000000  0.5015390000000  0.4650810000000 1.0
C      1  0.5818420000000  0.5455210000000  0.5401900000000 1.0
C      1  0.4603710000000  0.5813190000000  0.4496080000000 1.0
C      1  0.4963010000000  0.5943810000000  0.4331290000000 1.0
C      1  0.5444220000000  0.6040280000000  0.4737950000000 1.0
C      1  0.4663300000000  0.5758350000000  0.5425880000000 1.0
C      1  0.4998650000000  0.5200830000000  0.4402730000000 1.0
C      1  0.4169760000000  0.5165220000000  0.5589420000000 1.0
C      1  0.4921770000000  0.4257290000000  0.5860050000000 1.0
C      1  0.5175670000000  0.4316510000000  0.6000960000000 1.0
C      1  0.4523320000000  0.4602610000000  0.4087860000000 1.0
C      1  0.5660650000000  0.4921790000000  0.5924950000000 1.0
C      1  0.4170580000000  0.4184740000000  0.5230210000000 1.0
C      1  0.5053520000000  0.5055420000000  0.5442700000000 1.0
C      1  0.4737190000000  0.5246680000000  0.4543600000000 1.0
C      1  0.4842690000000  0.4725800000000  0.5375620000000 1.0
C      1  0.4992280000000  0.5751830000000  0.4860190000000 1.0
C      1  0.4355400000000  0.5524930000000  0.5201050000000 1.0
C      1  0.5864770000000  0.5141180000000  0.4411200000000 1.0
C      1  0.5927950000000  0.5506910000000  0.4962450000000 1.0
C      1  0.4864050000000  0.4891500000000  0.3999620000000 1.0
C      1  0.5287830000000  0.4067050000000  0.4624450000000 1.0
C      1  0.5076700000000  0.5679830000000  0.5606280000000 1.0
C      1  0.5141060000000  0.5674740000000  0.5324050000000 1.0
C      1  0.4540690000000  0.5047250000000  0.4596880000000 1.0
C      1  0.4573900000000  0.4764070000000  0.4565810000000 1.0
C      1  0.5046820000000  0.5120600000000  0.4080070000000 1.0
C      1  0.5408970000000  0.4898440000000  0.5122700000000 1.0
C      1  0.5438960000000  0.5439870000000  0.5852960000000 1.0
C      1  0.4492660000000  0.4516290000000  0.5795460000000 1.0
C      1  0.3790370000000  0.5084780000000  0.4918070000000 1.0
C      1  0.5266230000000  0.4371850000000  0.4219120000000 1.0
C      1  0.5670430000000  0.5874160000000  0.4673740000000 1.0
C      1  0.4470210000000  0.5052710000000  0.5267260000000 1.0
C      1  0.3875780000000  0.4849990000000  0.4760500000000 1.0
C      1  0.4957840000000  0.4584750000000  0.5162720000000 1.0
C      1  0.5494670000000  0.5671110000000  0.5675050000000 1.0
C      1  0.4607320000000  0.4945840000000  0.6039920000000 1.0
C      1  0.4982140000000  0.4351730000000  0.4159620000000 1.0
C      1  0.5057090000000  0.4868030000000  0.6038740000000 1.0
C      1  0.4882650000000  0.4924250000000  0.4966930000000 1.0
C      1  0.4326000000000  0.4740610000000  0.4429980000000 1.0
C      1  0.5259910000000  0.5041210000000  0.5630310000000 1.0
C      1  0.5994990000000  0.4962830000000  0.4763810000000 1.0
C      1  0.4344890000000  0.5490630000000  0.4248070000000 1.0
C      1  0.5202230000000  0.3987730000000  0.5161240000000 1.0
C      1  0.5785120000000  0.4761590000000  0.5750630000000 1.0
C      1  0.4199520000000  0.5488640000000  0.4479060000000 1.0
C      1  0.4600040000000  0.5283910000000  0.5415730000000 1.0
C      1  0.5440530000000  0.4065980000000  0.5360190000000 1.0
C      1  0.4210100000000  0.4511480000000  0.4864820000000 1.0
C      1  0.5318540000000  0.4555490000000  0.5949970000000 1.0
C      1  0.5964330000000  0.4890550000000  0.4478290000000 1.0
C      1  0.5446970000000  0.4182260000000  0.5605690000000 1.0
C      1  0.5255820000000  0.5515750000000  0.3899750000000 1.0
C      1  0.5735810000000  0.5257160000000  0.5589990000000 1.0
C      1  0.5073850000000  0.5343460000000  0.5071610000000 1.0
C      1  0.4152750000000  0.4788140000000  0.4807240000000 1.0
C      1  0.4798430000000  0.5800600000000  0.4126620000000 1.0
C      1  0.6000510000000  0.5341770000000  0.5190550000000 1.0
C      1  0.5537280000000  0.5788580000000  0.4422990000000 1.0
C      1  0.4375680000000  0.4157280000000  0.5430390000000 1.0
C      1  0.4865740000000  0.5221430000000  0.5543600000000 1.0
C      1  0.5058720000000  0.5395650000000  0.5683030000000 1.0
C      1  0.5597550000000  0.5834380000000  0.5144500000000 1.0
C      1  0.5531640000000  0.4217750000000  0.4955860000000 1.0
C      1  0.5139940000000  0.5689870000000  0.4627560000000 1.0
C      1  0.5870110000000  0.4603670000000  0.5025300000000 1.0
C      1  0.6040480000000  0.4899630000000  0.5449710000000 1.0
C      1  0.5019200000000  0.5155200000000  0.6071400000000 1.0
C      1  0.5080190000000  0.5971920000000  0.5031890000000 1.0
C      1  0.4717680000000  0.4492020000000  0.5035440000000 1.0
C      1  0.5178840000000  0.5376010000000  0.5955070000000 1.0
C      1  0.5203320000000  0.5424890000000  0.4505210000000 1.0
C      1  0.4505220000000  0.4348960000000  0.4202900000000 1.0
C      1  0.4953910000000  0.5883220000000  0.5276500000000 1.0
C      1  0.4345140000000  0.4323320000000  0.4680290000000 1.0
C      1  0.4235550000000  0.5005430000000  0.4317040000000 1.0
C      1  0.4726170000000  0.4465690000000  0.5947930000000 1.0
C      1  0.4606520000000  0.4976590000000  0.5032080000000 1.0
C      1  0.4570860000000  0.4863940000000  0.3991200000000 1.0
C      1  0.5002580000000  0.4640670000000  0.5592240000000 1.0
C      1  0.5740530000000  0.5369320000000  0.4491760000000 1.0
C      1  0.4173200000000  0.5534520000000  0.4960030000000 1.0
C      1  0.4998180000000  0.4357540000000  0.5616300000000 1.0
C      1  0.5762820000000  0.5015980000000  0.5437030000000 1.0
C      1  0.4160480000000  0.5008820000000  0.5296730000000 1.0
C      1  0.5617620000000  0.5666570000000  0.5388230000000 1.0
C      1  0.4926680000000  0.4034010000000  0.5212550000000 1.0
C      1  0.4211750000000  0.5764950000000  0.5132550000000 1.0
C      1  0.5283570000000  0.5868770000000  0.5737310000000 1.0
C      1  0.4737300000000  0.4607890000000  0.4746670000000 1.0
C      1  0.5380740000000  0.5996160000000  0.5016350000000 1.0
C      1  0.4089310000000  0.4708620000000  0.5295070000000 1.0
C      1  0.5298280000000  0.5278880000000  0.4721310000000 1.0
C      1  0.5212470000000  0.4508030000000  0.5175150000000 1.0
C      1  0.5712130000000  0.4532690000000  0.5282490000000 1.0
C      1  0.4336580000000  0.5404540000000  0.5574330000000 1.0
C      1  0.5166740000000  0.4762510000000  0.4238210000000 1.0
C      1  0.5708360000000  0.5358760000000  0.4811370000000 1.0
C      1  0.4405750000000  0.5094880000000  0.4103120000000 1.0
C      1  0.5511560000000  0.5498260000000  0.4346400000000 1.0
C      1  0.4669450000000  0.5692700000000  0.5725540000000 1.0
C      1  0.4820350000000  0.5762590000000  0.4407590000000 1.0
C      1  0.5114410000000  0.4921980000000  0.4490170000000 1.0
C      1  0.5342980000000  0.3988390000000  0.4899870000000 1.0
C      1  0.4347670000000  0.5037580000000  0.4824740000000 1.0
C      1  0.4986200000000  0.5384160000000  0.3938830000000 1.0
C      1  0.4832800000000  0.5506090000000  0.4978660000000 1.0
C      1  0.4736040000000  0.5210820000000  0.6020260000000 1.0
C      1  0.3843960000000  0.5113130000000  0.4632160000000 1.0
C      1  0.5451740000000  0.5364200000000  0.4065980000000 1.0
C      1  0.5507310000000  0.4859350000000  0.4837940000000 1.0
END
