TITL C-883727-9645-153 4.79334982997439 125000 -8862.31987737662 0 0 61 (C1) n - 1
REM
REM in /home/nfs/bkarasulu/CARBON/AIRSS/Generating-Clusters/ReaxFF-fromJPCA2015/Units_Real/with-SteepDescent/Only-C1/SD-CG/Try1-3A/FIRE-CG
REM
REM
REM
REM
REM
REM ./C.cell (11c1c37f851c82e70ff6c80c92926a4b)
REM
REM compiler GCC version 9.2.1 20190827 (Red Hat 9.2.1-1)
REM options -cpp -mtune=generic -march=x86-64 -g -O0 -fpre-include=/usr/include/finclude/math-vector-fortran.h
REM seed -129117415 -919797186 -1650113149 62184436 -1740221960 -1289196745 -889402076 2075651180 -1018050287 1504688299 -138067551 1059274663 -15994994 -1423278765 -1934163242 852875074 -1476310560 -850138403 991564292 1442185986 -1552913739 -1958717758 -1339075048 353151185 1270366429 -1980812159 -290780309 -1439234283 1833716068 556663604 -1785291391 -1824045604 -212775128
REM
CELL 1.54180   50.00000   50.00000   50.00000   90.00000   90.00000   90.00000
LATT -1
SFAC C  
C      1  0.5766660000000  0.4792490000000  0.5165770000000 1.0
C      1  0.4689440000000  0.4277830000000  0.5131360000000 1.0
C      1  0.4831060000000  0.5662450000000  0.4973080000000 1.0
C      1  0.5182690000000  0.4390660000000  0.5247460000000 1.0
C      1  0.5581390000000  0.5144490000000  0.4923020000000 1.0
C      1  0.5106940000000  0.4301170000000  0.4844540000000 1.0
C      1  0.4972430000000  0.4470350000000  0.4644280000000 1.0
C      1  0.4363470000000  0.4718890000000  0.5282510000000 1.0
C      1  0.4697530000000  0.4546370000000  0.4710350000000 1.0
C      1  0.4572270000000  0.4430490000000  0.4946210000000 1.0
C      1  0.4549150000000  0.5170700000000  0.5325100000000 1.0
C      1  0.5264640000000  0.4951000000000  0.4420250000000 1.0
C      1  0.4890110000000  0.5482710000000  0.5452100000000 1.0
C      1  0.5604920000000  0.4783990000000  0.5387660000000 1.0
C      1  0.4257740000000  0.4851930000000  0.5030130000000 1.0
C      1  0.4550920000000  0.4764670000000  0.4582460000000 1.0
C      1  0.4490770000000  0.5128490000000  0.5614300000000 1.0
C      1  0.4975250000000  0.4243050000000  0.5100140000000 1.0
C      1  0.4827760000000  0.5087780000000  0.4976640000000 1.0
C      1  0.5415530000000  0.4750310000000  0.5518740000000 1.0
C      1  0.5375540000000  0.5248350000000  0.5476530000000 1.0
C      1  0.4398210000000  0.4853420000000  0.5547540000000 1.0
C      1  0.4560770000000  0.4516260000000  0.5219340000000 1.0
C      1  0.4733600000000  0.5339670000000  0.5662750000000 1.0
C      1  0.5110420000000  0.5618730000000  0.4892780000000 1.0
C      1  0.5083200000000  0.5042340000000  0.4838990000000 1.0
C      1  0.5047090000000  0.4929400000000  0.5687020000000 1.0
C      1  0.4393040000000  0.4817100000000  0.4803460000000 1.0
C      1  0.5158560000000  0.4626810000000  0.4463280000000 1.0
C      1  0.4664540000000  0.5251210000000  0.4792490000000 1.0
C      1  0.4893330000000  0.4961800000000  0.4216470000000 1.0
C      1  0.5763420000000  0.5088290000000  0.5148590000000 1.0
C      1  0.4734360000000  0.5597250000000  0.5233160000000 1.0
C      1  0.5579480000000  0.5548290000000  0.5161550000000 1.0
C      1  0.5706370000000  0.5078700000000  0.4661550000000 1.0
C      1  0.5154820000000  0.4636230000000  0.5400860000000 1.0
C      1  0.5284510000000  0.5567500000000  0.5140430000000 1.0
C      1  0.5339180000000  0.4421030000000  0.4992180000000 1.0
C      1  0.4941700000000  0.4828360000000  0.5424340000000 1.0
C      1  0.4103410000000  0.5135810000000  0.5023280000000 1.0
C      1  0.5565250000000  0.4929370000000  0.4458880000000 1.0
C      1  0.5626170000000  0.5292340000000  0.5320300000000 1.0
C      1  0.5096340000000  0.5211190000000  0.4605310000000 1.0
C      1  0.4678760000000  0.4976590000000  0.4400060000000 1.0
C      1  0.4476550000000  0.5449670000000  0.5242450000000 1.0
C      1  0.5403710000000  0.4698040000000  0.4914070000000 1.0
C      1  0.4670150000000  0.5780250000000  0.4288850000000 1.0
C      1  0.5339300000000  0.4978470000000  0.4962890000000 1.0
C      1  0.4865370000000  0.5126310000000  0.5761140000000 1.0
C      1  0.5165580000000  0.5438090000000  0.4761150000000 1.0
C      1  0.4658920000000  0.5547590000000  0.4761190000000 1.0
C      1  0.4665030000000  0.5674180000000  0.4504170000000 1.0
C      1  0.4780260000000  0.5005160000000  0.5245400000000 1.0
C      1  0.5171640000000  0.5436230000000  0.5387630000000 1.0
C      1  0.5741000000000  0.4787220000000  0.4649390000000 1.0
C      1  0.4259400000000  0.5351660000000  0.5103160000000 1.0
C      1  0.5689050000000  0.4650960000000  0.4908310000000 1.0
C      1  0.4786480000000  0.5211510000000  0.4534440000000 1.0
C      1  0.5147690000000  0.4970990000000  0.4154960000000 1.0
C      1  0.5259020000000  0.4428560000000  0.4347020000000 1.0
C      1  0.5338130000000  0.4999280000000  0.5626530000000 1.0
END
