TITL C-884140-4336-111 85.727565352161 125000 -28606.9405472709 0 0 194 (C1) n - 1
REM
REM in /home/nfs/bkarasulu/CARBON/AIRSS/Generating-Clusters/ReaxFF-fromJPCA2015/Units_Real/with-SteepDescent/Only-C1/SD-CG/Try1-3A/FIRE-CG
REM
REM
REM
REM
REM
REM ./C.cell (11c1c37f851c82e70ff6c80c92926a4b)
REM
REM compiler GCC version 9.2.1 20190827 (Red Hat 9.2.1-1)
REM options -cpp -mtune=generic -march=x86-64 -g -O0 -fpre-include=/usr/include/finclude/math-vector-fortran.h
REM seed 395952716 1411006593 -521842559 59288004 1360219869 1685598657 -543120564 -855984672 1741154603 -1395272396 -2042931212 1453107836 1279173270 2109696539 796605206 595973730 1828570428 -993748651 1570030009 23872323 1569457215 -1525922766 1131586396 1564282745 1108614589 779719379 -620424278 -48865253 -369219683 2050975845 -1800526022 -1779885864 1815763525
REM
CELL 1.54180   50.00000   50.00000   50.00000   90.00000   90.00000   90.00000
LATT -1
SFAC C  
C      1  0.5472250000000  0.4791770000000  0.5442590000000 1.0
C      1  0.4820650000000  0.4625260000000  0.4392960000000 1.0
C      1  0.4530110000000  0.4843430000000  0.3827620000000 1.0
C      1  0.4766930000000  0.4533360000000  0.5596620000000 1.0
C      1  0.4434630000000  0.5630770000000  0.4294310000000 1.0
C      1  0.4631480000000  0.4695560000000  0.6025230000000 1.0
C      1  0.4419710000000  0.4571650000000  0.5870430000000 1.0
C      1  0.4509620000000  0.3871920000000  0.5318550000000 1.0
C      1  0.5087320000000  0.4449770000000  0.4929700000000 1.0
C      1  0.5032740000000  0.4887460000000  0.5068070000000 1.0
C      1  0.4565940000000  0.4992170000000  0.5392360000000 1.0
C      1  0.4770810000000  0.5504320000000  0.5394090000000 1.0
C      1  0.4785760000000  0.3855020000000  0.5321040000000 1.0
C      1  0.5108920000000  0.4610120000000  0.6008570000000 1.0
C      1  0.5656060000000  0.5264500000000  0.5300640000000 1.0
C      1  0.4005290000000  0.4595760000000  0.5047200000000 1.0
C      1  0.5294480000000  0.4843910000000  0.3937640000000 1.0
C      1  0.4710980000000  0.4819840000000  0.5569510000000 1.0
C      1  0.4570170000000  0.4613350000000  0.4242920000000 1.0
C      1  0.4004070000000  0.5251330000000  0.4590370000000 1.0
C      1  0.4365710000000  0.4329050000000  0.5312470000000 1.0
C      1  0.4815430000000  0.5587990000000  0.5960900000000 1.0
C      1  0.4354000000000  0.4061610000000  0.4879630000000 1.0
C      1  0.4619000000000  0.4129150000000  0.5760150000000 1.0
C      1  0.4373680000000  0.4063460000000  0.5165990000000 1.0
C      1  0.5309630000000  0.5513410000000  0.5500600000000 1.0
C      1  0.6039030000000  0.4754530000000  0.5440450000000 1.0
C      1  0.4689440000000  0.5589740000000  0.4146670000000 1.0
C      1  0.5669760000000  0.4721470000000  0.4964260000000 1.0
C      1  0.4439830000000  0.5928650000000  0.5414320000000 1.0
C      1  0.5313920000000  0.4946400000000  0.4981070000000 1.0
C      1  0.4042020000000  0.5473590000000  0.4781330000000 1.0
C      1  0.5518220000000  0.5940710000000  0.4539840000000 1.0
C      1  0.6060410000000  0.5051770000000  0.4895370000000 1.0
C      1  0.4376020000000  0.5597850000000  0.5740570000000 1.0
C      1  0.5703010000000  0.5815230000000  0.4925230000000 1.0
C      1  0.5531430000000  0.5251960000000  0.5887540000000 1.0
C      1  0.5490990000000  0.4028470000000  0.5268690000000 1.0
C      1  0.5995730000000  0.5031140000000  0.5535180000000 1.0
C      1  0.5301530000000  0.4384480000000  0.5117770000000 1.0
C      1  0.4946180000000  0.5388300000000  0.4755160000000 1.0
C      1  0.4556840000000  0.5849730000000  0.5126030000000 1.0
C      1  0.5333590000000  0.5974080000000  0.4763010000000 1.0
C      1  0.4009630000000  0.5034330000000  0.5273200000000 1.0
C      1  0.5806660000000  0.4535960000000  0.4250900000000 1.0
C      1  0.5843090000000  0.4232270000000  0.4907660000000 1.0
C      1  0.5024570000000  0.4691560000000  0.3964900000000 1.0
C      1  0.5017660000000  0.4007060000000  0.5978630000000 1.0
C      1  0.5914130000000  0.4529510000000  0.5568030000000 1.0
C      1  0.5562040000000  0.4566890000000  0.5206600000000 1.0
C      1  0.3944520000000  0.4889050000000  0.5527740000000 1.0
C      1  0.4825150000000  0.5825700000000  0.5786670000000 1.0
C      1  0.4269270000000  0.4841710000000  0.3967020000000 1.0
C      1  0.5991660000000  0.5262570000000  0.4735880000000 1.0
C      1  0.4960250000000  0.5959710000000  0.5229980000000 1.0
C      1  0.5190980000000  0.5603920000000  0.3914040000000 1.0
C      1  0.5235270000000  0.4469390000000  0.5760810000000 1.0
C      1  0.5827660000000  0.5454330000000  0.5709330000000 1.0
C      1  0.5881490000000  0.5425030000000  0.5289120000000 1.0
C      1  0.5674280000000  0.5146100000000  0.4036660000000 1.0
C      1  0.5598690000000  0.5248050000000  0.4461950000000 1.0
C      1  0.5959790000000  0.4958090000000  0.5087200000000 1.0
C      1  0.5090620000000  0.5400080000000  0.4370660000000 1.0
C      1  0.4454810000000  0.4626600000000  0.3981950000000 1.0
C      1  0.5765750000000  0.4285560000000  0.4369080000000 1.0
C      1  0.4877860000000  0.6027070000000  0.4515140000000 1.0
C      1  0.5416790000000  0.5107560000000  0.3909780000000 1.0
C      1  0.5683910000000  0.4897690000000  0.4151500000000 1.0
C      1  0.4079320000000  0.5199940000000  0.4299070000000 1.0
C      1  0.4560180000000  0.4230560000000  0.4393880000000 1.0
C      1  0.5172490000000  0.5824280000000  0.4133960000000 1.0
C      1  0.5584620000000  0.4358310000000  0.4159710000000 1.0
C      1  0.5442420000000  0.4977220000000  0.5923490000000 1.0
C      1  0.5058120000000  0.5880440000000  0.4726750000000 1.0
C      1  0.4916280000000  0.5657300000000  0.4851690000000 1.0
C      1  0.4484390000000  0.5366550000000  0.5061440000000 1.0
C      1  0.4941860000000  0.4373420000000  0.4465470000000 1.0
C      1  0.4985140000000  0.4885190000000  0.5610900000000 1.0
C      1  0.5217740000000  0.4126480000000  0.5213900000000 1.0
C      1  0.4954720000000  0.5634580000000  0.4264730000000 1.0
C      1  0.5231800000000  0.4340550000000  0.4463390000000 1.0
C      1  0.4198580000000  0.5785910000000  0.5432930000000 1.0
C      1  0.5279900000000  0.5243660000000  0.5503900000000 1.0
C      1  0.4954140000000  0.6050930000000  0.4240540000000 1.0
C      1  0.5793500000000  0.5865450000000  0.4646400000000 1.0
C      1  0.5751360000000  0.4393440000000  0.5364410000000 1.0
C      1  0.4148790000000  0.4894410000000  0.4223960000000 1.0
C      1  0.4361200000000  0.4431690000000  0.4325080000000 1.0
C      1  0.5185870000000  0.4812280000000  0.4204030000000 1.0
C      1  0.4376310000000  0.5637690000000  0.5017110000000 1.0
C      1  0.4904550000000  0.5215940000000  0.3838130000000 1.0
C      1  0.5828960000000  0.5645090000000  0.5506530000000 1.0
C      1  0.4502410000000  0.4888450000000  0.4944580000000 1.0
C      1  0.5051640000000  0.4064360000000  0.5683050000000 1.0
C      1  0.4541750000000  0.5831940000000  0.5664580000000 1.0
C      1  0.5096280000000  0.5326010000000  0.4966390000000 1.0
C      1  0.4603640000000  0.4138820000000  0.4707310000000 1.0
C      1  0.4503910000000  0.4787780000000  0.5207670000000 1.0
C      1  0.4688900000000  0.4992960000000  0.6026780000000 1.0
C      1  0.5512390000000  0.4334430000000  0.5729490000000 1.0
C      1  0.5654210000000  0.4907850000000  0.4418870000000 1.0
C      1  0.6010240000000  0.5393000000000  0.4476010000000 1.0
C      1  0.5457330000000  0.5167010000000  0.4913490000000 1.0
C      1  0.5657310000000  0.5319570000000  0.4769500000000 1.0
C      1  0.5557430000000  0.5566810000000  0.4888340000000 1.0
C      1  0.4518720000000  0.4421300000000  0.4786450000000 1.0
C      1  0.4192200000000  0.5039760000000  0.4661110000000 1.0
C      1  0.5844930000000  0.5184150000000  0.5738340000000 1.0
C      1  0.4899850000000  0.5380540000000  0.5615470000000 1.0
C      1  0.4998210000000  0.4357270000000  0.5619010000000 1.0
C      1  0.4607660000000  0.6000170000000  0.4646940000000 1.0
C      1  0.5032240000000  0.4717890000000  0.4826330000000 1.0
C      1  0.6077930000000  0.4716000000000  0.5145190000000 1.0
C      1  0.4008180000000  0.4868280000000  0.5053810000000 1.0
C      1  0.4816180000000  0.4249920000000  0.4230350000000 1.0
C      1  0.4634620000000  0.6076100000000  0.4930040000000 1.0
C      1  0.4641350000000  0.5094450000000  0.4133430000000 1.0
C      1  0.5550080000000  0.5573140000000  0.4221230000000 1.0
C      1  0.5457930000000  0.5082530000000  0.5350260000000 1.0
C      1  0.5571380000000  0.4799190000000  0.5729580000000 1.0
C      1  0.5022420000000  0.5158370000000  0.5484000000000 1.0
C      1  0.5771280000000  0.5368770000000  0.4248950000000 1.0
C      1  0.5850340000000  0.4709350000000  0.4473550000000 1.0
C      1  0.4847510000000  0.4499950000000  0.6052860000000 1.0
C      1  0.4953620000000  0.5169410000000  0.5154560000000 1.0
C      1  0.6054320000000  0.5172640000000  0.5285590000000 1.0
C      1  0.4641520000000  0.5270830000000  0.5277070000000 1.0
C      1  0.4826080000000  0.4761810000000  0.4637880000000 1.0
C      1  0.4088920000000  0.4947210000000  0.5762340000000 1.0
C      1  0.4544770000000  0.5472580000000  0.5947290000000 1.0
C      1  0.3993390000000  0.5470380000000  0.5083440000000 1.0
C      1  0.4954150000000  0.3996050000000  0.5127890000000 1.0
C      1  0.5372720000000  0.5392470000000  0.4354920000000 1.0
C      1  0.4038420000000  0.4506660000000  0.4767410000000 1.0
C      1  0.5398510000000  0.4279150000000  0.4700020000000 1.0
C      1  0.4573440000000  0.4693730000000  0.4751480000000 1.0
C      1  0.4583050000000  0.4502360000000  0.5186130000000 1.0
C      1  0.5308240000000  0.5560350000000  0.5268430000000 1.0
C      1  0.4696900000000  0.5344620000000  0.3990100000000 1.0
C      1  0.5167040000000  0.4947960000000  0.4454090000000 1.0
C      1  0.4868800000000  0.4007120000000  0.4843800000000 1.0
C      1  0.4250220000000  0.5178220000000  0.5776750000000 1.0
C      1  0.5535000000000  0.5933170000000  0.5283970000000 1.0
C      1  0.6010430000000  0.4475860000000  0.4956840000000 1.0
C      1  0.5129920000000  0.3964510000000  0.4756860000000 1.0
C      1  0.5169480000000  0.4894920000000  0.6030100000000 1.0
C      1  0.4958220000000  0.5090030000000  0.6025080000000 1.0
C      1  0.4095840000000  0.5721330000000  0.5176990000000 1.0
C      1  0.5025550000000  0.5378790000000  0.5901440000000 1.0
C      1  0.4018560000000  0.4606420000000  0.5545390000000 1.0
C      1  0.5003540000000  0.6022260000000  0.5454790000000 1.0
C      1  0.5869140000000  0.4638260000000  0.4762120000000 1.0
C      1  0.4205580000000  0.5396330000000  0.5589520000000 1.0
C      1  0.4866680000000  0.4449750000000  0.5156460000000 1.0
C      1  0.5190120000000  0.4699230000000  0.5500890000000 1.0
C      1  0.5443550000000  0.4784280000000  0.4829920000000 1.0
C      1  0.5927230000000  0.5636880000000  0.4559630000000 1.0
C      1  0.5593550000000  0.5819580000000  0.5529320000000 1.0
C      1  0.5024550000000  0.4401590000000  0.4065310000000 1.0
C      1  0.5409650000000  0.3994710000000  0.4798020000000 1.0
C      1  0.5084960000000  0.5903680000000  0.5691720000000 1.0
C      1  0.5623600000000  0.4052190000000  0.5004960000000 1.0
C      1  0.4788160000000  0.4944890000000  0.3923080000000 1.0
C      1  0.5407350000000  0.4846670000000  0.4566260000000 1.0
C      1  0.4158430000000  0.4669780000000  0.5808650000000 1.0
C      1  0.4099800000000  0.4469980000000  0.5307240000000 1.0
C      1  0.5351350000000  0.5725700000000  0.5731850000000 1.0
C      1  0.4479930000000  0.5192840000000  0.5958080000000 1.0
C      1  0.4249300000000  0.5671030000000  0.4741350000000 1.0
C      1  0.4829550000000  0.5700350000000  0.5173010000000 1.0
C      1  0.5017010000000  0.4670360000000  0.5269640000000 1.0
C      1  0.4255920000000  0.4328620000000  0.4813940000000 1.0
C      1  0.4516160000000  0.5158900000000  0.4881670000000 1.0
C      1  0.4845340000000  0.6133030000000  0.5103170000000 1.0
C      1  0.4056940000000  0.4774210000000  0.4662460000000 1.0
C      1  0.5181840000000  0.5323420000000  0.3859610000000 1.0
C      1  0.5501640000000  0.6010740000000  0.5015850000000 1.0
C      1  0.5606180000000  0.4178420000000  0.5500430000000 1.0
C      1  0.5696880000000  0.4265580000000  0.4653590000000 1.0
C      1  0.4145150000000  0.4671500000000  0.4403640000000 1.0
C      1  0.5290110000000  0.5528850000000  0.5001840000000 1.0
C      1  0.4420160000000  0.5797250000000  0.4547090000000 1.0
C      1  0.4468040000000  0.5122040000000  0.4599940000000 1.0
C      1  0.4789020000000  0.4204950000000  0.5985980000000 1.0
C      1  0.5448740000000  0.5834970000000  0.4281380000000 1.0
C      1  0.4949880000000  0.5190810000000  0.4516480000000 1.0
C      1  0.5339480000000  0.5470600000000  0.5895920000000 1.0
C      1  0.4640890000000  0.3911530000000  0.5569410000000 1.0
C      1  0.4086970000000  0.5325710000000  0.5321800000000 1.0
C      1  0.5293180000000  0.4339440000000  0.4182990000000 1.0
C      1  0.5704830000000  0.4545360000000  0.5782600000000 1.0
C      1  0.4508880000000  0.4379580000000  0.5646780000000 1.0
C      1  0.4676640000000  0.5125310000000  0.4419090000000 1.0
C      1  0.4254450000000  0.5413000000000  0.4285220000000 1.0
END
