TITL C-884133-6611-389 3.27679782066917 125000 -5872.82461215463 0 0 41 (C1) n - 1
REM
REM in /home/nfs/bkarasulu/CARBON/AIRSS/Generating-Clusters/ReaxFF-fromJPCA2015/Units_Real/with-SteepDescent/Only-C1/SD-CG/Try1-3A/FIRE-CG
REM
REM
REM
REM
REM
REM ./C.cell (11c1c37f851c82e70ff6c80c92926a4b)
REM
REM compiler GCC version 9.2.1 20190827 (Red Hat 9.2.1-1)
REM options -cpp -mtune=generic -march=x86-64 -g -O0 -fpre-include=/usr/include/finclude/math-vector-fortran.h
REM seed -473910270 1856486512 -970733409 -356318118 -689181197 -914022196 90780591 -1784789593 -968317738 -428103871 -1442097932 -1105259111 -1027088148 981228173 -1453168328 1528706890 1782659821 -376222714 828622397 -546542610 1907657003 -251311717 -807452280 507595574 -572081348 1042302000 1419928527 1028709399 851555210 -1320954935 2115402400 862914319 -119416609
REM
CELL 1.54180   50.00000   50.00000   50.00000   90.00000   90.00000   90.00000
LATT -1
SFAC C  
C      1  0.4459820000000  0.4990700000000  0.4748500000000 1.0
C      1  0.4724870000000  0.4765400000000  0.4511890000000 1.0
C      1  0.5146390000000  0.5500410000000  0.5106330000000 1.0
C      1  0.5642350000000  0.4732840000000  0.5221920000000 1.0
C      1  0.5353650000000  0.4461540000000  0.4893130000000 1.0
C      1  0.5233980000000  0.5074300000000  0.4835810000000 1.0
C      1  0.5221910000000  0.4656640000000  0.4473940000000 1.0
C      1  0.4672380000000  0.5209640000000  0.5167450000000 1.0
C      1  0.4643590000000  0.4494010000000  0.5105180000000 1.0
C      1  0.4715550000000  0.4735790000000  0.5251600000000 1.0
C      1  0.5088680000000  0.5289330000000  0.4689890000000 1.0
C      1  0.4630310000000  0.4545100000000  0.4689910000000 1.0
C      1  0.5126700000000  0.5002280000000  0.5093470000000 1.0
C      1  0.4900470000000  0.5719240000000  0.4857660000000 1.0
C      1  0.4807350000000  0.5299490000000  0.4620750000000 1.0
C      1  0.4688760000000  0.5550610000000  0.4731650000000 1.0
C      1  0.4437530000000  0.4572870000000  0.4908640000000 1.0
C      1  0.5683600000000  0.4884740000000  0.5517510000000 1.0
C      1  0.4942530000000  0.5097660000000  0.5543200000000 1.0
C      1  0.4760750000000  0.5578220000000  0.5358430000000 1.0
C      1  0.4534840000000  0.5468910000000  0.5196170000000 1.0
C      1  0.5543030000000  0.5121360000000  0.4852480000000 1.0
C      1  0.4345310000000  0.4854930000000  0.4960800000000 1.0
C      1  0.4855530000000  0.5348020000000  0.5516470000000 1.0
C      1  0.5061590000000  0.4477940000000  0.5533180000000 1.0
C      1  0.5206120000000  0.4603450000000  0.5373060000000 1.0
C      1  0.5453500000000  0.4563280000000  0.4596670000000 1.0
C      1  0.4533910000000  0.4947550000000  0.5178630000000 1.0
C      1  0.5694430000000  0.4991430000000  0.5107370000000 1.0
C      1  0.5141220000000  0.5553780000000  0.4815040000000 1.0
C      1  0.5665410000000  0.5300840000000  0.4714970000000 1.0
C      1  0.4990850000000  0.4842230000000  0.5335620000000 1.0
C      1  0.4456870000000  0.5560920000000  0.4920860000000 1.0
C      1  0.5735740000000  0.5112300000000  0.5355310000000 1.0
C      1  0.4941270000000  0.5701410000000  0.5154810000000 1.0
C      1  0.4994490000000  0.4718560000000  0.4455890000000 1.0
C      1  0.4982150000000  0.5244480000000  0.5130560000000 1.0
C      1  0.4817600000000  0.4390700000000  0.4874720000000 1.0
C      1  0.5091530000000  0.4426900000000  0.4884130000000 1.0
C      1  0.4639350000000  0.5061840000000  0.4554920000000 1.0
C      1  0.5434110000000  0.4548370000000  0.5161490000000 1.0
END
