TITL C-883737-113-423 -17.8493622434381 125000 -6653.03855600484 0 0 45 (C1) n - 1
REM
REM in /home/nfs/bkarasulu/CARBON/AIRSS/Generating-Clusters/ReaxFF-fromJPCA2015/Units_Real/with-SteepDescent/Only-C1/SD-CG/Try1-3A/FIRE-CG
REM
REM
REM
REM
REM
REM ./C.cell (11c1c37f851c82e70ff6c80c92926a4b)
REM
REM compiler GCC version 9.2.1 20190827 (Red Hat 9.2.1-1)
REM options -cpp -mtune=generic -march=x86-64 -g -O0 -fpre-include=/usr/include/finclude/math-vector-fortran.h
REM seed -1088146125 -1019752368 -548539599 -38369901 -1757641531 -1455111592 1893396118 -1044133495 1645701454 1480246522 134150562 1837919096 238367405 978687956 1132154926 -1983407209 1819150833 1238404802 -351883139 -1697366092 -1758972352 872941249 -1584623455 -2016842019 -1128993960 -1698232382 -564800698 1944037739 1104960681 1309445576 342497786 699790347 -761699668
REM
CELL 1.54180   50.00000   50.00000   50.00000   90.00000   90.00000   90.00000
LATT -1
SFAC C  
C      1  0.4576550000000  0.5189090000000  0.5539050000000 1.0
C      1  0.4400260000000  0.4907530000000  0.4975340000000 1.0
C      1  0.4507300000000  0.5432230000000  0.5048320000000 1.0
C      1  0.4946310000000  0.5702070000000  0.4754520000000 1.0
C      1  0.5603530000000  0.4973860000000  0.4735600000000 1.0
C      1  0.4780490000000  0.5393830000000  0.5451790000000 1.0
C      1  0.5442620000000  0.4507120000000  0.4989000000000 1.0
C      1  0.4449830000000  0.4994490000000  0.4700900000000 1.0
C      1  0.4666690000000  0.4686520000000  0.5399260000000 1.0
C      1  0.5274210000000  0.5086100000000  0.5025610000000 1.0
C      1  0.4860490000000  0.4471430000000  0.5368890000000 1.0
C      1  0.5259680000000  0.4633490000000  0.5187290000000 1.0
C      1  0.4336230000000  0.5262550000000  0.4560410000000 1.0
C      1  0.4835540000000  0.4856000000000  0.4939040000000 1.0
C      1  0.4865560000000  0.4416970000000  0.4618720000000 1.0
C      1  0.4940190000000  0.4324280000000  0.4870720000000 1.0
C      1  0.4437650000000  0.5420910000000  0.4772160000000 1.0
C      1  0.4624910000000  0.4696370000000  0.5096910000000 1.0
C      1  0.5004090000000  0.5007150000000  0.5606090000000 1.0
C      1  0.5236040000000  0.4392620000000  0.4795620000000 1.0
C      1  0.4722050000000  0.4927870000000  0.5563600000000 1.0
C      1  0.5372480000000  0.4856510000000  0.4533080000000 1.0
C      1  0.5585050000000  0.4729710000000  0.4872050000000 1.0
C      1  0.4840090000000  0.4625540000000  0.4461650000000 1.0
C      1  0.5016630000000  0.5516960000000  0.4558430000000 1.0
C      1  0.4885100000000  0.4897620000000  0.4418510000000 1.0
C      1  0.4991890000000  0.5627790000000  0.5062270000000 1.0
C      1  0.4417330000000  0.5163660000000  0.5084370000000 1.0
C      1  0.5257820000000  0.5551910000000  0.5147300000000 1.0
C      1  0.5138970000000  0.4547070000000  0.5435820000000 1.0
C      1  0.5642310000000  0.5246630000000  0.4848010000000 1.0
C      1  0.5043020000000  0.5285990000000  0.5530330000000 1.0
C      1  0.4778860000000  0.4419550000000  0.5093790000000 1.0
C      1  0.5226120000000  0.5288720000000  0.4821080000000 1.0
C      1  0.4742580000000  0.4961790000000  0.4679740000000 1.0
C      1  0.5464440000000  0.4934720000000  0.5492170000000 1.0
C      1  0.5286170000000  0.4601530000000  0.4612490000000 1.0
C      1  0.5276130000000  0.5383020000000  0.5381230000000 1.0
C      1  0.5165260000000  0.5284830000000  0.4525930000000 1.0
C      1  0.5424330000000  0.5144790000000  0.5289050000000 1.0
C      1  0.4758860000000  0.5529020000000  0.5192050000000 1.0
C      1  0.5209460000000  0.4795840000000  0.5582790000000 1.0
C      1  0.5447210000000  0.5458610000000  0.4922840000000 1.0
C      1  0.5105850000000  0.4852050000000  0.5041290000000 1.0
C      1  0.5153820000000  0.5013670000000  0.4414880000000 1.0
END
