TITL C-884133-6611-194 116.381295936847 125000 -27138.2308505523 0 0 185 (C1) n - 1
REM
REM in /home/nfs/bkarasulu/CARBON/AIRSS/Generating-Clusters/ReaxFF-fromJPCA2015/Units_Real/with-SteepDescent/Only-C1/SD-CG/Try1-3A/FIRE-CG
REM
REM
REM
REM
REM
REM ./C.cell (11c1c37f851c82e70ff6c80c92926a4b)
REM
REM compiler GCC version 9.2.1 20190827 (Red Hat 9.2.1-1)
REM options -cpp -mtune=generic -march=x86-64 -g -O0 -fpre-include=/usr/include/finclude/math-vector-fortran.h
REM seed -516746119 -31120019 2119332451 -1607162531 830816808 -923625311 1167876574 2077079449 536938179 -1058192234 996727321 123995373 590210288 -1030447024 -602804219 1665892396 1439296729 1220104750 1836654143 -1780101945 -609825936 -635297685 1501155489 1024739090 -421375874 1864334972 973730240 -224068086 -1523847152 -935956743 1623230309 -2031445629 -2145743235
REM
CELL 1.54180   50.00000   50.00000   50.00000   90.00000   90.00000   90.00000
LATT -1
SFAC C  
C      1  0.5957100000000  0.5130000000000  0.4781140000000 1.0
C      1  0.5415250000000  0.5472550000000  0.4998030000000 1.0
C      1  0.4809020000000  0.4814300000000  0.5164080000000 1.0
C      1  0.4428410000000  0.5194950000000  0.5069530000000 1.0
C      1  0.4788590000000  0.5214430000000  0.4418740000000 1.0
C      1  0.5828480000000  0.4399500000000  0.5641130000000 1.0
C      1  0.5292970000000  0.5521330000000  0.4144710000000 1.0
C      1  0.5390780000000  0.4978070000000  0.4498790000000 1.0
C      1  0.3968620000000  0.5121500000000  0.4753130000000 1.0
C      1  0.5478580000000  0.3866100000000  0.4547930000000 1.0
C      1  0.5087020000000  0.4681680000000  0.4588930000000 1.0
C      1  0.5449150000000  0.4465650000000  0.4143790000000 1.0
C      1  0.5901770000000  0.5319300000000  0.5659870000000 1.0
C      1  0.5332190000000  0.5954520000000  0.5445100000000 1.0
C      1  0.4428920000000  0.5538140000000  0.4361330000000 1.0
C      1  0.4032350000000  0.5403930000000  0.4721760000000 1.0
C      1  0.4178220000000  0.4218440000000  0.5283960000000 1.0
C      1  0.5890610000000  0.5421380000000  0.4449570000000 1.0
C      1  0.4857440000000  0.4912150000000  0.5561010000000 1.0
C      1  0.5944140000000  0.4475020000000  0.4948630000000 1.0
C      1  0.5131390000000  0.3971100000000  0.5127270000000 1.0
C      1  0.4255180000000  0.4528420000000  0.5686410000000 1.0
C      1  0.4095590000000  0.4449210000000  0.5440430000000 1.0
C      1  0.5622910000000  0.5291680000000  0.5130310000000 1.0
C      1  0.5356260000000  0.5443180000000  0.5688990000000 1.0
C      1  0.4520700000000  0.4401640000000  0.4148350000000 1.0
C      1  0.5021590000000  0.4832050000000  0.5315170000000 1.0
C      1  0.5021700000000  0.5566800000000  0.4254930000000 1.0
C      1  0.4746390000000  0.5754040000000  0.5761900000000 1.0
C      1  0.5084330000000  0.5098630000000  0.5163690000000 1.0
C      1  0.4103600000000  0.4494860000000  0.4439540000000 1.0
C      1  0.5377780000000  0.6003250000000  0.4739700000000 1.0
C      1  0.4092910000000  0.5153180000000  0.5446480000000 1.0
C      1  0.5988430000000  0.5492290000000  0.5450070000000 1.0
C      1  0.4239190000000  0.3988120000000  0.5077240000000 1.0
C      1  0.4666090000000  0.4844930000000  0.4547530000000 1.0
C      1  0.4861780000000  0.5887110000000  0.5520970000000 1.0
C      1  0.4218230000000  0.4803460000000  0.5797780000000 1.0
C      1  0.5070230000000  0.5376810000000  0.5690780000000 1.0
C      1  0.6025240000000  0.5117070000000  0.5058840000000 1.0
C      1  0.5101530000000  0.5054830000000  0.4873160000000 1.0
C      1  0.5113710000000  0.4698770000000  0.3897680000000 1.0
C      1  0.4463120000000  0.4656370000000  0.4008540000000 1.0
C      1  0.4315530000000  0.5880060000000  0.5272330000000 1.0
C      1  0.5127560000000  0.6079080000000  0.5243180000000 1.0
C      1  0.4851180000000  0.5691100000000  0.4053570000000 1.0
C      1  0.5844130000000  0.5256870000000  0.4233160000000 1.0
C      1  0.4258300000000  0.4853780000000  0.4101730000000 1.0
C      1  0.5741480000000  0.5530730000000  0.4250670000000 1.0
C      1  0.5000300000000  0.5583000000000  0.4788360000000 1.0
C      1  0.4863190000000  0.5147170000000  0.6048140000000 1.0
C      1  0.4595410000000  0.4780260000000  0.5622360000000 1.0
C      1  0.4218030000000  0.5793530000000  0.4731100000000 1.0
C      1  0.3961020000000  0.4948880000000  0.5279960000000 1.0
C      1  0.5597840000000  0.4378290000000  0.4615490000000 1.0
C      1  0.4458480000000  0.4203820000000  0.4604250000000 1.0
C      1  0.4078750000000  0.4755240000000  0.4311820000000 1.0
C      1  0.4926830000000  0.4922210000000  0.3879380000000 1.0
C      1  0.4213460000000  0.5086500000000  0.5698780000000 1.0
C      1  0.4437720000000  0.4573230000000  0.5158250000000 1.0
C      1  0.3914020000000  0.4666250000000  0.4969430000000 1.0
C      1  0.5003460000000  0.4150490000000  0.4252230000000 1.0
C      1  0.5876050000000  0.5595100000000  0.4960090000000 1.0
C      1  0.5441270000000  0.4912270000000  0.5614700000000 1.0
C      1  0.4153520000000  0.5639840000000  0.5187590000000 1.0
C      1  0.5085330000000  0.5953020000000  0.4429850000000 1.0
C      1  0.4869290000000  0.5286470000000  0.5225420000000 1.0
C      1  0.4423090000000  0.4314410000000  0.5217750000000 1.0
C      1  0.4864740000000  0.4453900000000  0.5685470000000 1.0
C      1  0.5294360000000  0.4480760000000  0.5109420000000 1.0
C      1  0.5051140000000  0.4665990000000  0.5832560000000 1.0
C      1  0.5045720000000  0.4410260000000  0.4997870000000 1.0
C      1  0.4795810000000  0.4304860000000  0.4102410000000 1.0
C      1  0.5550120000000  0.4997810000000  0.5121720000000 1.0
C      1  0.5251090000000  0.3902880000000  0.4566650000000 1.0
C      1  0.4569510000000  0.5828570000000  0.4350810000000 1.0
C      1  0.5486180000000  0.5663710000000  0.4302530000000 1.0
C      1  0.4092430000000  0.4887390000000  0.4591360000000 1.0
C      1  0.4671340000000  0.5328530000000  0.5022750000000 1.0
C      1  0.5287260000000  0.5279610000000  0.6089300000000 1.0
C      1  0.4588490000000  0.5083500000000  0.5995450000000 1.0
C      1  0.5671880000000  0.4509040000000  0.4852970000000 1.0
C      1  0.5223260000000  0.4283640000000  0.4093040000000 1.0
C      1  0.5440600000000  0.4227080000000  0.5338130000000 1.0
C      1  0.5002940000000  0.4136670000000  0.4927630000000 1.0
C      1  0.4850840000000  0.4219650000000  0.5492710000000 1.0
C      1  0.5226160000000  0.5863000000000  0.5714680000000 1.0
C      1  0.4434800000000  0.4764820000000  0.5376780000000 1.0
C      1  0.5444090000000  0.4772930000000  0.6045640000000 1.0
C      1  0.4827690000000  0.5552310000000  0.5304150000000 1.0
C      1  0.5266750000000  0.4986170000000  0.6129730000000 1.0
C      1  0.5735500000000  0.4261660000000  0.5391590000000 1.0
C      1  0.4416890000000  0.5162400000000  0.4775090000000 1.0
C      1  0.5465490000000  0.4686890000000  0.4934450000000 1.0
C      1  0.5056330000000  0.4242820000000  0.4507250000000 1.0
C      1  0.4588890000000  0.5340350000000  0.4600280000000 1.0
C      1  0.5344310000000  0.5020900000000  0.4212360000000 1.0
C      1  0.4388160000000  0.5105590000000  0.4185320000000 1.0
C      1  0.5275510000000  0.5184150000000  0.4665990000000 1.0
C      1  0.5537690000000  0.4927510000000  0.4051000000000 1.0
C      1  0.4046780000000  0.5636340000000  0.4918730000000 1.0
C      1  0.4419420000000  0.5821200000000  0.5524780000000 1.0
C      1  0.6000840000000  0.4740760000000  0.4880430000000 1.0
C      1  0.4745900000000  0.5420340000000  0.3994290000000 1.0
C      1  0.4493250000000  0.4810630000000  0.5895850000000 1.0
C      1  0.5223700000000  0.5248230000000  0.4060210000000 1.0
C      1  0.4575140000000  0.5962350000000  0.4574920000000 1.0
C      1  0.5595520000000  0.5875620000000  0.5346910000000 1.0
C      1  0.5594700000000  0.5864100000000  0.4819490000000 1.0
C      1  0.5777800000000  0.5395730000000  0.4715750000000 1.0
C      1  0.4961160000000  0.5213860000000  0.3946450000000 1.0
C      1  0.4563960000000  0.4956640000000  0.5204980000000 1.0
C      1  0.5032810000000  0.5683190000000  0.4518800000000 1.0
C      1  0.4728330000000  0.5746970000000  0.5099460000000 1.0
C      1  0.5831920000000  0.4247480000000  0.5109740000000 1.0
C      1  0.4745090000000  0.4363660000000  0.5931890000000 1.0
C      1  0.4544310000000  0.4612960000000  0.4885410000000 1.0
C      1  0.5938480000000  0.4868240000000  0.4644410000000 1.0
C      1  0.5029900000000  0.5400250000000  0.6010360000000 1.0
C      1  0.5401680000000  0.4698390000000  0.3968560000000 1.0
C      1  0.4653740000000  0.4994000000000  0.4292530000000 1.0
C      1  0.5798670000000  0.4765030000000  0.4385200000000 1.0
C      1  0.4420420000000  0.4879360000000  0.4704460000000 1.0
C      1  0.5195390000000  0.5577140000000  0.5148110000000 1.0
C      1  0.5477510000000  0.5388220000000  0.4730000000000 1.0
C      1  0.4335860000000  0.4081790000000  0.4825170000000 1.0
C      1  0.5607230000000  0.5417490000000  0.5387100000000 1.0
C      1  0.4847160000000  0.4638380000000  0.4962140000000 1.0
C      1  0.5423970000000  0.4005390000000  0.5139750000000 1.0
C      1  0.4636440000000  0.4445530000000  0.4656400000000 1.0
C      1  0.6000290000000  0.4756950000000  0.5526960000000 1.0
C      1  0.5069550000000  0.4301500000000  0.6016550000000 1.0
C      1  0.5370910000000  0.5071780000000  0.5371240000000 1.0
C      1  0.5287510000000  0.4076280000000  0.5567870000000 1.0
C      1  0.5749930000000  0.5191070000000  0.5856150000000 1.0
C      1  0.4826800000000  0.5918540000000  0.4247970000000 1.0
C      1  0.5071480000000  0.5643080000000  0.5398720000000 1.0
C      1  0.5356250000000  0.5360300000000  0.5425520000000 1.0
C      1  0.4554810000000  0.5986580000000  0.5114870000000 1.0
C      1  0.5618020000000  0.4083870000000  0.4673870000000 1.0
C      1  0.3981070000000  0.4652380000000  0.5265510000000 1.0
C      1  0.5877630000000  0.4667000000000  0.5764310000000 1.0
C      1  0.4961640000000  0.5140540000000  0.5624570000000 1.0
C      1  0.4516090000000  0.5526100000000  0.5780090000000 1.0
C      1  0.5774500000000  0.4973080000000  0.4191740000000 1.0
C      1  0.4234530000000  0.5378290000000  0.5302650000000 1.0
C      1  0.5198010000000  0.4166590000000  0.5813140000000 1.0
C      1  0.5646040000000  0.4888200000000  0.5845310000000 1.0
C      1  0.5651530000000  0.4061850000000  0.4968810000000 1.0
C      1  0.4597850000000  0.4132760000000  0.5367780000000 1.0
C      1  0.5242280000000  0.4635100000000  0.5323080000000 1.0
C      1  0.4667340000000  0.4858320000000  0.3984760000000 1.0
C      1  0.5377270000000  0.5903090000000  0.4456950000000 1.0
C      1  0.5012660000000  0.5735020000000  0.5873320000000 1.0
C      1  0.4910410000000  0.4469300000000  0.4561570000000 1.0
C      1  0.4476720000000  0.4366030000000  0.5824540000000 1.0
C      1  0.5047900000000  0.4026830000000  0.5407490000000 1.0
C      1  0.4184980000000  0.5576720000000  0.4529890000000 1.0
C      1  0.5830270000000  0.4939280000000  0.5205530000000 1.0
C      1  0.4918530000000  0.4856490000000  0.4733210000000 1.0
C      1  0.4947600000000  0.5835120000000  0.4927920000000 1.0
C      1  0.4024080000000  0.4615790000000  0.4703700000000 1.0
C      1  0.4997900000000  0.4026880000000  0.4642920000000 1.0
C      1  0.4332050000000  0.4327060000000  0.4361360000000 1.0
C      1  0.5272280000000  0.4542980000000  0.5971310000000 1.0
C      1  0.5780880000000  0.4708090000000  0.5365960000000 1.0
C      1  0.4753550000000  0.5440470000000  0.4797200000000 1.0
C      1  0.6002310000000  0.5412590000000  0.5151240000000 1.0
C      1  0.4422260000000  0.5255220000000  0.5836380000000 1.0
C      1  0.3893670000000  0.4963410000000  0.4988130000000 1.0
C      1  0.5510430000000  0.5354510000000  0.5918500000000 1.0
C      1  0.5367350000000  0.4723280000000  0.4651080000000 1.0
C      1  0.4479510000000  0.5369940000000  0.4112800000000 1.0
C      1  0.5057030000000  0.5219150000000  0.4495550000000 1.0
C      1  0.5484090000000  0.4674000000000  0.5466310000000 1.0
C      1  0.5014420000000  0.4424680000000  0.3944350000000 1.0
C      1  0.4443630000000  0.5973350000000  0.4811490000000 1.0
C      1  0.4360260000000  0.5560110000000  0.5545440000000 1.0
C      1  0.4454450000000  0.3923710000000  0.5256430000000 1.0
C      1  0.5719180000000  0.5820620000000  0.5055610000000 1.0
C      1  0.5010060000000  0.4899080000000  0.6022090000000 1.0
C      1  0.5641510000000  0.4521090000000  0.4360770000000 1.0
C      1  0.5745090000000  0.5667970000000  0.5481060000000 1.0
C      1  0.5147630000000  0.6033400000000  0.4958490000000 1.0
C      1  0.4840170000000  0.6077660000000  0.5304080000000 1.0
END
