TITL C-883736-9678-23 4288998.7728684 125000 -27735.4127574668 0 0 188 (C1) n - 1
REM
REM in /home/nfs/bkarasulu/CARBON/AIRSS/Generating-Clusters/ReaxFF-fromJPCA2015/Units_Real/with-SteepDescent/Only-C1/SD-CG/Try1-3A/FIRE-CG
REM
REM
REM
REM
REM
REM ./C.cell (11c1c37f851c82e70ff6c80c92926a4b)
REM
REM compiler GCC version 9.2.1 20190827 (Red Hat 9.2.1-1)
REM options -cpp -mtune=generic -march=x86-64 -g -O0 -fpre-include=/usr/include/finclude/math-vector-fortran.h
REM seed 2086673417 1987031186 -1862714034 320102432 -1023845778 380156314 -640995943 2050967339 -204129014 -936940442 434496341 -389001181 912762519 1835899293 1568877991 -980525816 -2081999211 927620166 1083741812 -1093767120 1901766346 -1422792766 -1809525546 1270503752 1950714986 446197961 2080809717 -2108308518 637586640 -879985250 -1983896136 971150009 -2011652337
REM
CELL 1.54180   50.00000   50.00000   50.00000   90.00000   90.00000   90.00000
LATT -1
SFAC C  
C      1  0.4728770000000  0.5126940000000  0.4406170000000 1.0
C      1  0.5317160000000  0.4510390000000  0.5362350000000 1.0
C      1  0.4509210000000  0.5140190000000  0.3911510000000 1.0
C      1  0.4090740000000  0.4339680000000  0.5076480000000 1.0
C      1  0.3936580000000  0.5365970000000  0.4881730000000 1.0
C      1  0.4150220000000  0.4536440000000  0.5265470000000 1.0
C      1  0.3725980000000  0.5210810000000  0.5591960000000 1.0
C      1  0.5437840000000  0.4030530000000  0.5402600000000 1.0
C      1  0.5425250000000  0.5272270000000  0.3995940000000 1.0
C      1  0.4288430000000  0.4737800000000  0.5414220000000 1.0
C      1  0.5979550000000  0.4796820000000  0.5242160000000 1.0
C      1  0.5547390000000  0.5285080000000  0.5760580000000 1.0
C      1  0.4296570000000  0.5577420000000  0.4629400000000 1.0
C      1  0.4506020000000  0.4788850000000  0.5216890000000 1.0
C      1  0.5759940000000  0.4143470000000  0.4721570000000 1.0
C      1  0.4525930000000  0.5766560000000  0.5860660000000 1.0
C      1  0.4475100000000  0.5123680000000  0.4792270000000 1.0
C      1  0.5439890000000  0.5855280000000  0.5377430000000 1.0
C      1  0.4259990000000  0.4728610000000  0.4837920000000 1.0
C      1  0.4567990000000  0.5592380000000  0.4209760000000 1.0
C      1  0.4458560000000  0.4598490000000  0.5007040000000 1.0
C      1  0.4425920000000  0.5759880000000  0.4434350000000 1.0
C      1  0.4856990000000  0.4036990000000  0.5341580000000 1.0
C      1  0.4321610000000  0.5199200000000  0.5424920000000 1.0
C      1  0.5234900000000  0.5014660000000  0.4460120000000 1.0
C      1  0.5918600000000  0.5418590000000  0.4442570000000 1.0
C      1  0.5467170000000  0.5126530000000  0.5516990000000 1.0
C      1  0.5834180000000  0.4694300000000  0.4247420000000 1.0
C      1  0.4071340000000  0.4638830000000  0.4643360000000 1.0
C      1  0.6017410000000  0.5225370000000  0.4215090000000 1.0
C      1  0.4911570000000  0.5321500000000  0.6129950000000 1.0
C      1  0.4936230000000  0.4538780000000  0.5614080000000 1.0
C      1  0.5095920000000  0.4537500000000  0.4282720000000 1.0
C      1  0.6138990000000  0.5503690000000  0.5062290000000 1.0
C      1  0.4819700000000  0.5786290000000  0.4110520000000 1.0
C      1  0.4476420000000  0.5424010000000  0.4800800000000 1.0
C      1  0.4784260000000  0.4327010000000  0.5411230000000 1.0
C      1  0.5308870000000  0.4650130000000  0.5122290000000 1.0
C      1  0.4508120000000  0.4916960000000  0.5851410000000 1.0
C      1  0.5130730000000  0.4277180000000  0.5000880000000 1.0
C      1  0.4258000000000  0.5219160000000  0.5692510000000 1.0
C      1  0.4043680000000  0.5423920000000  0.4618400000000 1.0
C      1  0.5038900000000  0.4688050000000  0.3769190000000 1.0
C      1  0.5346290000000  0.5512150000000  0.4161270000000 1.0
C      1  0.5289990000000  0.4251430000000  0.5252290000000 1.0
C      1  0.5740480000000  0.4387430000000  0.4915030000000 1.0
C      1  0.4190020000000  0.5234630000000  0.4228350000000 1.0
C      1  0.5064730000000  0.5249780000000  0.5466560000000 1.0
C      1  0.5455350000000  0.5993780000000  0.5115110000000 1.0
C      1  0.4560560000000  0.4162110000000  0.4956540000000 1.0
C      1  0.4803690000000  0.5839350000000  0.5849500000000 1.0
C      1  0.5951640000000  0.4956690000000  0.5484180000000 1.0
C      1  0.4394520000000  0.5358870000000  0.4069760000000 1.0
C      1  0.5334780000000  0.3855000000000  0.4885080000000 1.0
C      1  0.4078360000000  0.5293550000000  0.5321630000000 1.0
C      1  0.5050890000000  0.5853260000000  0.4225650000000 1.0
C      1  0.4793020000000  0.4592780000000  0.3891260000000 1.0
C      1  0.5880820000000  0.5520850000000  0.5469410000000 1.0
C      1  0.5267190000000  0.5641850000000  0.5906610000000 1.0
C      1  0.5531200000000  0.5707130000000  0.4273710000000 1.0
C      1  0.5031650000000  0.5255360000000  0.4807300000000 1.0
C      1  0.3565720000000  0.5033220000000  0.5631630000000 1.0
C      1  0.3991210000000  0.5499650000000  0.5137970000000 1.0
C      1  0.5919670000000  0.4544860000000  0.4486710000000 1.0
C      1  0.4805390000000  0.5125700000000  0.3930280000000 1.0
C      1  0.4673150000000  0.4448190000000  0.4907990000000 1.0
C      1  0.3965230000000  0.5069330000000  0.4874440000000 1.0
C      1  0.5369970000000  0.5928140000000  0.4652390000000 1.0
C      1  0.4816230000000  0.4713240000000  0.4171050000000 1.0
C      1  0.5616790000000  0.4940270000000  0.4696640000000 1.0
C      1  0.4680300000000  0.4999810000000  0.5161020000000 1.0
C      1  0.4246000000000  0.5003760000000  0.4925710000000 1.0
C      1  0.5079970000000  0.5809720000000  0.5759280000000 1.0
C      1  0.4225600000000  0.5953670000000  0.5003630000000 1.0
C      1  0.5189560000000  0.5402750000000  0.6055930000000 1.0
C      1  0.5422350000000  0.4670860000000  0.4675840000000 1.0
C      1  0.4269920000000  0.3897070000000  0.5276000000000 1.0
C      1  0.5191000000000  0.4803310000000  0.4633310000000 1.0
C      1  0.4814430000000  0.5132090000000  0.5523970000000 1.0
C      1  0.4709730000000  0.5595520000000  0.5715210000000 1.0
C      1  0.5521690000000  0.5575460000000  0.5766270000000 1.0
C      1  0.4954150000000  0.5529850000000  0.4848300000000 1.0
C      1  0.5381690000000  0.4761590000000  0.6262960000000 1.0
C      1  0.5024650000000  0.4707870000000  0.5169980000000 1.0
C      1  0.4964120000000  0.6123010000000  0.4886170000000 1.0
C      1  0.5712320000000  0.4232820000000  0.5457550000000 1.0
C      1  0.5262880000000  0.6034400000000  0.4894130000000 1.0
C      1  0.5179090000000  0.5120130000000  0.5018020000000 1.0
C      1  0.4894620000000  0.4447400000000  0.5092240000000 1.0
C      1  0.5132160000000  0.5242160000000  0.4553370000000 1.0
C      1  0.4262300000000  0.4166400000000  0.4660130000000 1.0
C      1  0.4584230000000  0.4399310000000  0.3982730000000 1.0
C      1  0.5805720000000  0.4361760000000  0.5218620000000 1.0
C      1  0.4260690000000  0.5838900000000  0.5461510000000 1.0
C      1  0.5170520000000  0.5468710000000  0.4394900000000 1.0
C      1  0.4311260000000  0.4115590000000  0.5138330000000 1.0
C      1  0.4418800000000  0.5194780000000  0.5910100000000 1.0
C      1  0.5010880000000  0.3876840000000  0.5152160000000 1.0
C      1  0.4680080000000  0.5546510000000  0.4968170000000 1.0
C      1  0.4816370000000  0.4025600000000  0.4647390000000 1.0
C      1  0.4136220000000  0.5450930000000  0.5754200000000 1.0
C      1  0.5351390000000  0.4905230000000  0.5964580000000 1.0
C      1  0.5915060000000  0.5281570000000  0.5093200000000 1.0
C      1  0.4368810000000  0.4717490000000  0.5698600000000 1.0
C      1  0.5174500000000  0.5774630000000  0.5478600000000 1.0
C      1  0.4373250000000  0.4402150000000  0.5741020000000 1.0
C      1  0.6168030000000  0.5088140000000  0.4404850000000 1.0
C      1  0.4832710000000  0.4124770000000  0.4376490000000 1.0
C      1  0.5639410000000  0.5686360000000  0.5525920000000 1.0
C      1  0.5917040000000  0.5067550000000  0.4846220000000 1.0
C      1  0.5809600000000  0.4274960000000  0.4458560000000 1.0
C      1  0.3916670000000  0.5413290000000  0.5541350000000 1.0
C      1  0.5359030000000  0.4110170000000  0.4260090000000 1.0
C      1  0.4896040000000  0.4400620000000  0.5866060000000 1.0
C      1  0.5433060000000  0.5214940000000  0.5251820000000 1.0
C      1  0.4760370000000  0.6084920000000  0.5073140000000 1.0
C      1  0.4612040000000  0.4575180000000  0.4363460000000 1.0
C      1  0.4732120000000  0.5431030000000  0.4400000000000 1.0
C      1  0.4782010000000  0.6071430000000  0.4669670000000 1.0
C      1  0.4728620000000  0.4660900000000  0.4626420000000 1.0
C      1  0.5519580000000  0.5057550000000  0.4430000000000 1.0
C      1  0.4776960000000  0.4131700000000  0.5817380000000 1.0
C      1  0.5927600000000  0.4586370000000  0.4780020000000 1.0
C      1  0.5034670000000  0.4027020000000  0.5762950000000 1.0
C      1  0.5596100000000  0.5748130000000  0.4737520000000 1.0
C      1  0.5148070000000  0.4612750000000  0.6265490000000 1.0
C      1  0.5455530000000  0.5546100000000  0.4942360000000 1.0
C      1  0.5091170000000  0.4225470000000  0.4269300000000 1.0
C      1  0.5745190000000  0.4638430000000  0.5284810000000 1.0
C      1  0.5007130000000  0.4994240000000  0.3757700000000 1.0
C      1  0.5126680000000  0.5519990000000  0.5335820000000 1.0
C      1  0.5923670000000  0.5233390000000  0.5399490000000 1.0
C      1  0.5727780000000  0.5626920000000  0.4474570000000 1.0
C      1  0.4936570000000  0.4950420000000  0.5051020000000 1.0
C      1  0.4942240000000  0.5589790000000  0.4524550000000 1.0
C      1  0.4590760000000  0.4217660000000  0.5607410000000 1.0
C      1  0.5869930000000  0.4968340000000  0.4144150000000 1.0
C      1  0.5417270000000  0.4489010000000  0.4903350000000 1.0
C      1  0.5806670000000  0.4438650000000  0.5638650000000 1.0
C      1  0.5552380000000  0.3983500000000  0.4788030000000 1.0
C      1  0.3963930000000  0.4911630000000  0.4625600000000 1.0
C      1  0.4603040000000  0.5224190000000  0.5331050000000 1.0
C      1  0.4274740000000  0.5710310000000  0.5718210000000 1.0
C      1  0.5431090000000  0.5024600000000  0.4895460000000 1.0
C      1  0.4609140000000  0.5932050000000  0.4546370000000 1.0
C      1  0.4412850000000  0.4878260000000  0.3958570000000 1.0
C      1  0.5907820000000  0.5841120000000  0.5121330000000 1.0
C      1  0.6060460000000  0.5682330000000  0.5292840000000 1.0
C      1  0.5844810000000  0.4745180000000  0.5694270000000 1.0
C      1  0.5707200000000  0.5945360000000  0.4968900000000 1.0
C      1  0.4962950000000  0.5055960000000  0.6210500000000 1.0
C      1  0.5270250000000  0.4628850000000  0.3913650000000 1.0
C      1  0.4531540000000  0.5930670000000  0.5389930000000 1.0
C      1  0.4821990000000  0.4996530000000  0.4179150000000 1.0
C      1  0.5017180000000  0.4783950000000  0.5496380000000 1.0
C      1  0.4666270000000  0.5491960000000  0.5233650000000 1.0
C      1  0.5394770000000  0.5200050000000  0.5988340000000 1.0
C      1  0.4180920000000  0.4293690000000  0.5879590000000 1.0
C      1  0.4679830000000  0.5677130000000  0.5424010000000 1.0
C      1  0.5200620000000  0.5013390000000  0.5558960000000 1.0
C      1  0.5214280000000  0.5141510000000  0.3868230000000 1.0
C      1  0.4921630000000  0.4474200000000  0.6173820000000 1.0
C      1  0.4400180000000  0.4622180000000  0.4002250000000 1.0
C      1  0.5352780000000  0.4635960000000  0.4130270000000 1.0
C      1  0.5309860000000  0.5885600000000  0.4362150000000 1.0
C      1  0.5025590000000  0.4611270000000  0.4568980000000 1.0
C      1  0.5599350000000  0.5083770000000  0.4160640000000 1.0
C      1  0.5043620000000  0.4018270000000  0.4864180000000 1.0
C      1  0.4654240000000  0.4964020000000  0.4629740000000 1.0
C      1  0.5561070000000  0.4762480000000  0.5745620000000 1.0
C      1  0.4026990000000  0.5165900000000  0.4466540000000 1.0
C      1  0.4524920000000  0.4017750000000  0.4712420000000 1.0
C      1  0.4114740000000  0.5775820000000  0.5201490000000 1.0
C      1  0.5043150000000  0.4898510000000  0.5991720000000 1.0
C      1  0.5191680000000  0.5574600000000  0.5055210000000 1.0
C      1  0.6066120000000  0.5227130000000  0.4630870000000 1.0
C      1  0.5613860000000  0.4537770000000  0.4122930000000 1.0
C      1  0.4702110000000  0.5306470000000  0.5913150000000 1.0
C      1  0.5304330000000  0.3844570000000  0.5178160000000 1.0
C      1  0.6016400000000  0.4810030000000  0.4941290000000 1.0
C      1  0.5618190000000  0.4265820000000  0.4241410000000 1.0
C      1  0.4080150000000  0.4363670000000  0.4774930000000 1.0
C      1  0.4490990000000  0.6068660000000  0.5132960000000 1.0
C      1  0.4789820000000  0.5020820000000  0.5798080000000 1.0
C      1  0.4621190000000  0.4304040000000  0.4262850000000 1.0
C      1  0.5614310000000  0.5383380000000  0.5108730000000 1.0
C      1  0.5244010000000  0.4003110000000  0.5622950000000 1.0
C      1  0.5518830000000  0.4681440000000  0.5464830000000 1.0
END
