TITL C-883734-4173-380 211.95474367737 125000 -21996.2587363685 0 0 150 (C1) n - 1
REM
REM in /home/nfs/bkarasulu/CARBON/AIRSS/Generating-Clusters/ReaxFF-fromJPCA2015/Units_Real/with-SteepDescent/Only-C1/SD-CG/Try1-3A/FIRE-CG
REM
REM
REM
REM
REM
REM ./C.cell (11c1c37f851c82e70ff6c80c92926a4b)
REM
REM compiler GCC version 9.2.1 20190827 (Red Hat 9.2.1-1)
REM options -cpp -mtune=generic -march=x86-64 -g -O0 -fpre-include=/usr/include/finclude/math-vector-fortran.h
REM seed -896026383 1858670044 279403575 1217015754 -1421763659 1938104160 186867432 -472640043 711992947 1348290135 -2002165155 424608310 1473041461 -1546115754 42808590 1736390436 -722366877 -1763168419 -1147412804 9827744 1915301201 162084960 563168214 113874092 951472430 1936419791 53386941 307881955 1975086929 190484236 -2034785940 347876615 837146502
REM
CELL 1.54180   50.00000   50.00000   50.00000   90.00000   90.00000   90.00000
LATT -1
SFAC C  
C      1  0.4655590000000  0.4669900000000  0.5082040000000 1.0
C      1  0.4058920000000  0.4728660000000  0.5424850000000 1.0
C      1  0.5383710000000  0.4351780000000  0.5645500000000 1.0
C      1  0.4659470000000  0.4114390000000  0.5213540000000 1.0
C      1  0.4408220000000  0.5681420000000  0.5410160000000 1.0
C      1  0.4922010000000  0.3994030000000  0.5194110000000 1.0
C      1  0.5138830000000  0.5159310000000  0.5912960000000 1.0
C      1  0.5504230000000  0.4732300000000  0.4208400000000 1.0
C      1  0.4091980000000  0.4920630000000  0.4480090000000 1.0
C      1  0.4437890000000  0.5471860000000  0.4358090000000 1.0
C      1  0.4393300000000  0.4655230000000  0.5697760000000 1.0
C      1  0.4926930000000  0.5759090000000  0.4700860000000 1.0
C      1  0.4852580000000  0.4912730000000  0.4388930000000 1.0
C      1  0.4859680000000  0.4312010000000  0.5653140000000 1.0
C      1  0.4885630000000  0.5332300000000  0.4015790000000 1.0
C      1  0.4629770000000  0.4259390000000  0.5475420000000 1.0
C      1  0.5223280000000  0.5474290000000  0.5115890000000 1.0
C      1  0.5863900000000  0.5538610000000  0.5309950000000 1.0
C      1  0.5588490000000  0.4831440000000  0.5167750000000 1.0
C      1  0.5634780000000  0.4936220000000  0.5730690000000 1.0
C      1  0.5621440000000  0.4105280000000  0.4778720000000 1.0
C      1  0.5472800000000  0.4455820000000  0.4581870000000 1.0
C      1  0.5195470000000  0.4094310000000  0.4459460000000 1.0
C      1  0.5088940000000  0.4624990000000  0.5993160000000 1.0
C      1  0.5394110000000  0.4277930000000  0.4349870000000 1.0
C      1  0.4607480000000  0.4678450000000  0.5892740000000 1.0
C      1  0.4542570000000  0.5729210000000  0.4440150000000 1.0
C      1  0.4984330000000  0.5571920000000  0.4205910000000 1.0
C      1  0.4780620000000  0.5902210000000  0.4962900000000 1.0
C      1  0.4843470000000  0.4512740000000  0.5862610000000 1.0
C      1  0.4848350000000  0.5266090000000  0.4605450000000 1.0
C      1  0.5824110000000  0.5341700000000  0.5529360000000 1.0
C      1  0.5104040000000  0.4573890000000  0.5234710000000 1.0
C      1  0.5340130000000  0.5165980000000  0.5399020000000 1.0
C      1  0.4027310000000  0.5191600000000  0.4428550000000 1.0
C      1  0.4595580000000  0.5015070000000  0.4224420000000 1.0
C      1  0.4420000000000  0.4875860000000  0.5066080000000 1.0
C      1  0.4143480000000  0.4448510000000  0.5378360000000 1.0
C      1  0.5237990000000  0.4611890000000  0.4578090000000 1.0
C      1  0.5847040000000  0.5254480000000  0.4573190000000 1.0
C      1  0.6068780000000  0.5096730000000  0.5252210000000 1.0
C      1  0.5703950000000  0.5683560000000  0.5105940000000 1.0
C      1  0.5177660000000  0.5616320000000  0.4739290000000 1.0
C      1  0.5133530000000  0.5346480000000  0.4628150000000 1.0
C      1  0.5881330000000  0.4924390000000  0.5072610000000 1.0
C      1  0.5190970000000  0.4898480000000  0.5471440000000 1.0
C      1  0.5429870000000  0.5800050000000  0.4735710000000 1.0
C      1  0.5272370000000  0.3963550000000  0.4938540000000 1.0
C      1  0.5110090000000  0.5671710000000  0.5722180000000 1.0
C      1  0.4655090000000  0.5802560000000  0.5413150000000 1.0
C      1  0.4797340000000  0.5008020000000  0.5300750000000 1.0
C      1  0.4342440000000  0.4818460000000  0.4603130000000 1.0
C      1  0.4644620000000  0.4961010000000  0.5956640000000 1.0
C      1  0.4999490000000  0.5048060000000  0.3981400000000 1.0
C      1  0.4981970000000  0.4488350000000  0.4414450000000 1.0
C      1  0.4095940000000  0.4788960000000  0.5122440000000 1.0
C      1  0.4624570000000  0.4736750000000  0.4091410000000 1.0
C      1  0.4511600000000  0.5104040000000  0.5250520000000 1.0
C      1  0.4479820000000  0.4990640000000  0.4797990000000 1.0
C      1  0.4569430000000  0.4184160000000  0.4943190000000 1.0
C      1  0.3876070000000  0.5199200000000  0.5273210000000 1.0
C      1  0.5687960000000  0.5065280000000  0.4434220000000 1.0
C      1  0.5438940000000  0.5274750000000  0.5131680000000 1.0
C      1  0.5703620000000  0.4773750000000  0.4414930000000 1.0
C      1  0.5334590000000  0.4716200000000  0.5116140000000 1.0
C      1  0.5617490000000  0.4372460000000  0.5456700000000 1.0
C      1  0.4987880000000  0.5366580000000  0.5032260000000 1.0
C      1  0.5054970000000  0.4547770000000  0.4111880000000 1.0
C      1  0.4344020000000  0.5600410000000  0.5096790000000 1.0
C      1  0.4384570000000  0.4415860000000  0.4948090000000 1.0
C      1  0.4131380000000  0.4489670000000  0.5092360000000 1.0
C      1  0.4493930000000  0.5819670000000  0.4933700000000 1.0
C      1  0.5246810000000  0.5550140000000  0.4256530000000 1.0
C      1  0.5221560000000  0.5468080000000  0.5880760000000 1.0
C      1  0.5549080000000  0.5656830000000  0.5536630000000 1.0
C      1  0.5826650000000  0.4583270000000  0.5410190000000 1.0
C      1  0.3997010000000  0.5220780000000  0.4888800000000 1.0
C      1  0.4860970000000  0.5423450000000  0.5444720000000 1.0
C      1  0.4298260000000  0.5166780000000  0.5515470000000 1.0
C      1  0.4745990000000  0.5021360000000  0.5694720000000 1.0
C      1  0.4223960000000  0.4872720000000  0.5610110000000 1.0
C      1  0.5157300000000  0.4902660000000  0.6024340000000 1.0
C      1  0.5148630000000  0.5401940000000  0.5390560000000 1.0
C      1  0.4754290000000  0.5078820000000  0.4794660000000 1.0
C      1  0.4832050000000  0.4612070000000  0.4852650000000 1.0
C      1  0.4517520000000  0.4354000000000  0.4503860000000 1.0
C      1  0.4633900000000  0.5257620000000  0.4393700000000 1.0
C      1  0.5976760000000  0.5081680000000  0.5524850000000 1.0
C      1  0.5152130000000  0.4011680000000  0.5379010000000 1.0
C      1  0.5515900000000  0.5888660000000  0.5182880000000 1.0
C      1  0.5683750000000  0.5502070000000  0.4568830000000 1.0
C      1  0.5022820000000  0.5042280000000  0.5667190000000 1.0
C      1  0.5768490000000  0.4230410000000  0.4975950000000 1.0
C      1  0.5390410000000  0.6012280000000  0.4932430000000 1.0
C      1  0.4366820000000  0.4527560000000  0.4670590000000 1.0
C      1  0.5945480000000  0.4633840000000  0.5133640000000 1.0
C      1  0.5133470000000  0.4211430000000  0.5588640000000 1.0
C      1  0.4856550000000  0.5895570000000  0.5305530000000 1.0
C      1  0.5513990000000  0.5480670000000  0.4315800000000 1.0
C      1  0.5060170000000  0.5856550000000  0.5509330000000 1.0
C      1  0.4244220000000  0.4648400000000  0.4238210000000 1.0
C      1  0.5393460000000  0.4791230000000  0.5659310000000 1.0
C      1  0.5550800000000  0.5204240000000  0.4232790000000 1.0
C      1  0.4149780000000  0.5606810000000  0.4685410000000 1.0
C      1  0.6060250000000  0.5333360000000  0.4911070000000 1.0
C      1  0.5203820000000  0.4885250000000  0.4656300000000 1.0
C      1  0.4776850000000  0.5462800000000  0.5167730000000 1.0
C      1  0.5955530000000  0.5120020000000  0.4808620000000 1.0
C      1  0.4677970000000  0.4166080000000  0.4660910000000 1.0
C      1  0.4055610000000  0.5293270000000  0.5437220000000 1.0
C      1  0.4666570000000  0.5427850000000  0.5666100000000 1.0
C      1  0.5732300000000  0.4587140000000  0.4635680000000 1.0
C      1  0.3917630000000  0.5084450000000  0.4656230000000 1.0
C      1  0.4387350000000  0.4405950000000  0.5534740000000 1.0
C      1  0.5489840000000  0.5499510000000  0.5767990000000 1.0
C      1  0.4383000000000  0.5462390000000  0.5597410000000 1.0
C      1  0.5862660000000  0.4498860000000  0.4887840000000 1.0
C      1  0.5612150000000  0.4187130000000  0.5238580000000 1.0
C      1  0.4827510000000  0.4690560000000  0.4567430000000 1.0
C      1  0.4379730000000  0.5796130000000  0.4678670000000 1.0
C      1  0.4886860000000  0.6174780000000  0.4899850000000 1.0
C      1  0.4929020000000  0.4195270000000  0.4509500000000 1.0
C      1  0.5377500000000  0.5851550000000  0.5440250000000 1.0
C      1  0.5024470000000  0.4430490000000  0.4986650000000 1.0
C      1  0.3893110000000  0.5021030000000  0.5057220000000 1.0
C      1  0.4851980000000  0.4721600000000  0.5302680000000 1.0
C      1  0.4624830000000  0.5231960000000  0.3962950000000 1.0
C      1  0.6093070000000  0.5382970000000  0.5184750000000 1.0
C      1  0.4833970000000  0.5722160000000  0.4434430000000 1.0
C      1  0.5857970000000  0.4815710000000  0.5592700000000 1.0
C      1  0.4893980000000  0.4753260000000  0.3988250000000 1.0
C      1  0.4522300000000  0.5356790000000  0.5093960000000 1.0
C      1  0.5443870000000  0.5108570000000  0.4897560000000 1.0
C      1  0.5389870000000  0.4002920000000  0.5208650000000 1.0
C      1  0.5343800000000  0.5141380000000  0.4627740000000 1.0
C      1  0.5396810000000  0.3984700000000  0.4663830000000 1.0
C      1  0.5223640000000  0.4925940000000  0.4942250000000 1.0
C      1  0.5678680000000  0.5672140000000  0.4801950000000 1.0
C      1  0.4484390000000  0.4502290000000  0.4224420000000 1.0
C      1  0.5033050000000  0.4133610000000  0.4961220000000 1.0
C      1  0.4103940000000  0.5490000000000  0.4934940000000 1.0
C      1  0.4163540000000  0.5435910000000  0.4449660000000 1.0
C      1  0.5369510000000  0.4989180000000  0.4159550000000 1.0
C      1  0.4945020000000  0.5085950000000  0.5040190000000 1.0
C      1  0.4675740000000  0.5228720000000  0.5876890000000 1.0
C      1  0.5133670000000  0.6128540000000  0.4914540000000 1.0
C      1  0.5572240000000  0.5224630000000  0.5636870000000 1.0
C      1  0.5336680000000  0.4564040000000  0.5842580000000 1.0
C      1  0.5086550000000  0.5024520000000  0.4257770000000 1.0
C      1  0.5337470000000  0.4495400000000  0.4151940000000 1.0
END
