TITL C-884127-5181-122 -6.34342376414028 125000 -25022.6237564501 0 0 168 (C1) n - 1
REM
REM in /home/nfs/bkarasulu/CARBON/AIRSS/Generating-Clusters/ReaxFF-fromJPCA2015/Units_Real/with-SteepDescent/Only-C1/SD-CG/Try1-3A/FIRE-CG
REM
REM
REM
REM
REM
REM ./C.cell (11c1c37f851c82e70ff6c80c92926a4b)
REM
REM compiler GCC version 9.2.1 20190827 (Red Hat 9.2.1-1)
REM options -cpp -mtune=generic -march=x86-64 -g -O0 -fpre-include=/usr/include/finclude/math-vector-fortran.h
REM seed -555488699 -927558174 -510433107 746036636 1123884549 -724043710 1060256554 -377939965 -935516901 -2065352990 777016245 -1701511005 -1259140812 -88630284 -1636080439 -1122418667 1290606895 25830253 2038390972 -706079340 -1328937314 389134465 -750508693 1920685590 1625443367 1426600278 916831699 -1074145499 -733415000 -1622246308 -496550609 1652339450 -196137001
REM
CELL 1.54180   50.00000   50.00000   50.00000   90.00000   90.00000   90.00000
LATT -1
SFAC C  
C      1  0.4546580000000  0.5381050000000  0.4133950000000 1.0
C      1  0.5204900000000  0.6064100000000  0.4565220000000 1.0
C      1  0.5270650000000  0.5138660000000  0.5633950000000 1.0
C      1  0.6046290000000  0.5512590000000  0.4818260000000 1.0
C      1  0.3933170000000  0.5280630000000  0.4751000000000 1.0
C      1  0.4083600000000  0.4325340000000  0.4857580000000 1.0
C      1  0.5403950000000  0.5693570000000  0.4637260000000 1.0
C      1  0.4896870000000  0.5156830000000  0.5788870000000 1.0
C      1  0.4924720000000  0.5319060000000  0.4555460000000 1.0
C      1  0.5469270000000  0.5985970000000  0.5074400000000 1.0
C      1  0.5700720000000  0.5062600000000  0.4177900000000 1.0
C      1  0.5930500000000  0.4931010000000  0.4307430000000 1.0
C      1  0.5078640000000  0.4418910000000  0.4066280000000 1.0
C      1  0.5995670000000  0.5216840000000  0.5312970000000 1.0
C      1  0.5117290000000  0.5242210000000  0.5403850000000 1.0
C      1  0.4408290000000  0.5248460000000  0.5190100000000 1.0
C      1  0.4008660000000  0.5538600000000  0.4677770000000 1.0
C      1  0.5765390000000  0.4642060000000  0.5077300000000 1.0
C      1  0.4386040000000  0.5478080000000  0.4515910000000 1.0
C      1  0.4823110000000  0.4296350000000  0.4156180000000 1.0
C      1  0.4610350000000  0.4892690000000  0.5453550000000 1.0
C      1  0.4821910000000  0.5352070000000  0.4016660000000 1.0
C      1  0.5070230000000  0.3956720000000  0.5520550000000 1.0
C      1  0.4340920000000  0.4758630000000  0.5054680000000 1.0
C      1  0.4310580000000  0.4232990000000  0.5021010000000 1.0
C      1  0.4028380000000  0.4829290000000  0.5058850000000 1.0
C      1  0.4552660000000  0.4384990000000  0.4250480000000 1.0
C      1  0.5048620000000  0.4210550000000  0.4745690000000 1.0
C      1  0.4924910000000  0.5008060000000  0.6159320000000 1.0
C      1  0.4848920000000  0.5189790000000  0.5292020000000 1.0
C      1  0.5482640000000  0.4953250000000  0.5558800000000 1.0
C      1  0.4340070000000  0.5921760000000  0.5282520000000 1.0
C      1  0.5194630000000  0.5141130000000  0.5098660000000 1.0
C      1  0.5400150000000  0.5175620000000  0.6025210000000 1.0
C      1  0.5667040000000  0.5470650000000  0.5598650000000 1.0
C      1  0.4325660000000  0.4729700000000  0.5796710000000 1.0
C      1  0.4914120000000  0.5388880000000  0.5964640000000 1.0
C      1  0.5683890000000  0.5632280000000  0.4651040000000 1.0
C      1  0.4959650000000  0.4497450000000  0.4687130000000 1.0
C      1  0.5782910000000  0.5158460000000  0.4613090000000 1.0
C      1  0.4996710000000  0.6025620000000  0.4962620000000 1.0
C      1  0.6133930000000  0.5244950000000  0.4831930000000 1.0
C      1  0.5487860000000  0.4325000000000  0.4907570000000 1.0
C      1  0.5058690000000  0.4440210000000  0.5725900000000 1.0
C      1  0.5143850000000  0.5512820000000  0.5411300000000 1.0
C      1  0.5205360000000  0.4954490000000  0.4650580000000 1.0
C      1  0.4834430000000  0.4839740000000  0.4386950000000 1.0
C      1  0.5225590000000  0.5630690000000  0.5654440000000 1.0
C      1  0.5455520000000  0.4272780000000  0.4443320000000 1.0
C      1  0.4949750000000  0.5652930000000  0.5817710000000 1.0
C      1  0.4399300000000  0.5595180000000  0.4269340000000 1.0
C      1  0.5074040000000  0.5514220000000  0.4063570000000 1.0
C      1  0.5501990000000  0.4617890000000  0.5876960000000 1.0
C      1  0.4860770000000  0.5124690000000  0.4743980000000 1.0
C      1  0.5277890000000  0.6017860000000  0.4844620000000 1.0
C      1  0.4456640000000  0.4253480000000  0.5509620000000 1.0
C      1  0.5101050000000  0.4968440000000  0.3996930000000 1.0
C      1  0.5860910000000  0.5323160000000  0.5469990000000 1.0
C      1  0.4223400000000  0.4751770000000  0.4345420000000 1.0
C      1  0.5052250000000  0.5629140000000  0.5167990000000 1.0
C      1  0.5740910000000  0.5572370000000  0.4941040000000 1.0
C      1  0.5196300000000  0.5214650000000  0.4521720000000 1.0
C      1  0.4709700000000  0.4938780000000  0.4621000000000 1.0
C      1  0.4815540000000  0.4414710000000  0.5386210000000 1.0
C      1  0.5357830000000  0.4184810000000  0.4691570000000 1.0
C      1  0.5616760000000  0.5342850000000  0.4202190000000 1.0
C      1  0.5242190000000  0.5149580000000  0.4186690000000 1.0
C      1  0.4077160000000  0.5606400000000  0.4967190000000 1.0
C      1  0.4808880000000  0.4493960000000  0.5916390000000 1.0
C      1  0.4344290000000  0.5018400000000  0.5743710000000 1.0
C      1  0.5052200000000  0.4375340000000  0.5216830000000 1.0
C      1  0.4899460000000  0.6082220000000  0.4564590000000 1.0
C      1  0.5100140000000  0.4726860000000  0.4483170000000 1.0
C      1  0.4409820000000  0.5226500000000  0.4897400000000 1.0
C      1  0.4648920000000  0.5389430000000  0.5275300000000 1.0
C      1  0.5909110000000  0.4664780000000  0.5596390000000 1.0
C      1  0.4274200000000  0.4412960000000  0.5430320000000 1.0
C      1  0.4884530000000  0.5607230000000  0.4499590000000 1.0
C      1  0.5420860000000  0.5366200000000  0.5753930000000 1.0
C      1  0.5625960000000  0.5721030000000  0.5436730000000 1.0
C      1  0.4585620000000  0.5695100000000  0.4908430000000 1.0
C      1  0.4460200000000  0.4969880000000  0.5217020000000 1.0
C      1  0.4862690000000  0.4759500000000  0.5068650000000 1.0
C      1  0.5237000000000  0.4239600000000  0.4255570000000 1.0
C      1  0.5661190000000  0.5083250000000  0.4863610000000 1.0
C      1  0.4774010000000  0.6159360000000  0.5079600000000 1.0
C      1  0.4653700000000  0.4882180000000  0.4146520000000 1.0
C      1  0.5307500000000  0.4128710000000  0.5626420000000 1.0
C      1  0.4692190000000  0.5678340000000  0.5738590000000 1.0
C      1  0.4134610000000  0.5339320000000  0.5407180000000 1.0
C      1  0.5585900000000  0.4557640000000  0.5298850000000 1.0
C      1  0.5299540000000  0.4850910000000  0.5099380000000 1.0
C      1  0.4741820000000  0.4595840000000  0.4840670000000 1.0
C      1  0.4973070000000  0.4097670000000  0.4307340000000 1.0
C      1  0.4743590000000  0.4004520000000  0.5151080000000 1.0
C      1  0.4760620000000  0.5596930000000  0.5121430000000 1.0
C      1  0.4425360000000  0.5601430000000  0.5754200000000 1.0
C      1  0.5546770000000  0.4810500000000  0.4226880000000 1.0
C      1  0.5434800000000  0.4871920000000  0.4820500000000 1.0
C      1  0.5711990000000  0.4478560000000  0.4532950000000 1.0
C      1  0.5908480000000  0.4890890000000  0.4979010000000 1.0
C      1  0.5275310000000  0.5446520000000  0.4713170000000 1.0
C      1  0.4056670000000  0.4602840000000  0.4547330000000 1.0
C      1  0.4132830000000  0.5054240000000  0.5537450000000 1.0
C      1  0.4323470000000  0.5013750000000  0.4712830000000 1.0
C      1  0.5201620000000  0.3937250000000  0.5263970000000 1.0
C      1  0.5330970000000  0.4375850000000  0.5797230000000 1.0
C      1  0.5347830000000  0.5386590000000  0.4067030000000 1.0
C      1  0.6100260000000  0.5100350000000  0.5084550000000 1.0
C      1  0.5058140000000  0.5915510000000  0.5211050000000 1.0
C      1  0.4156410000000  0.4634110000000  0.5554860000000 1.0
C      1  0.4927680000000  0.4736140000000  0.6068390000000 1.0
C      1  0.5389160000000  0.4759840000000  0.5381390000000 1.0
C      1  0.5999710000000  0.4502700000000  0.4682810000000 1.0
C      1  0.4274860000000  0.5032280000000  0.4421400000000 1.0
C      1  0.4867020000000  0.4040940000000  0.4572630000000 1.0
C      1  0.4490420000000  0.5462720000000  0.4773390000000 1.0
C      1  0.5428530000000  0.4095240000000  0.5358850000000 1.0
C      1  0.5964530000000  0.4433850000000  0.5177810000000 1.0
C      1  0.4714400000000  0.4237060000000  0.5609330000000 1.0
C      1  0.5109000000000  0.4696650000000  0.5583550000000 1.0
C      1  0.5682040000000  0.4795140000000  0.5717000000000 1.0
C      1  0.5118930000000  0.4821220000000  0.5858490000000 1.0
C      1  0.4794840000000  0.5827270000000  0.4671900000000 1.0
C      1  0.5455560000000  0.4323580000000  0.5190930000000 1.0
C      1  0.5376900000000  0.4852610000000  0.5994720000000 1.0
C      1  0.4834840000000  0.4708900000000  0.5400080000000 1.0
C      1  0.4157880000000  0.5611180000000  0.4430900000000 1.0
C      1  0.4343300000000  0.5798610000000  0.5559660000000 1.0
C      1  0.4493030000000  0.4762120000000  0.4751610000000 1.0
C      1  0.4000520000000  0.4611370000000  0.4840970000000 1.0
C      1  0.4445780000000  0.4645160000000  0.4195320000000 1.0
C      1  0.5775510000000  0.4679290000000  0.4326420000000 1.0
C      1  0.4640930000000  0.5074860000000  0.5682560000000 1.0
C      1  0.4913000000000  0.5080380000000  0.5021420000000 1.0
C      1  0.6041160000000  0.4783250000000  0.4746260000000 1.0
C      1  0.4158900000000  0.4326600000000  0.4569090000000 1.0
C      1  0.4591430000000  0.4077020000000  0.4654750000000 1.0
C      1  0.4460930000000  0.5120240000000  0.4213240000000 1.0
C      1  0.5114520000000  0.4616860000000  0.5069050000000 1.0
C      1  0.4781970000000  0.3994970000000  0.5447200000000 1.0
C      1  0.4544840000000  0.6083550000000  0.5182960000000 1.0
C      1  0.5290420000000  0.5832560000000  0.4415500000000 1.0
C      1  0.5105820000000  0.5231240000000  0.6138220000000 1.0
C      1  0.5719570000000  0.5405670000000  0.4472500000000 1.0
C      1  0.4361880000000  0.4476820000000  0.5180900000000 1.0
C      1  0.5312230000000  0.5375630000000  0.4989620000000 1.0
C      1  0.5294140000000  0.4696240000000  0.4259000000000 1.0
C      1  0.6091590000000  0.4345470000000  0.4909430000000 1.0
C      1  0.4535870000000  0.4063330000000  0.4950730000000 1.0
C      1  0.5061700000000  0.5702880000000  0.4285650000000 1.0
C      1  0.6038000000000  0.5019700000000  0.4584560000000 1.0
C      1  0.5302410000000  0.6002920000000  0.5314670000000 1.0
C      1  0.4425080000000  0.4239460000000  0.4476830000000 1.0
C      1  0.4046510000000  0.4832910000000  0.5377560000000 1.0
C      1  0.5391370000000  0.5850590000000  0.5540240000000 1.0
C      1  0.4300930000000  0.5782530000000  0.5031010000000 1.0
C      1  0.4203340000000  0.5564590000000  0.5577460000000 1.0
C      1  0.5016780000000  0.4095640000000  0.5073960000000 1.0
C      1  0.5586460000000  0.4579480000000  0.4799810000000 1.0
C      1  0.5657460000000  0.5786050000000  0.5154330000000 1.0
C      1  0.4834470000000  0.5070390000000  0.3963250000000 1.0
C      1  0.3942910000000  0.5137660000000  0.4985630000000 1.0
C      1  0.6046550000000  0.4532470000000  0.5429560000000 1.0
C      1  0.5591490000000  0.5326620000000  0.5006790000000 1.0
C      1  0.3991820000000  0.5379910000000  0.5143820000000 1.0
C      1  0.5167420000000  0.4686180000000  0.4030650000000 1.0
C      1  0.4570200000000  0.4610380000000  0.5857280000000 1.0
END
