TITL C-884134-5972-364 24.0383950628806 125000 -19385.4567105612 0 0 129 (C1) n - 1
REM
REM in /home/nfs/bkarasulu/CARBON/AIRSS/Generating-Clusters/ReaxFF-fromJPCA2015/Units_Real/with-SteepDescent/Only-C1/SD-CG/Try1-3A/FIRE-CG
REM
REM
REM
REM
REM
REM ./C.cell (11c1c37f851c82e70ff6c80c92926a4b)
REM
REM compiler GCC version 9.2.1 20190827 (Red Hat 9.2.1-1)
REM options -cpp -mtune=generic -march=x86-64 -g -O0 -fpre-include=/usr/include/finclude/math-vector-fortran.h
REM seed 751718621 -2043961195 1915773271 323175632 -1161148345 -1635146157 2037384185 1926761094 -631513666 -1992632963 1368232666 -2060636800 1030734307 2041068011 998409212 -2107384967 -472458674 1082552290 2137381361 1337954306 -876810688 1848603698 -1761732275 -1673435862 1330003575 -566675243 -1989762751 -1749554531 -1730457531 759785702 2029465306 -1696569473 -898930749
REM
CELL 1.54180   50.00000   50.00000   50.00000   90.00000   90.00000   90.00000
LATT -1
SFAC C  
C      1  0.5906430000000  0.4952340000000  0.4800300000000 1.0
C      1  0.4847530000000  0.5638510000000  0.5540770000000 1.0
C      1  0.5982180000000  0.4966140000000  0.5079440000000 1.0
C      1  0.4572040000000  0.4359420000000  0.5671430000000 1.0
C      1  0.4749250000000  0.4908440000000  0.4622100000000 1.0
C      1  0.5272930000000  0.4929510000000  0.5419610000000 1.0
C      1  0.5503390000000  0.5276850000000  0.5731280000000 1.0
C      1  0.5660070000000  0.5171220000000  0.5332590000000 1.0
C      1  0.5848300000000  0.4961450000000  0.5350270000000 1.0
C      1  0.5309030000000  0.4877350000000  0.4138800000000 1.0
C      1  0.4208480000000  0.4560220000000  0.5573900000000 1.0
C      1  0.5770990000000  0.5661670000000  0.4877360000000 1.0
C      1  0.4138780000000  0.4788820000000  0.5407700000000 1.0
C      1  0.4268960000000  0.5533530000000  0.4450780000000 1.0
C      1  0.5812820000000  0.5476390000000  0.4649240000000 1.0
C      1  0.5317300000000  0.4573400000000  0.5788390000000 1.0
C      1  0.4357510000000  0.5301800000000  0.4289160000000 1.0
C      1  0.5326350000000  0.5154070000000  0.4228000000000 1.0
C      1  0.5581300000000  0.4810900000000  0.4248930000000 1.0
C      1  0.5780660000000  0.4549320000000  0.5028710000000 1.0
C      1  0.4329760000000  0.5019810000000  0.4369510000000 1.0
C      1  0.4574880000000  0.4857910000000  0.5349420000000 1.0
C      1  0.5318780000000  0.5877710000000  0.5373890000000 1.0
C      1  0.5390890000000  0.4825740000000  0.4680800000000 1.0
C      1  0.4174730000000  0.4991040000000  0.4622610000000 1.0
C      1  0.4429610000000  0.4589570000000  0.5783930000000 1.0
C      1  0.4130570000000  0.5228960000000  0.4804660000000 1.0
C      1  0.5316620000000  0.5832440000000  0.4703780000000 1.0
C      1  0.4643800000000  0.5710300000000  0.5345840000000 1.0
C      1  0.5718550000000  0.4745440000000  0.5512060000000 1.0
C      1  0.5747200000000  0.4483370000000  0.4568260000000 1.0
C      1  0.5128750000000  0.5360810000000  0.4164980000000 1.0
C      1  0.4327050000000  0.4964190000000  0.5529540000000 1.0
C      1  0.4673230000000  0.5073610000000  0.5804460000000 1.0
C      1  0.4804630000000  0.5393280000000  0.4713140000000 1.0
C      1  0.4934020000000  0.4729550000000  0.4478490000000 1.0
C      1  0.4530320000000  0.4279970000000  0.4685120000000 1.0
C      1  0.4679630000000  0.4883950000000  0.4909730000000 1.0
C      1  0.4997210000000  0.5405170000000  0.5430990000000 1.0
C      1  0.5106530000000  0.3922370000000  0.5096130000000 1.0
C      1  0.4817060000000  0.5894070000000  0.5206290000000 1.0
C      1  0.4466450000000  0.5751240000000  0.4463480000000 1.0
C      1  0.5499630000000  0.4094280000000  0.4780560000000 1.0
C      1  0.5037500000000  0.5530430000000  0.4621580000000 1.0
C      1  0.4835430000000  0.5227650000000  0.4221340000000 1.0
C      1  0.4522280000000  0.4829500000000  0.4247440000000 1.0
C      1  0.4847910000000  0.4435820000000  0.5607450000000 1.0
C      1  0.5568210000000  0.5494020000000  0.4500620000000 1.0
C      1  0.5174520000000  0.4363050000000  0.4824850000000 1.0
C      1  0.4564060000000  0.5468770000000  0.5186910000000 1.0
C      1  0.5295380000000  0.4985480000000  0.4953940000000 1.0
C      1  0.5452860000000  0.5131130000000  0.5490260000000 1.0
C      1  0.5383540000000  0.5553070000000  0.5132840000000 1.0
C      1  0.5342970000000  0.5520170000000  0.5760810000000 1.0
C      1  0.4598880000000  0.5407890000000  0.4168690000000 1.0
C      1  0.4939650000000  0.4463940000000  0.4924400000000 1.0
C      1  0.5700770000000  0.4542070000000  0.5313050000000 1.0
C      1  0.5053230000000  0.4907430000000  0.5866340000000 1.0
C      1  0.4516470000000  0.5906530000000  0.4708480000000 1.0
C      1  0.4809060000000  0.5495250000000  0.5796220000000 1.0
C      1  0.4631630000000  0.4080880000000  0.5118200000000 1.0
C      1  0.4860120000000  0.3963670000000  0.5214050000000 1.0
C      1  0.4950660000000  0.5680740000000  0.4362370000000 1.0
C      1  0.5241130000000  0.4789920000000  0.5174010000000 1.0
C      1  0.5595870000000  0.4523870000000  0.4326240000000 1.0
C      1  0.5795960000000  0.4261340000000  0.5008580000000 1.0
C      1  0.5016280000000  0.4612400000000  0.5161080000000 1.0
C      1  0.5466430000000  0.5733200000000  0.5574660000000 1.0
C      1  0.4365620000000  0.4409650000000  0.4506250000000 1.0
C      1  0.4167580000000  0.5178690000000  0.5083370000000 1.0
C      1  0.5327790000000  0.5067620000000  0.4516400000000 1.0
C      1  0.5043510000000  0.5766610000000  0.4761930000000 1.0
C      1  0.5222300000000  0.3980660000000  0.5342400000000 1.0
C      1  0.5817370000000  0.5610940000000  0.5161080000000 1.0
C      1  0.4856990000000  0.4657490000000  0.5410150000000 1.0
C      1  0.4861210000000  0.5147800000000  0.5520220000000 1.0
C      1  0.4670390000000  0.5537560000000  0.4921990000000 1.0
C      1  0.4602430000000  0.4803820000000  0.5895300000000 1.0
C      1  0.4473650000000  0.4788290000000  0.5084140000000 1.0
C      1  0.4284660000000  0.5942210000000  0.4863370000000 1.0
C      1  0.5489330000000  0.5737470000000  0.4922730000000 1.0
C      1  0.5068420000000  0.5178490000000  0.5006410000000 1.0
C      1  0.5027180000000  0.4797600000000  0.4205180000000 1.0
C      1  0.4178390000000  0.4864490000000  0.5096910000000 1.0
C      1  0.5130500000000  0.5408170000000  0.5173430000000 1.0
C      1  0.5031500000000  0.4497950000000  0.5832540000000 1.0
C      1  0.5026430000000  0.4897780000000  0.5560230000000 1.0
C      1  0.5607470000000  0.5350140000000  0.5120190000000 1.0
C      1  0.5342760000000  0.5330340000000  0.4653360000000 1.0
C      1  0.4871910000000  0.4712070000000  0.5978430000000 1.0
C      1  0.4524040000000  0.4538000000000  0.4293170000000 1.0
C      1  0.5300980000000  0.4544320000000  0.4642550000000 1.0
C      1  0.5718960000000  0.4702570000000  0.4769800000000 1.0
C      1  0.4818050000000  0.5077710000000  0.5057800000000 1.0
C      1  0.4765490000000  0.4364970000000  0.4272830000000 1.0
C      1  0.5462810000000  0.5219930000000  0.4904340000000 1.0
C      1  0.5059870000000  0.4327700000000  0.4284800000000 1.0
C      1  0.4910960000000  0.4433220000000  0.4520110000000 1.0
C      1  0.4673120000000  0.5668890000000  0.4270870000000 1.0
C      1  0.4782320000000  0.5816310000000  0.4894190000000 1.0
C      1  0.4306940000000  0.5340270000000  0.5279330000000 1.0
C      1  0.5864320000000  0.5180100000000  0.4597950000000 1.0
C      1  0.4778390000000  0.4932880000000  0.4141130000000 1.0
C      1  0.5322930000000  0.4417500000000  0.4379710000000 1.0
C      1  0.5738810000000  0.4219900000000  0.4715510000000 1.0
C      1  0.4107910000000  0.5502910000000  0.4691630000000 1.0
C      1  0.4554890000000  0.5328800000000  0.5768940000000 1.0
C      1  0.5230930000000  0.4082180000000  0.4846550000000 1.0
C      1  0.5746430000000  0.5006620000000  0.4403330000000 1.0
C      1  0.4346790000000  0.5254300000000  0.5558280000000 1.0
C      1  0.5676160000000  0.4238040000000  0.5292170000000 1.0
C      1  0.5190030000000  0.5145880000000  0.5964640000000 1.0
C      1  0.4252650000000  0.4348010000000  0.4988650000000 1.0
C      1  0.5094490000000  0.5418320000000  0.5866890000000 1.0
C      1  0.5443350000000  0.4101200000000  0.5340780000000 1.0
C      1  0.5080300000000  0.5904740000000  0.5287760000000 1.0
C      1  0.5203460000000  0.5633470000000  0.4232830000000 1.0
C      1  0.5453570000000  0.5037040000000  0.5879300000000 1.0
C      1  0.4176500000000  0.4490050000000  0.4752900000000 1.0
C      1  0.4360090000000  0.4208100000000  0.5205740000000 1.0
C      1  0.4346530000000  0.4311700000000  0.5481760000000 1.0
C      1  0.4123550000000  0.4773310000000  0.4800890000000 1.0
C      1  0.4722420000000  0.4260700000000  0.4895170000000 1.0
C      1  0.4698290000000  0.5112700000000  0.5295930000000 1.0
C      1  0.5402510000000  0.5723040000000  0.4441810000000 1.0
C      1  0.5680870000000  0.5698120000000  0.5390430000000 1.0
C      1  0.4777450000000  0.5173880000000  0.4530480000000 1.0
C      1  0.4155430000000  0.5752600000000  0.4824320000000 1.0
C      1  0.5525020000000  0.4769830000000  0.5747880000000 1.0
END
