TITL C-883740-3686-331 5.27420967717207 125000 -18509.3587980173 0 0 126 (C1) n - 1
REM
REM in /home/nfs/bkarasulu/CARBON/AIRSS/Generating-Clusters/ReaxFF-fromJPCA2015/Units_Real/with-SteepDescent/Only-C1/SD-CG/Try1-3A/FIRE-CG
REM
REM
REM
REM
REM
REM ./C.cell (11c1c37f851c82e70ff6c80c92926a4b)
REM
REM compiler GCC version 9.2.1 20190827 (Red Hat 9.2.1-1)
REM options -cpp -mtune=generic -march=x86-64 -g -O0 -fpre-include=/usr/include/finclude/math-vector-fortran.h
REM seed -893858696 249440821 -684039830 427497645 541417274 -1223590142 625054805 -55453642 -207771006 -1183823 1787009897 -107719106 704991605 1340774937 832238614 -81539155 -1798645340 -51114706 -1728371873 -2076562246 2106037527 1981513036 -2080501376 710147722 47748431 -544622835 1998839312 -1959994203 340287545 1585001552 -1847852983 -5122513 1063883168
REM
CELL 1.54180   50.00000   50.00000   50.00000   90.00000   90.00000   90.00000
LATT -1
SFAC C  
C      1  0.5260320000000  0.4215200000000  0.4738660000000 1.0
C      1  0.4720380000000  0.4600420000000  0.5090700000000 1.0
C      1  0.4424730000000  0.5722160000000  0.5339170000000 1.0
C      1  0.5070670000000  0.5731620000000  0.4426660000000 1.0
C      1  0.6065080000000  0.5137320000000  0.5037600000000 1.0
C      1  0.4527370000000  0.4961960000000  0.5898370000000 1.0
C      1  0.6059780000000  0.5429000000000  0.5138450000000 1.0
C      1  0.5830230000000  0.4581830000000  0.4936680000000 1.0
C      1  0.4220960000000  0.4638210000000  0.5075900000000 1.0
C      1  0.4636150000000  0.5301100000000  0.5522530000000 1.0
C      1  0.4178950000000  0.4871500000000  0.5258680000000 1.0
C      1  0.5680700000000  0.5562840000000  0.4856970000000 1.0
C      1  0.4988960000000  0.4121750000000  0.5188570000000 1.0
C      1  0.5072580000000  0.5323640000000  0.4848010000000 1.0
C      1  0.4313500000000  0.5222060000000  0.4766450000000 1.0
C      1  0.5465790000000  0.4255870000000  0.5167100000000 1.0
C      1  0.5172690000000  0.4394560000000  0.5653020000000 1.0
C      1  0.4961030000000  0.5481970000000  0.4329230000000 1.0
C      1  0.5626800000000  0.5343190000000  0.5556610000000 1.0
C      1  0.5426260000000  0.4713130000000  0.4703990000000 1.0
C      1  0.4054870000000  0.5390820000000  0.5103370000000 1.0
C      1  0.4103770000000  0.5010890000000  0.4715220000000 1.0
C      1  0.4697860000000  0.5309900000000  0.5014840000000 1.0
C      1  0.5828740000000  0.5000240000000  0.4573730000000 1.0
C      1  0.5614630000000  0.5092670000000  0.4963520000000 1.0
C      1  0.4909490000000  0.4386670000000  0.5768420000000 1.0
C      1  0.4817530000000  0.4441440000000  0.4861380000000 1.0
C      1  0.5024740000000  0.5008570000000  0.4535920000000 1.0
C      1  0.4983580000000  0.4850570000000  0.4022790000000 1.0
C      1  0.4697470000000  0.4055670000000  0.5165130000000 1.0
C      1  0.4789280000000  0.4165410000000  0.4773700000000 1.0
C      1  0.4537360000000  0.4951830000000  0.4189610000000 1.0
C      1  0.5068540000000  0.5127470000000  0.4076570000000 1.0
C      1  0.5171290000000  0.5029250000000  0.5123270000000 1.0
C      1  0.4610960000000  0.4864710000000  0.5010610000000 1.0
C      1  0.4276450000000  0.4372980000000  0.5243680000000 1.0
C      1  0.5433240000000  0.5784950000000  0.5421490000000 1.0
C      1  0.4415680000000  0.5260480000000  0.5007770000000 1.0
C      1  0.4759670000000  0.5316010000000  0.5775140000000 1.0
C      1  0.4538890000000  0.4083870000000  0.4912700000000 1.0
C      1  0.5079920000000  0.4829300000000  0.5453780000000 1.0
C      1  0.5442280000000  0.5377930000000  0.4385100000000 1.0
C      1  0.5222440000000  0.5704420000000  0.5599320000000 1.0
C      1  0.4927470000000  0.5712180000000  0.5434810000000 1.0
C      1  0.5134960000000  0.4265560000000  0.4480760000000 1.0
C      1  0.5396360000000  0.5676790000000  0.4806500000000 1.0
C      1  0.5926690000000  0.4530660000000  0.4613610000000 1.0
C      1  0.5229050000000  0.4139300000000  0.5029520000000 1.0
C      1  0.4708760000000  0.5075940000000  0.5196470000000 1.0
C      1  0.6059330000000  0.5052790000000  0.4750860000000 1.0
C      1  0.4193160000000  0.4768540000000  0.5530620000000 1.0
C      1  0.5479150000000  0.4447670000000  0.5399020000000 1.0
C      1  0.4415320000000  0.4464750000000  0.5713350000000 1.0
C      1  0.3943530000000  0.5221040000000  0.4903340000000 1.0
C      1  0.4422560000000  0.5396420000000  0.4578970000000 1.0
C      1  0.5699250000000  0.5311340000000  0.4789640000000 1.0
C      1  0.5165310000000  0.5042130000000  0.5617770000000 1.0
C      1  0.4849850000000  0.4842960000000  0.4647750000000 1.0
C      1  0.4191710000000  0.5062470000000  0.4429240000000 1.0
C      1  0.5907340000000  0.4628010000000  0.5232300000000 1.0
C      1  0.5203980000000  0.5308370000000  0.5465490000000 1.0
C      1  0.5243000000000  0.4636580000000  0.5814270000000 1.0
C      1  0.5455710000000  0.4922710000000  0.4283090000000 1.0
C      1  0.4655230000000  0.5588160000000  0.5464910000000 1.0
C      1  0.4640950000000  0.5715330000000  0.4715780000000 1.0
C      1  0.5332210000000  0.5439850000000  0.5701260000000 1.0
C      1  0.4365970000000  0.4309410000000  0.4851930000000 1.0
C      1  0.4202150000000  0.4478460000000  0.5514570000000 1.0
C      1  0.4222590000000  0.5162590000000  0.5211640000000 1.0
C      1  0.5095240000000  0.5491420000000  0.5266030000000 1.0
C      1  0.5050270000000  0.4581140000000  0.4135640000000 1.0
C      1  0.4570850000000  0.5234440000000  0.4137270000000 1.0
C      1  0.4430950000000  0.4904490000000  0.4465860000000 1.0
C      1  0.5371160000000  0.5978020000000  0.5194800000000 1.0
C      1  0.5764550000000  0.4682700000000  0.4442080000000 1.0
C      1  0.4502570000000  0.5220430000000  0.5786010000000 1.0
C      1  0.4847250000000  0.4203370000000  0.4490100000000 1.0
C      1  0.4266540000000  0.5630400000000  0.5104000000000 1.0
C      1  0.5511790000000  0.4630710000000  0.4283450000000 1.0
C      1  0.4221770000000  0.4689950000000  0.4795990000000 1.0
C      1  0.4443240000000  0.5791970000000  0.4925790000000 1.0
C      1  0.5815690000000  0.5093760000000  0.5180350000000 1.0
C      1  0.4685630000000  0.5415910000000  0.4723050000000 1.0
C      1  0.5332920000000  0.5175340000000  0.4193280000000 1.0
C      1  0.4965830000000  0.4984420000000  0.5268570000000 1.0
C      1  0.5201190000000  0.5301040000000  0.5967730000000 1.0
C      1  0.5631970000000  0.4922100000000  0.5589750000000 1.0
C      1  0.4347510000000  0.5293630000000  0.4318720000000 1.0
C      1  0.5663020000000  0.4841030000000  0.4810930000000 1.0
C      1  0.4378190000000  0.4493980000000  0.4652060000000 1.0
C      1  0.5460480000000  0.4426120000000  0.4735000000000 1.0
C      1  0.5750770000000  0.5128550000000  0.5456330000000 1.0
C      1  0.5164750000000  0.5555350000000  0.4988780000000 1.0
C      1  0.5805730000000  0.5579280000000  0.5144760000000 1.0
C      1  0.5283120000000  0.4885950000000  0.4519660000000 1.0
C      1  0.4787330000000  0.4877100000000  0.5914930000000 1.0
C      1  0.4662710000000  0.4446730000000  0.4446330000000 1.0
C      1  0.4569840000000  0.5917640000000  0.5168220000000 1.0
C      1  0.5078500000000  0.6057600000000  0.5109460000000 1.0
C      1  0.5638010000000  0.4352730000000  0.4955850000000 1.0
C      1  0.5262300000000  0.4465580000000  0.4293470000000 1.0
C      1  0.5114240000000  0.4558000000000  0.5166560000000 1.0
C      1  0.4851940000000  0.5325670000000  0.4108350000000 1.0
C      1  0.5314180000000  0.4683960000000  0.5322950000000 1.0
C      1  0.5390330000000  0.4881370000000  0.5740570000000 1.0
C      1  0.4883420000000  0.5869130000000  0.4633090000000 1.0
C      1  0.5517540000000  0.5938160000000  0.4947190000000 1.0
C      1  0.5327280000000  0.5623250000000  0.4498300000000 1.0
C      1  0.5014740000000  0.4370900000000  0.5342950000000 1.0
C      1  0.4581250000000  0.4920480000000  0.4724420000000 1.0
C      1  0.4952200000000  0.4636420000000  0.5914840000000 1.0
C      1  0.5644160000000  0.5575130000000  0.5394850000000 1.0
C      1  0.4773010000000  0.4511690000000  0.5370590000000 1.0
C      1  0.4844260000000  0.4576840000000  0.4627810000000 1.0
C      1  0.4646310000000  0.4351990000000  0.5575900000000 1.0
C      1  0.4990030000000  0.5981830000000  0.4861050000000 1.0
C      1  0.4504570000000  0.4205970000000  0.5317890000000 1.0
C      1  0.4706330000000  0.4781530000000  0.4055720000000 1.0
C      1  0.5287720000000  0.5127960000000  0.4941050000000 1.0
C      1  0.4958620000000  0.5289320000000  0.4571740000000 1.0
C      1  0.4849380000000  0.5947090000000  0.5255250000000 1.0
C      1  0.4761370000000  0.4535450000000  0.4177090000000 1.0
C      1  0.5675430000000  0.5291150000000  0.4539420000000 1.0
C      1  0.5708860000000  0.4643500000000  0.5441970000000 1.0
C      1  0.4431500000000  0.4757940000000  0.5728180000000 1.0
C      1  0.4956480000000  0.5136980000000  0.5870160000000 1.0
END
