TITL C-884134-5972-444 -2.13081382245706 125000 -22244.4576443893 0 0 149 (C1) n - 1
REM
REM in /home/nfs/bkarasulu/CARBON/AIRSS/Generating-Clusters/ReaxFF-fromJPCA2015/Units_Real/with-SteepDescent/Only-C1/SD-CG/Try1-3A/FIRE-CG
REM
REM
REM
REM
REM
REM ./C.cell (11c1c37f851c82e70ff6c80c92926a4b)
REM
REM compiler GCC version 9.2.1 20190827 (Red Hat 9.2.1-1)
REM options -cpp -mtune=generic -march=x86-64 -g -O0 -fpre-include=/usr/include/finclude/math-vector-fortran.h
REM seed -1407343704 110917662 -912791745 288214334 60372761 1775965390 -339777715 1712101454 -1635036024 -959279662 -1906520991 -1853664971 1702752784 -1559619297 883137007 -1386881468 1275483218 23631903 -1338803851 -285957112 42692784 -998339228 -200332027 540023772 -1465091197 -1911706848 -2009604088 -1693890599 233767119 -354431565 1472413990 956183843 -1115521463
REM
CELL 1.54180   50.00000   50.00000   50.00000   90.00000   90.00000   90.00000
LATT -1
SFAC C  
C      1  0.4953800000000  0.6051360000000  0.4867620000000 1.0
C      1  0.5333680000000  0.5502980000000  0.5516940000000 1.0
C      1  0.5632970000000  0.5139780000000  0.4485330000000 1.0
C      1  0.4030960000000  0.4840520000000  0.5135910000000 1.0
C      1  0.4930390000000  0.5579580000000  0.4203860000000 1.0
C      1  0.4251430000000  0.5435090000000  0.4483970000000 1.0
C      1  0.4639660000000  0.4760610000000  0.4422080000000 1.0
C      1  0.5952490000000  0.5090470000000  0.4945450000000 1.0
C      1  0.5463120000000  0.5168580000000  0.5165670000000 1.0
C      1  0.5131760000000  0.5626860000000  0.4958300000000 1.0
C      1  0.4814330000000  0.4609520000000  0.4740320000000 1.0
C      1  0.4968840000000  0.5921800000000  0.4594550000000 1.0
C      1  0.4358720000000  0.4702270000000  0.4354230000000 1.0
C      1  0.5791060000000  0.5711360000000  0.5169400000000 1.0
C      1  0.4705970000000  0.6042900000000  0.4996500000000 1.0
C      1  0.4663420000000  0.5656810000000  0.4306590000000 1.0
C      1  0.5412710000000  0.5636230000000  0.4842780000000 1.0
C      1  0.4979850000000  0.4136000000000  0.5536100000000 1.0
C      1  0.3968570000000  0.5250480000000  0.5193340000000 1.0
C      1  0.5036030000000  0.5862550000000  0.4312360000000 1.0
C      1  0.5099360000000  0.3994570000000  0.5312860000000 1.0
C      1  0.5020920000000  0.5028850000000  0.5894330000000 1.0
C      1  0.5615540000000  0.5066280000000  0.4203530000000 1.0
C      1  0.4356210000000  0.5802340000000  0.5333560000000 1.0
C      1  0.4377840000000  0.5587780000000  0.4702350000000 1.0
C      1  0.4695380000000  0.5029900000000  0.4891490000000 1.0
C      1  0.5108510000000  0.4812500000000  0.4123820000000 1.0
C      1  0.4359760000000  0.4593170000000  0.5665390000000 1.0
C      1  0.5810750000000  0.4807020000000  0.5636100000000 1.0
C      1  0.4839430000000  0.4554020000000  0.5765210000000 1.0
C      1  0.5689240000000  0.4776380000000  0.4224200000000 1.0
C      1  0.4291400000000  0.5279810000000  0.5441620000000 1.0
C      1  0.4541750000000  0.4654810000000  0.4847130000000 1.0
C      1  0.5781810000000  0.4601770000000  0.5437650000000 1.0
C      1  0.5037310000000  0.4355620000000  0.4090940000000 1.0
C      1  0.4264000000000  0.4466330000000  0.4514060000000 1.0
C      1  0.4295660000000  0.4891520000000  0.5715500000000 1.0
C      1  0.5393550000000  0.5135520000000  0.4647050000000 1.0
C      1  0.4978510000000  0.3989030000000  0.4816560000000 1.0
C      1  0.5071820000000  0.5477750000000  0.4451630000000 1.0
C      1  0.5591400000000  0.4179730000000  0.5295340000000 1.0
C      1  0.5996750000000  0.5214720000000  0.5187750000000 1.0
C      1  0.5479940000000  0.5758290000000  0.4582820000000 1.0
C      1  0.5315450000000  0.4765200000000  0.4861150000000 1.0
C      1  0.5797070000000  0.4695550000000  0.4472820000000 1.0
C      1  0.5669940000000  0.5544200000000  0.4958880000000 1.0
C      1  0.4389310000000  0.5557630000000  0.5000760000000 1.0
C      1  0.4451290000000  0.5146520000000  0.4113210000000 1.0
C      1  0.5090040000000  0.5918100000000  0.5108580000000 1.0
C      1  0.4601940000000  0.4978310000000  0.5992880000000 1.0
C      1  0.5646820000000  0.5564700000000  0.4435510000000 1.0
C      1  0.5251650000000  0.4552110000000  0.4059500000000 1.0
C      1  0.5189810000000  0.4801550000000  0.5348340000000 1.0
C      1  0.5568280000000  0.4234240000000  0.4715960000000 1.0
C      1  0.5408690000000  0.5245150000000  0.4104200000000 1.0
C      1  0.5480690000000  0.4561530000000  0.4236080000000 1.0
C      1  0.5088840000000  0.4100440000000  0.4574550000000 1.0
C      1  0.5430270000000  0.5152960000000  0.6107030000000 1.0
C      1  0.4353420000000  0.4308680000000  0.5177050000000 1.0
C      1  0.4682540000000  0.4279760000000  0.4308150000000 1.0
C      1  0.4831190000000  0.4577920000000  0.5178270000000 1.0
C      1  0.5052400000000  0.5403500000000  0.5163860000000 1.0
C      1  0.5382780000000  0.4893530000000  0.5533200000000 1.0
C      1  0.5370610000000  0.5953080000000  0.5256880000000 1.0
C      1  0.3986680000000  0.4567990000000  0.5019670000000 1.0
C      1  0.4921820000000  0.5276960000000  0.4041460000000 1.0
C      1  0.5309960000000  0.4154170000000  0.5180290000000 1.0
C      1  0.5853740000000  0.4802520000000  0.4955310000000 1.0
C      1  0.5000960000000  0.5703050000000  0.5795540000000 1.0
C      1  0.5974190000000  0.5312650000000  0.5447800000000 1.0
C      1  0.5680140000000  0.5698220000000  0.5628230000000 1.0
C      1  0.5460420000000  0.4881310000000  0.6018160000000 1.0
C      1  0.4816850000000  0.5440800000000  0.5330580000000 1.0
C      1  0.5879770000000  0.4619840000000  0.4729450000000 1.0
C      1  0.4155010000000  0.5163690000000  0.4461060000000 1.0
C      1  0.4594980000000  0.5970860000000  0.5246920000000 1.0
C      1  0.4702790000000  0.4175470000000  0.5499740000000 1.0
C      1  0.5641390000000  0.5978910000000  0.5146410000000 1.0
C      1  0.4760150000000  0.5290130000000  0.5585410000000 1.0
C      1  0.5293470000000  0.5350560000000  0.5285120000000 1.0
C      1  0.4085790000000  0.4399020000000  0.5237930000000 1.0
C      1  0.5334320000000  0.4283380000000  0.4582560000000 1.0
C      1  0.5351320000000  0.4584660000000  0.4512060000000 1.0
C      1  0.4935030000000  0.5828680000000  0.5589690000000 1.0
C      1  0.4549130000000  0.5179460000000  0.5071110000000 1.0
C      1  0.3927690000000  0.5016910000000  0.5353340000000 1.0
C      1  0.5816070000000  0.4314680000000  0.4813740000000 1.0
C      1  0.4769220000000  0.5030190000000  0.5478490000000 1.0
C      1  0.4282130000000  0.4779600000000  0.4778700000000 1.0
C      1  0.5819840000000  0.5078850000000  0.5552910000000 1.0
C      1  0.5390030000000  0.5413900000000  0.5983370000000 1.0
C      1  0.4894690000000  0.4893550000000  0.5038630000000 1.0
C      1  0.5398160000000  0.4463130000000  0.5687710000000 1.0
C      1  0.4235050000000  0.5540150000000  0.5262630000000 1.0
C      1  0.5532790000000  0.5460110000000  0.5735780000000 1.0
C      1  0.4908510000000  0.3934870000000  0.5094400000000 1.0
C      1  0.4910250000000  0.4401150000000  0.4934020000000 1.0
C      1  0.5420060000000  0.5509640000000  0.4249560000000 1.0
C      1  0.5315150000000  0.5785870000000  0.4327720000000 1.0
C      1  0.5207100000000  0.4376010000000  0.5035180000000 1.0
C      1  0.4985490000000  0.5018230000000  0.5280070000000 1.0
C      1  0.4953670000000  0.5635150000000  0.4679770000000 1.0
C      1  0.5426410000000  0.5782920000000  0.5489850000000 1.0
C      1  0.4821440000000  0.4851430000000  0.5765310000000 1.0
C      1  0.5106460000000  0.5500430000000  0.5954650000000 1.0
C      1  0.4484800000000  0.4104010000000  0.5017570000000 1.0
C      1  0.4768660000000  0.4476010000000  0.4099230000000 1.0
C      1  0.4662940000000  0.4029860000000  0.5241190000000 1.0
C      1  0.4480740000000  0.5114810000000  0.5774550000000 1.0
C      1  0.4167820000000  0.4587310000000  0.5454130000000 1.0
C      1  0.4607580000000  0.4427960000000  0.5654530000000 1.0
C      1  0.5023440000000  0.4579110000000  0.5401180000000 1.0
C      1  0.4629840000000  0.5681170000000  0.4589650000000 1.0
C      1  0.4092960000000  0.4559180000000  0.4743960000000 1.0
C      1  0.5099640000000  0.4410980000000  0.5631640000000 1.0
C      1  0.5128950000000  0.5011100000000  0.4575250000000 1.0
C      1  0.4717020000000  0.5075920000000  0.4036330000000 1.0
C      1  0.5179650000000  0.4787800000000  0.4406220000000 1.0
C      1  0.5154690000000  0.5126020000000  0.4031760000000 1.0
C      1  0.4469710000000  0.5412270000000  0.4278370000000 1.0
C      1  0.5582840000000  0.4994010000000  0.5357990000000 1.0
C      1  0.4132170000000  0.5051680000000  0.4729880000000 1.0
C      1  0.5845810000000  0.5348620000000  0.4823490000000 1.0
C      1  0.4480740000000  0.5064370000000  0.5331500000000 1.0
C      1  0.5608770000000  0.4375630000000  0.5525570000000 1.0
C      1  0.5787530000000  0.5355910000000  0.4552440000000 1.0
C      1  0.5045040000000  0.4816940000000  0.4807190000000 1.0
C      1  0.4956310000000  0.5291410000000  0.5812650000000 1.0
C      1  0.4646990000000  0.5453130000000  0.5095890000000 1.0
C      1  0.5361840000000  0.4618270000000  0.5093480000000 1.0
C      1  0.5867310000000  0.5596620000000  0.5427990000000 1.0
C      1  0.4644430000000  0.4213510000000  0.4798380000000 1.0
C      1  0.4951280000000  0.5230580000000  0.4485050000000 1.0
C      1  0.4272640000000  0.4974020000000  0.4264310000000 1.0
C      1  0.4031480000000  0.5195690000000  0.4933080000000 1.0
C      1  0.4952210000000  0.4171210000000  0.4317970000000 1.0
C      1  0.5215360000000  0.4970710000000  0.6090510000000 1.0
C      1  0.5750620000000  0.4228010000000  0.5072830000000 1.0
C      1  0.4781400000000  0.4774610000000  0.4147050000000 1.0
C      1  0.4879210000000  0.5943950000000  0.5354440000000 1.0
C      1  0.4305930000000  0.4788760000000  0.5267970000000 1.0
C      1  0.5676660000000  0.4713800000000  0.5177540000000 1.0
C      1  0.5427380000000  0.5029540000000  0.4910440000000 1.0
C      1  0.4511900000000  0.4575670000000  0.5138780000000 1.0
C      1  0.4633470000000  0.4999090000000  0.4609850000000 1.0
C      1  0.5505830000000  0.4745970000000  0.5752880000000 1.0
C      1  0.4114310000000  0.5087460000000  0.5575410000000 1.0
C      1  0.4674730000000  0.5247870000000  0.4477420000000 1.0
C      1  0.4509610000000  0.4292240000000  0.4553060000000 1.0
END
