TITL C-883736-9678-54 20.8794466957023 125000 -28331.7729643949 0 0 188 (C1) n - 1
REM
REM in /home/nfs/bkarasulu/CARBON/AIRSS/Generating-Clusters/ReaxFF-fromJPCA2015/Units_Real/with-SteepDescent/Only-C1/SD-CG/Try1-3A/FIRE-CG
REM
REM
REM
REM
REM
REM ./C.cell (11c1c37f851c82e70ff6c80c92926a4b)
REM
REM compiler GCC version 9.2.1 20190827 (Red Hat 9.2.1-1)
REM options -cpp -mtune=generic -march=x86-64 -g -O0 -fpre-include=/usr/include/finclude/math-vector-fortran.h
REM seed 1824914985 1322703185 2067057554 -1146799820 212050327 898451454 -1924175369 1761659623 -1579584612 355920472 1712657258 -632447197 -1149879174 654899238 -1782025246 368411800 -286467698 1559712891 1013838574 -1696277780 -1627396578 1765281695 1714033478 -487517567 836595642 2122554627 1108699699 -2009548926 -1049823832 -1193186427 517725809 -317651551 578621862
REM
CELL 1.54180   50.00000   50.00000   50.00000   90.00000   90.00000   90.00000
LATT -1
SFAC C  
C      1  0.5472810000000  0.3973280000000  0.4604460000000 1.0
C      1  0.4173960000000  0.5820210000000  0.4968350000000 1.0
C      1  0.4497550000000  0.5306550000000  0.4785340000000 1.0
C      1  0.5066640000000  0.5232580000000  0.6151950000000 1.0
C      1  0.5260040000000  0.3927810000000  0.5016730000000 1.0
C      1  0.5200590000000  0.4164120000000  0.4300200000000 1.0
C      1  0.5048620000000  0.3956590000000  0.4812640000000 1.0
C      1  0.5363490000000  0.4780220000000  0.5329400000000 1.0
C      1  0.4091770000000  0.4855590000000  0.5108600000000 1.0
C      1  0.5596560000000  0.4920250000000  0.4039740000000 1.0
C      1  0.4636140000000  0.4668740000000  0.6063970000000 1.0
C      1  0.5306510000000  0.4066480000000  0.5280380000000 1.0
C      1  0.4757210000000  0.3959540000000  0.4865170000000 1.0
C      1  0.5248250000000  0.4538350000000  0.4787630000000 1.0
C      1  0.4343530000000  0.4126640000000  0.4767710000000 1.0
C      1  0.4962730000000  0.4698530000000  0.4573160000000 1.0
C      1  0.5385170000000  0.5813750000000  0.4325290000000 1.0
C      1  0.4056250000000  0.5584370000000  0.5128330000000 1.0
C      1  0.4335510000000  0.4097900000000  0.5059470000000 1.0
C      1  0.5465590000000  0.5347120000000  0.5853670000000 1.0
C      1  0.4233960000000  0.4861910000000  0.4194480000000 1.0
C      1  0.4441550000000  0.5720050000000  0.5548180000000 1.0
C      1  0.4439040000000  0.5224170000000  0.4508350000000 1.0
C      1  0.5167560000000  0.5081850000000  0.3868800000000 1.0
C      1  0.5769000000000  0.5589260000000  0.4544880000000 1.0
C      1  0.5293960000000  0.4400150000000  0.5035360000000 1.0
C      1  0.4606640000000  0.4823910000000  0.4857460000000 1.0
C      1  0.5408590000000  0.5542580000000  0.5083060000000 1.0
C      1  0.5566020000000  0.4438540000000  0.5126070000000 1.0
C      1  0.5672050000000  0.4884710000000  0.4721490000000 1.0
C      1  0.4747250000000  0.5122160000000  0.4445260000000 1.0
C      1  0.4970820000000  0.5299440000000  0.3882850000000 1.0
C      1  0.4752440000000  0.4861810000000  0.4604310000000 1.0
C      1  0.5741510000000  0.4751560000000  0.5722520000000 1.0
C      1  0.4709440000000  0.4041280000000  0.5403370000000 1.0
C      1  0.5934960000000  0.5396950000000  0.5544040000000 1.0
C      1  0.5170850000000  0.5402370000000  0.5694610000000 1.0
C      1  0.4202370000000  0.4355850000000  0.5132740000000 1.0
C      1  0.4862620000000  0.4711530000000  0.5257600000000 1.0
C      1  0.4511410000000  0.4779490000000  0.5821570000000 1.0
C      1  0.3902540000000  0.5138550000000  0.4531390000000 1.0
C      1  0.4636170000000  0.6058100000000  0.4957030000000 1.0
C      1  0.5834560000000  0.5626160000000  0.4832710000000 1.0
C      1  0.4747670000000  0.4393720000000  0.4875430000000 1.0
C      1  0.4871640000000  0.6017520000000  0.5420760000000 1.0
C      1  0.4736820000000  0.5661800000000  0.4157230000000 1.0
C      1  0.4947560000000  0.5895580000000  0.4569480000000 1.0
C      1  0.5741840000000  0.4096000000000  0.4993490000000 1.0
C      1  0.5803390000000  0.4480440000000  0.5608000000000 1.0
C      1  0.5489960000000  0.4207320000000  0.4225910000000 1.0
C      1  0.4527260000000  0.5526180000000  0.5765010000000 1.0
C      1  0.4601340000000  0.4622940000000  0.4388760000000 1.0
C      1  0.4365850000000  0.4603370000000  0.4223240000000 1.0
C      1  0.4272210000000  0.5199580000000  0.5415770000000 1.0
C      1  0.4918140000000  0.4983160000000  0.6196960000000 1.0
C      1  0.5802080000000  0.4872820000000  0.4247190000000 1.0
C      1  0.5758490000000  0.5020170000000  0.5559810000000 1.0
C      1  0.4295060000000  0.4323470000000  0.4338860000000 1.0
C      1  0.5338220000000  0.5177950000000  0.6053740000000 1.0
C      1  0.4864830000000  0.6091120000000  0.5133390000000 1.0
C      1  0.5238560000000  0.5660610000000  0.4164180000000 1.0
C      1  0.5524520000000  0.3922400000000  0.4889790000000 1.0
C      1  0.5185090000000  0.5996620000000  0.4759520000000 1.0
C      1  0.5186540000000  0.5861840000000  0.5798160000000 1.0
C      1  0.5976470000000  0.5484160000000  0.5030750000000 1.0
C      1  0.4331290000000  0.4990810000000  0.5204370000000 1.0
C      1  0.6020890000000  0.5120960000000  0.5476230000000 1.0
C      1  0.4915450000000  0.5449150000000  0.5234930000000 1.0
C      1  0.4198640000000  0.5810290000000  0.4681760000000 1.0
C      1  0.4949060000000  0.4427830000000  0.4665980000000 1.0
C      1  0.5870950000000  0.4325530000000  0.4862670000000 1.0
C      1  0.4252770000000  0.4909800000000  0.5894320000000 1.0
C      1  0.4555090000000  0.5101970000000  0.5004410000000 1.0
C      1  0.4869210000000  0.4300390000000  0.5834230000000 1.0
C      1  0.4568940000000  0.3988480000000  0.4637830000000 1.0
C      1  0.4677520000000  0.6002410000000  0.4672110000000 1.0
C      1  0.5719670000000  0.5455400000000  0.5755920000000 1.0
C      1  0.4401610000000  0.5097330000000  0.6064100000000 1.0
C      1  0.4181500000000  0.5460060000000  0.5345750000000 1.0
C      1  0.5848530000000  0.4855280000000  0.5128180000000 1.0
C      1  0.5709910000000  0.5749440000000  0.5697160000000 1.0
C      1  0.6036710000000  0.5188600000000  0.4968640000000 1.0
C      1  0.5591060000000  0.4159710000000  0.5233270000000 1.0
C      1  0.5336680000000  0.4617190000000  0.5577810000000 1.0
C      1  0.5301130000000  0.5207930000000  0.4900270000000 1.0
C      1  0.4984420000000  0.5768240000000  0.4250130000000 1.0
C      1  0.5605200000000  0.5840720000000  0.4488540000000 1.0
C      1  0.5127920000000  0.4297740000000  0.5247530000000 1.0
C      1  0.4890600000000  0.4525100000000  0.6028700000000 1.0
C      1  0.4659570000000  0.5896000000000  0.5556540000000 1.0
C      1  0.4304900000000  0.5046180000000  0.3982440000000 1.0
C      1  0.5066650000000  0.4641770000000  0.5639200000000 1.0
C      1  0.5190020000000  0.4000470000000  0.4553400000000 1.0
C      1  0.5323720000000  0.4177970000000  0.5671380000000 1.0
C      1  0.5175530000000  0.5550500000000  0.5443060000000 1.0
C      1  0.5324400000000  0.6012330000000  0.5266820000000 1.0
C      1  0.5370010000000  0.4771590000000  0.4375980000000 1.0
C      1  0.4866800000000  0.4973850000000  0.4220620000000 1.0
C      1  0.3985320000000  0.4551580000000  0.4711680000000 1.0
C      1  0.5153270000000  0.5883420000000  0.5482410000000 1.0
C      1  0.4072760000000  0.4876900000000  0.5657090000000 1.0
C      1  0.5426620000000  0.5147850000000  0.3995140000000 1.0
C      1  0.5938310000000  0.5576850000000  0.5311040000000 1.0
C      1  0.4771300000000  0.5181640000000  0.5209700000000 1.0
C      1  0.4402000000000  0.5937790000000  0.5090930000000 1.0
C      1  0.5126830000000  0.4583890000000  0.4038780000000 1.0
C      1  0.4106250000000  0.5562160000000  0.4563400000000 1.0
C      1  0.5922050000000  0.4467930000000  0.5359250000000 1.0
C      1  0.5036630000000  0.5616830000000  0.5868650000000 1.0
C      1  0.5305550000000  0.5034430000000  0.4489840000000 1.0
C      1  0.4411950000000  0.5382260000000  0.5995130000000 1.0
C      1  0.4490160000000  0.5704130000000  0.4315400000000 1.0
C      1  0.5822590000000  0.4589620000000  0.4321090000000 1.0
C      1  0.4446770000000  0.5893790000000  0.4534970000000 1.0
C      1  0.5209530000000  0.5001180000000  0.4752090000000 1.0
C      1  0.4478190000000  0.5716960000000  0.5248730000000 1.0
C      1  0.4649880000000  0.5556510000000  0.6032510000000 1.0
C      1  0.5753300000000  0.4428690000000  0.4576920000000 1.0
C      1  0.6090490000000  0.5008600000000  0.5215890000000 1.0
C      1  0.5228040000000  0.5281570000000  0.4377860000000 1.0
C      1  0.4967270000000  0.4906210000000  0.5699900000000 1.0
C      1  0.4417800000000  0.4452780000000  0.5529310000000 1.0
C      1  0.4170290000000  0.4769880000000  0.4662230000000 1.0
C      1  0.5540020000000  0.4789450000000  0.5902950000000 1.0
C      1  0.5598600000000  0.5780810000000  0.4958830000000 1.0
C      1  0.4932000000000  0.5489910000000  0.6103140000000 1.0
C      1  0.5440820000000  0.5454210000000  0.5357790000000 1.0
C      1  0.4692330000000  0.5608780000000  0.5117960000000 1.0
C      1  0.5641270000000  0.4447380000000  0.4140410000000 1.0
C      1  0.3936010000000  0.5355390000000  0.4715720000000 1.0
C      1  0.4705440000000  0.4964320000000  0.5379830000000 1.0
C      1  0.4624740000000  0.4938430000000  0.6180490000000 1.0
C      1  0.4941480000000  0.4468220000000  0.5433940000000 1.0
C      1  0.5646070000000  0.4163540000000  0.4459670000000 1.0
C      1  0.5569550000000  0.5133660000000  0.4834330000000 1.0
C      1  0.4687170000000  0.4945170000000  0.5665390000000 1.0
C      1  0.5711870000000  0.5367470000000  0.4374480000000 1.0
C      1  0.5598610000000  0.5935250000000  0.5225790000000 1.0
C      1  0.4176600000000  0.4994310000000  0.4462190000000 1.0
C      1  0.5062530000000  0.4756850000000  0.4320640000000 1.0
C      1  0.4055340000000  0.4341490000000  0.4507790000000 1.0
C      1  0.5125570000000  0.5543590000000  0.5018110000000 1.0
C      1  0.5453830000000  0.5823200000000  0.5770050000000 1.0
C      1  0.4478080000000  0.4389360000000  0.4783580000000 1.0
C      1  0.5545280000000  0.5195590000000  0.5466040000000 1.0
C      1  0.5857810000000  0.5117180000000  0.4415950000000 1.0
C      1  0.4042330000000  0.4569700000000  0.5003500000000 1.0
C      1  0.4721460000000  0.5427540000000  0.3964320000000 1.0
C      1  0.5460790000000  0.5939380000000  0.4725160000000 1.0
C      1  0.4537440000000  0.5013440000000  0.3834620000000 1.0
C      1  0.4206470000000  0.4633320000000  0.5585180000000 1.0
C      1  0.5513310000000  0.4643400000000  0.4618490000000 1.0
C      1  0.3940930000000  0.5334030000000  0.5020870000000 1.0
C      1  0.4000930000000  0.5103760000000  0.5471540000000 1.0
C      1  0.4671240000000  0.4607730000000  0.5064110000000 1.0
C      1  0.4607570000000  0.4007890000000  0.5119330000000 1.0
C      1  0.4914370000000  0.3900910000000  0.5542500000000 1.0
C      1  0.5141810000000  0.6069040000000  0.5038070000000 1.0
C      1  0.4700050000000  0.4304430000000  0.5587030000000 1.0
C      1  0.4320970000000  0.5477020000000  0.4389540000000 1.0
C      1  0.4542870000000  0.4163700000000  0.4404330000000 1.0
C      1  0.4841460000000  0.5621690000000  0.4622450000000 1.0
C      1  0.5925240000000  0.5023410000000  0.4687420000000 1.0
C      1  0.5114010000000  0.4805600000000  0.5157300000000 1.0
C      1  0.5154590000000  0.4783250000000  0.4883700000000 1.0
C      1  0.5339320000000  0.4869270000000  0.6066360000000 1.0
C      1  0.5434770000000  0.5380520000000  0.4195240000000 1.0
C      1  0.3916970000000  0.5084370000000  0.5185430000000 1.0
C      1  0.4417680000000  0.4514000000000  0.5248270000000 1.0
C      1  0.4773700000000  0.4365870000000  0.4367680000000 1.0
C      1  0.5105430000000  0.5132830000000  0.5603230000000 1.0
C      1  0.5449810000000  0.4661510000000  0.4058850000000 1.0
C      1  0.4647700000000  0.5546930000000  0.4833550000000 1.0
C      1  0.5780510000000  0.5802450000000  0.5406810000000 1.0
C      1  0.5066340000000  0.4747200000000  0.6118380000000 1.0
C      1  0.5026700000000  0.4811070000000  0.3870470000000 1.0
C      1  0.5965370000000  0.4466200000000  0.5091460000000 1.0
C      1  0.4763550000000  0.4887950000000  0.3965680000000 1.0
C      1  0.4977520000000  0.5369950000000  0.4522490000000 1.0
C      1  0.5143260000000  0.5401690000000  0.4773120000000 1.0
C      1  0.5755710000000  0.5121530000000  0.5033660000000 1.0
C      1  0.5012470000000  0.4341080000000  0.4181070000000 1.0
C      1  0.4425530000000  0.4650560000000  0.4685860000000 1.0
C      1  0.4477820000000  0.5271710000000  0.3910910000000 1.0
C      1  0.5509780000000  0.4395210000000  0.5646370000000 1.0
C      1  0.5066030000000  0.4096120000000  0.5742940000000 1.0
C      1  0.5299580000000  0.5057950000000  0.5414830000000 1.0
C      1  0.5618280000000  0.4706990000000  0.5202890000000 1.0
END
