TITL C-883727-9645-140 -6.19187162297418 125000 -4179.02799525522 0 0 29 (C1) n - 1
REM
REM in /home/nfs/bkarasulu/CARBON/AIRSS/Generating-Clusters/ReaxFF-fromJPCA2015/Units_Real/with-SteepDescent/Only-C1/SD-CG/Try1-3A/FIRE-CG
REM
REM
REM
REM
REM
REM ./C.cell (11c1c37f851c82e70ff6c80c92926a4b)
REM
REM compiler GCC version 9.2.1 20190827 (Red Hat 9.2.1-1)
REM options -cpp -mtune=generic -march=x86-64 -g -O0 -fpre-include=/usr/include/finclude/math-vector-fortran.h
REM seed -9690917 -1660482159 747588172 371927607 -1864562582 -1598169367 -922290869 -65488855 -1462795518 -2019871786 -2011589966 340642311 981752054 -398143123 929834706 -640294771 -472607750 550478092 -525408 1509197366 1284058384 -1443878298 503176502 -1689250723 1876156168 -1975834456 -993081677 -101362643 -956652749 -2030646137 -161989774 -1366614909 905269777
REM
CELL 1.54180   50.00000   50.00000   50.00000   90.00000   90.00000   90.00000
LATT -1
SFAC C  
C      1  0.5296080000000  0.5484870000000  0.4770450000000 1.0
C      1  0.5412050000000  0.5279850000000  0.5118680000000 1.0
C      1  0.4812700000000  0.5086880000000  0.4532630000000 1.0
C      1  0.5323150000000  0.5218000000000  0.4647590000000 1.0
C      1  0.4519370000000  0.4991370000000  0.5245450000000 1.0
C      1  0.4686120000000  0.4533950000000  0.5346380000000 1.0
C      1  0.5461310000000  0.4993700000000  0.4786030000000 1.0
C      1  0.5415020000000  0.4703840000000  0.4744960000000 1.0
C      1  0.4744960000000  0.4855650000000  0.4702760000000 1.0
C      1  0.5092850000000  0.4431340000000  0.5073880000000 1.0
C      1  0.5342540000000  0.4575110000000  0.5010690000000 1.0
C      1  0.4998270000000  0.5584620000000  0.5048280000000 1.0
C      1  0.4657510000000  0.4545510000000  0.5055690000000 1.0
C      1  0.4744340000000  0.5173870000000  0.5286060000000 1.0
C      1  0.5106900000000  0.4806110000000  0.5326940000000 1.0
C      1  0.4684050000000  0.4847400000000  0.5010910000000 1.0
C      1  0.5294030000000  0.5528890000000  0.5073150000000 1.0
C      1  0.4846800000000  0.4587420000000  0.4632080000000 1.0
C      1  0.4865010000000  0.4424020000000  0.4888920000000 1.0
C      1  0.4874210000000  0.5370940000000  0.4564470000000 1.0
C      1  0.5504050000000  0.5022930000000  0.5090900000000 1.0
C      1  0.4985590000000  0.4536280000000  0.5327560000000 1.0
C      1  0.4511920000000  0.4762060000000  0.5437230000000 1.0
C      1  0.5373780000000  0.4784000000000  0.5212990000000 1.0
C      1  0.4650780000000  0.5657540000000  0.5402350000000 1.0
C      1  0.4927050000000  0.4983760000000  0.5175390000000 1.0
C      1  0.4779710000000  0.5489050000000  0.5248720000000 1.0
C      1  0.5084970000000  0.5188480000000  0.4478800000000 1.0
C      1  0.5004920000000  0.5552550000000  0.4760060000000 1.0
END
