TITL C-884142-5251-295 61.796912329373 125000 -19230.0190529196 0 0 132 (C1) n - 1
REM
REM in /home/nfs/bkarasulu/CARBON/AIRSS/Generating-Clusters/ReaxFF-fromJPCA2015/Units_Real/with-SteepDescent/Only-C1/SD-CG/Try1-3A/FIRE-CG
REM
REM
REM
REM
REM
REM ./C.cell (11c1c37f851c82e70ff6c80c92926a4b)
REM
REM compiler GCC version 9.2.1 20190827 (Red Hat 9.2.1-1)
REM options -cpp -mtune=generic -march=x86-64 -g -O0 -fpre-include=/usr/include/finclude/math-vector-fortran.h
REM seed 109592336 -446659227 -1493038339 58225308 713989483 -748705583 2028161596 994453786 212167466 849849293 2066067001 -1715267963 744431230 1422401232 -379503031 -1647049179 671907814 -480717020 -1302630208 -1283899830 -1726862618 -460965159 1056030696 -2056484842 -274825074 -2013230055 -101219435 -794093687 1166359399 1706206231 782748383 -2094506455 -586526826
REM
CELL 1.54180   50.00000   50.00000   50.00000   90.00000   90.00000   90.00000
LATT -1
SFAC C  
C      1  0.5065440000000  0.5746410000000  0.5551320000000 1.0
C      1  0.5287850000000  0.5177100000000  0.4410600000000 1.0
C      1  0.4909640000000  0.4671660000000  0.6032080000000 1.0
C      1  0.5889530000000  0.5083980000000  0.5021470000000 1.0
C      1  0.5510150000000  0.4339370000000  0.4468630000000 1.0
C      1  0.4322410000000  0.4943560000000  0.5789870000000 1.0
C      1  0.4744480000000  0.5669260000000  0.4393450000000 1.0
C      1  0.4759140000000  0.4112070000000  0.4721710000000 1.0
C      1  0.5670820000000  0.5440850000000  0.4472350000000 1.0
C      1  0.5604190000000  0.5094460000000  0.5088210000000 1.0
C      1  0.5277150000000  0.5634590000000  0.5160500000000 1.0
C      1  0.4958640000000  0.4017550000000  0.5177490000000 1.0
C      1  0.4155460000000  0.5313700000000  0.4825680000000 1.0
C      1  0.4826820000000  0.4414930000000  0.5731130000000 1.0
C      1  0.4631210000000  0.4813600000000  0.5133940000000 1.0
C      1  0.4904740000000  0.4837130000000  0.5546070000000 1.0
C      1  0.4538950000000  0.5669020000000  0.5490330000000 1.0
C      1  0.4199360000000  0.4774650000000  0.5609400000000 1.0
C      1  0.5224030000000  0.5481400000000  0.4500390000000 1.0
C      1  0.4515180000000  0.5027990000000  0.5956810000000 1.0
C      1  0.5026550000000  0.5456180000000  0.5576190000000 1.0
C      1  0.5261190000000  0.4905770000000  0.4595300000000 1.0
C      1  0.5493480000000  0.5951900000000  0.5005130000000 1.0
C      1  0.5911610000000  0.4866960000000  0.4820350000000 1.0
C      1  0.4669940000000  0.5346220000000  0.5015860000000 1.0
C      1  0.5475850000000  0.5269100000000  0.5916120000000 1.0
C      1  0.4850140000000  0.4074250000000  0.5416870000000 1.0
C      1  0.5305100000000  0.4546890000000  0.5713740000000 1.0
C      1  0.4660880000000  0.5104450000000  0.4357220000000 1.0
C      1  0.5703090000000  0.4380540000000  0.5517080000000 1.0
C      1  0.4560720000000  0.5514460000000  0.5729650000000 1.0
C      1  0.4714640000000  0.5857510000000  0.5148950000000 1.0
C      1  0.5061640000000  0.5500740000000  0.5048260000000 1.0
C      1  0.5557990000000  0.5245180000000  0.4285760000000 1.0
C      1  0.5322300000000  0.5909300000000  0.5255390000000 1.0
C      1  0.4639770000000  0.4734220000000  0.5976670000000 1.0
C      1  0.4164030000000  0.4518740000000  0.4702350000000 1.0
C      1  0.4347700000000  0.4896770000000  0.5154500000000 1.0
C      1  0.5372910000000  0.4910620000000  0.3973740000000 1.0
C      1  0.4693730000000  0.5101060000000  0.4053810000000 1.0
C      1  0.4567470000000  0.4492510000000  0.5792510000000 1.0
C      1  0.5269230000000  0.4353820000000  0.4287520000000 1.0
C      1  0.5413350000000  0.4371640000000  0.5526790000000 1.0
C      1  0.4971070000000  0.4997800000000  0.5774180000000 1.0
C      1  0.5656680000000  0.4460450000000  0.5074600000000 1.0
C      1  0.4383710000000  0.4629300000000  0.4549460000000 1.0
C      1  0.5290210000000  0.4087220000000  0.4938610000000 1.0
C      1  0.5892660000000  0.4994450000000  0.4569070000000 1.0
C      1  0.5032980000000  0.4370060000000  0.4467740000000 1.0
C      1  0.4760440000000  0.4273130000000  0.4467210000000 1.0
C      1  0.5002770000000  0.4019250000000  0.4916810000000 1.0
C      1  0.5897810000000  0.5590400000000  0.5054810000000 1.0
C      1  0.4958490000000  0.5388150000000  0.5306280000000 1.0
C      1  0.4640610000000  0.5302380000000  0.5903760000000 1.0
C      1  0.4986240000000  0.5497140000000  0.4338840000000 1.0
C      1  0.5586380000000  0.5588950000000  0.5537400000000 1.0
C      1  0.5601690000000  0.4977850000000  0.4185770000000 1.0
C      1  0.4402830000000  0.5393830000000  0.4065990000000 1.0
C      1  0.5818260000000  0.4865680000000  0.5369120000000 1.0
C      1  0.5633400000000  0.5322820000000  0.5668050000000 1.0
C      1  0.5118720000000  0.5220750000000  0.4897330000000 1.0
C      1  0.4414820000000  0.4422400000000  0.5333620000000 1.0
C      1  0.5789590000000  0.4560710000000  0.5309630000000 1.0
C      1  0.4774360000000  0.4182960000000  0.5608660000000 1.0
C      1  0.5162550000000  0.4890970000000  0.5975160000000 1.0
C      1  0.4836640000000  0.5920070000000  0.4869860000000 1.0
C      1  0.5029930000000  0.4511950000000  0.4979530000000 1.0
C      1  0.4537200000000  0.5202490000000  0.5457740000000 1.0
C      1  0.4301820000000  0.5521600000000  0.5320890000000 1.0
C      1  0.5951010000000  0.5346190000000  0.4891700000000 1.0
C      1  0.4573140000000  0.4488900000000  0.4377930000000 1.0
C      1  0.5511520000000  0.4878100000000  0.5268150000000 1.0
C      1  0.4712810000000  0.5791410000000  0.4647140000000 1.0
C      1  0.4217270000000  0.4428580000000  0.5113910000000 1.0
C      1  0.4517700000000  0.4184960000000  0.4797760000000 1.0
C      1  0.4350830000000  0.4886760000000  0.4199330000000 1.0
C      1  0.5302640000000  0.5147670000000  0.6106960000000 1.0
C      1  0.5733890000000  0.5511300000000  0.5300540000000 1.0
C      1  0.5876470000000  0.5292920000000  0.4618150000000 1.0
C      1  0.4422630000000  0.5400610000000  0.4465170000000 1.0
C      1  0.5077570000000  0.5766340000000  0.4831920000000 1.0
C      1  0.4201430000000  0.5510490000000  0.5047290000000 1.0
C      1  0.5371120000000  0.5097680000000  0.3806980000000 1.0
C      1  0.5718790000000  0.5793280000000  0.4986480000000 1.0
C      1  0.4259480000000  0.4283540000000  0.4859620000000 1.0
C      1  0.5325780000000  0.4891690000000  0.5513250000000 1.0
C      1  0.5724280000000  0.4625050000000  0.4811570000000 1.0
C      1  0.4248670000000  0.5504450000000  0.4645630000000 1.0
C      1  0.5081790000000  0.4944280000000  0.5080170000000 1.0
C      1  0.4989220000000  0.4858660000000  0.4646010000000 1.0
C      1  0.4188800000000  0.4985060000000  0.5390700000000 1.0
C      1  0.5747260000000  0.4816160000000  0.4378050000000 1.0
C      1  0.5086540000000  0.4976030000000  0.5383110000000 1.0
C      1  0.4050080000000  0.4777830000000  0.4808380000000 1.0
C      1  0.4143310000000  0.5037020000000  0.4708230000000 1.0
C      1  0.4296300000000  0.4908570000000  0.4487360000000 1.0
C      1  0.5031500000000  0.5210840000000  0.4257540000000 1.0
C      1  0.4835730000000  0.5280790000000  0.4796820000000 1.0
C      1  0.4873690000000  0.4763720000000  0.4928590000000 1.0
C      1  0.5459310000000  0.5632200000000  0.4565770000000 1.0
C      1  0.5133980000000  0.4410190000000  0.4728050000000 1.0
C      1  0.5481100000000  0.5473210000000  0.5138680000000 1.0
C      1  0.4901330000000  0.4989540000000  0.4407080000000 1.0
C      1  0.4663930000000  0.4569740000000  0.5284200000000 1.0
C      1  0.4261320000000  0.5271580000000  0.5471130000000 1.0
C      1  0.5356500000000  0.5832550000000  0.4763940000000 1.0
C      1  0.5430210000000  0.4779380000000  0.4791210000000 1.0
C      1  0.4746430000000  0.5189800000000  0.5260700000000 1.0
C      1  0.5329500000000  0.4797220000000  0.5048340000000 1.0
C      1  0.4659780000000  0.5276800000000  0.4571640000000 1.0
C      1  0.5561860000000  0.4443890000000  0.5761300000000 1.0
C      1  0.4794380000000  0.5810220000000  0.5422070000000 1.0
C      1  0.5358870000000  0.5785970000000  0.5516110000000 1.0
C      1  0.4910600000000  0.4548020000000  0.5467670000000 1.0
C      1  0.4134000000000  0.4708240000000  0.5080320000000 1.0
C      1  0.4394370000000  0.5115100000000  0.4013460000000 1.0
C      1  0.4565710000000  0.4686690000000  0.4161040000000 1.0
C      1  0.4362090000000  0.5678050000000  0.4847740000000 1.0
C      1  0.5364690000000  0.4795320000000  0.5783710000000 1.0
C      1  0.5162450000000  0.4447290000000  0.5223800000000 1.0
C      1  0.5693060000000  0.4557500000000  0.4513990000000 1.0
C      1  0.4595180000000  0.5624710000000  0.5019190000000 1.0
C      1  0.4786310000000  0.4821270000000  0.4018960000000 1.0
C      1  0.5074120000000  0.4753020000000  0.4005110000000 1.0
C      1  0.5410970000000  0.5262580000000  0.4965960000000 1.0
C      1  0.5353430000000  0.4227690000000  0.4690960000000 1.0
C      1  0.5198080000000  0.4566230000000  0.4126850000000 1.0
C      1  0.4485660000000  0.5593230000000  0.4245020000000 1.0
C      1  0.5767270000000  0.5081520000000  0.5546840000000 1.0
C      1  0.4351350000000  0.4519080000000  0.5601810000000 1.0
C      1  0.4911450000000  0.5286800000000  0.5796180000000 1.0
C      1  0.5399150000000  0.4311590000000  0.5115440000000 1.0
END
