TITL C-883740-3686-400 27.5695224844183 125000 -28985.2734207485 0 0 194 (C1) n - 1
REM
REM in /home/nfs/bkarasulu/CARBON/AIRSS/Generating-Clusters/ReaxFF-fromJPCA2015/Units_Real/with-SteepDescent/Only-C1/SD-CG/Try1-3A/FIRE-CG
REM
REM
REM
REM
REM
REM ./C.cell (11c1c37f851c82e70ff6c80c92926a4b)
REM
REM compiler GCC version 9.2.1 20190827 (Red Hat 9.2.1-1)
REM options -cpp -mtune=generic -march=x86-64 -g -O0 -fpre-include=/usr/include/finclude/math-vector-fortran.h
REM seed 294081512 -607855313 -59957190 -2103964731 -1296514603 -188957122 1810805307 -537536078 1867991550 -176605454 -114302073 -594130479 934550049 623070669 1558743283 -994543079 -469227325 -373267217 -466843876 -1239337586 181513302 1206369337 -1368215324 -1189553576 1854369457 652252845 -172389869 199809290 1173913350 1008588525 614126436 1692134123 -1685872555
REM
CELL 1.54180   50.00000   50.00000   50.00000   90.00000   90.00000   90.00000
LATT -1
SFAC C  
C      1  0.6000940000000  0.4884620000000  0.4489650000000 1.0
C      1  0.4842770000000  0.5785550000000  0.5577500000000 1.0
C      1  0.5806670000000  0.5336060000000  0.5885340000000 1.0
C      1  0.4039590000000  0.4927430000000  0.5562140000000 1.0
C      1  0.5382450000000  0.5484000000000  0.4515150000000 1.0
C      1  0.5436180000000  0.4481800000000  0.4679520000000 1.0
C      1  0.5659860000000  0.4482750000000  0.4296630000000 1.0
C      1  0.4276280000000  0.5437470000000  0.4886270000000 1.0
C      1  0.4925740000000  0.5317700000000  0.5346690000000 1.0
C      1  0.4720490000000  0.6113970000000  0.5250010000000 1.0
C      1  0.4994210000000  0.3983240000000  0.5659300000000 1.0
C      1  0.5131570000000  0.3891560000000  0.4521300000000 1.0
C      1  0.5269260000000  0.3981190000000  0.5562630000000 1.0
C      1  0.5899270000000  0.5807390000000  0.5249150000000 1.0
C      1  0.6028600000000  0.5538100000000  0.5203860000000 1.0
C      1  0.5493840000000  0.5512430000000  0.6297950000000 1.0
C      1  0.5607790000000  0.5413160000000  0.4054320000000 1.0
C      1  0.5221290000000  0.6123320000000  0.5069910000000 1.0
C      1  0.5066370000000  0.5555900000000  0.5225410000000 1.0
C      1  0.5451470000000  0.5381320000000  0.5554910000000 1.0
C      1  0.5300900000000  0.4598730000000  0.5080840000000 1.0
C      1  0.4316940000000  0.4175070000000  0.5444650000000 1.0
C      1  0.5592240000000  0.5035030000000  0.4364340000000 1.0
C      1  0.4519170000000  0.5475870000000  0.3962880000000 1.0
C      1  0.4366430000000  0.5575090000000  0.4215940000000 1.0
C      1  0.5854620000000  0.4168770000000  0.5212100000000 1.0
C      1  0.5345830000000  0.4187560000000  0.4794780000000 1.0
C      1  0.4715880000000  0.5333780000000  0.4735590000000 1.0
C      1  0.5060760000000  0.5067220000000  0.5291260000000 1.0
C      1  0.5733990000000  0.5866040000000  0.5467720000000 1.0
C      1  0.4086960000000  0.5369550000000  0.5435920000000 1.0
C      1  0.4133450000000  0.4236940000000  0.4963990000000 1.0
C      1  0.4510950000000  0.5187000000000  0.4011000000000 1.0
C      1  0.4436980000000  0.5743730000000  0.5525430000000 1.0
C      1  0.4170870000000  0.4344290000000  0.4426220000000 1.0
C      1  0.5696690000000  0.4850960000000  0.5008870000000 1.0
C      1  0.6097070000000  0.5434180000000  0.4941420000000 1.0
C      1  0.4186520000000  0.4192710000000  0.4682220000000 1.0
C      1  0.5436970000000  0.4045770000000  0.5041120000000 1.0
C      1  0.6137900000000  0.5146310000000  0.4918440000000 1.0
C      1  0.5517030000000  0.4208860000000  0.4316480000000 1.0
C      1  0.5738330000000  0.5400290000000  0.5611610000000 1.0
C      1  0.4595370000000  0.4741670000000  0.4538490000000 1.0
C      1  0.5049510000000  0.5898720000000  0.4364100000000 1.0
C      1  0.5523320000000  0.5199200000000  0.4571920000000 1.0
C      1  0.4421410000000  0.4472880000000  0.5851350000000 1.0
C      1  0.5308230000000  0.5860550000000  0.5753620000000 1.0
C      1  0.4455510000000  0.4071850000000  0.4689280000000 1.0
C      1  0.5040850000000  0.5736730000000  0.5794190000000 1.0
C      1  0.4520380000000  0.5270570000000  0.5992760000000 1.0
C      1  0.4819030000000  0.5291560000000  0.6021520000000 1.0
C      1  0.5730200000000  0.4440190000000  0.4710480000000 1.0
C      1  0.5007100000000  0.5798170000000  0.5353220000000 1.0
C      1  0.4889030000000  0.4535010000000  0.5614170000000 1.0
C      1  0.4882450000000  0.4792250000000  0.4561410000000 1.0
C      1  0.4873920000000  0.4158100000000  0.5869030000000 1.0
C      1  0.4967900000000  0.4434000000000  0.5883910000000 1.0
C      1  0.4576600000000  0.4498820000000  0.4965200000000 1.0
C      1  0.5357150000000  0.5008090000000  0.4686780000000 1.0
C      1  0.5049210000000  0.4489010000000  0.5192840000000 1.0
C      1  0.5734710000000  0.4105840000000  0.5472570000000 1.0
C      1  0.4536870000000  0.5181530000000  0.4532640000000 1.0
C      1  0.5509400000000  0.4667510000000  0.4112350000000 1.0
C      1  0.4659350000000  0.5790190000000  0.4569420000000 1.0
C      1  0.4844080000000  0.4486490000000  0.4145080000000 1.0
C      1  0.4366160000000  0.5016910000000  0.5972290000000 1.0
C      1  0.6207310000000  0.4955820000000  0.4686630000000 1.0
C      1  0.5976140000000  0.5104860000000  0.5921360000000 1.0
C      1  0.4564280000000  0.5136200000000  0.5188350000000 1.0
C      1  0.4501850000000  0.5251630000000  0.4931930000000 1.0
C      1  0.5061320000000  0.5016710000000  0.5005290000000 1.0
C      1  0.4908060000000  0.4842600000000  0.4845590000000 1.0
C      1  0.4234880000000  0.4421590000000  0.5624240000000 1.0
C      1  0.5058890000000  0.4174070000000  0.4814070000000 1.0
C      1  0.5005950000000  0.6063090000000  0.5254640000000 1.0
C      1  0.4799990000000  0.5491290000000  0.3936170000000 1.0
C      1  0.5697860000000  0.5911180000000  0.5057980000000 1.0
C      1  0.3770770000000  0.5118940000000  0.4816640000000 1.0
C      1  0.5247360000000  0.4294110000000  0.4242060000000 1.0
C      1  0.4620130000000  0.5960400000000  0.5489480000000 1.0
C      1  0.5953030000000  0.5352960000000  0.5408650000000 1.0
C      1  0.4961610000000  0.4531370000000  0.4461170000000 1.0
C      1  0.5394670000000  0.4906280000000  0.4210220000000 1.0
C      1  0.5515370000000  0.4856290000000  0.5446980000000 1.0
C      1  0.4133610000000  0.5078360000000  0.5808350000000 1.0
C      1  0.4971710000000  0.5669800000000  0.4975410000000 1.0
C      1  0.5725750000000  0.5588270000000  0.4259930000000 1.0
C      1  0.5192710000000  0.5184400000000  0.4829720000000 1.0
C      1  0.5392440000000  0.4729120000000  0.5934080000000 1.0
C      1  0.4249330000000  0.5614830000000  0.5350070000000 1.0
C      1  0.5489780000000  0.5737990000000  0.4366740000000 1.0
C      1  0.5455030000000  0.6019670000000  0.5202600000000 1.0
C      1  0.3838470000000  0.4867190000000  0.4675120000000 1.0
C      1  0.5019730000000  0.5621570000000  0.4259720000000 1.0
C      1  0.5788540000000  0.4971800000000  0.6081320000000 1.0
C      1  0.5397930000000  0.4032750000000  0.4525420000000 1.0
C      1  0.5904870000000  0.5540170000000  0.4734020000000 1.0
C      1  0.4881890000000  0.4317230000000  0.4663100000000 1.0
C      1  0.5481130000000  0.5949780000000  0.5496480000000 1.0
C      1  0.4044110000000  0.4516050000000  0.5028220000000 1.0
C      1  0.4619870000000  0.4294160000000  0.4763890000000 1.0
C      1  0.5079110000000  0.5550690000000  0.3979470000000 1.0
C      1  0.3875650000000  0.4737850000000  0.4938540000000 1.0
C      1  0.5326020000000  0.5375150000000  0.3987000000000 1.0
C      1  0.4483990000000  0.4747120000000  0.5938970000000 1.0
C      1  0.5117970000000  0.5391300000000  0.4410260000000 1.0
C      1  0.4293980000000  0.4649910000000  0.5013160000000 1.0
C      1  0.4530010000000  0.5737210000000  0.4362700000000 1.0
C      1  0.4440280000000  0.4265860000000  0.4317430000000 1.0
C      1  0.4016480000000  0.5112230000000  0.5327580000000 1.0
C      1  0.4639670000000  0.4125330000000  0.5131370000000 1.0
C      1  0.4409260000000  0.4953010000000  0.4661230000000 1.0
C      1  0.4017440000000  0.4863850000000  0.4437680000000 1.0
C      1  0.4547140000000  0.4501910000000  0.4424790000000 1.0
C      1  0.4269340000000  0.4912010000000  0.4913130000000 1.0
C      1  0.3991090000000  0.5007760000000  0.5042630000000 1.0
C      1  0.4647490000000  0.5380260000000  0.5313020000000 1.0
C      1  0.5248290000000  0.4491640000000  0.4451920000000 1.0
C      1  0.5287290000000  0.4622100000000  0.3924530000000 1.0
C      1  0.5514010000000  0.4097900000000  0.5666410000000 1.0
C      1  0.5626410000000  0.4596660000000  0.5469010000000 1.0
C      1  0.4719650000000  0.5646890000000  0.4836500000000 1.0
C      1  0.4137160000000  0.5495730000000  0.4632780000000 1.0
C      1  0.4647060000000  0.4685350000000  0.4068990000000 1.0
C      1  0.4655210000000  0.6073600000000  0.4970150000000 1.0
C      1  0.4854640000000  0.6123310000000  0.4754320000000 1.0
C      1  0.5717130000000  0.4351380000000  0.5012850000000 1.0
C      1  0.5216980000000  0.4992990000000  0.5813150000000 1.0
C      1  0.5176890000000  0.5791510000000  0.4813680000000 1.0
C      1  0.4284000000000  0.5004280000000  0.4078440000000 1.0
C      1  0.4679710000000  0.4864740000000  0.5748060000000 1.0
C      1  0.4802980000000  0.6012650000000  0.4491550000000 1.0
C      1  0.4667890000000  0.4873350000000  0.5253670000000 1.0
C      1  0.5913580000000  0.5446760000000  0.4440570000000 1.0
C      1  0.5582350000000  0.4817520000000  0.6185610000000 1.0
C      1  0.5420350000000  0.5645290000000  0.4763440000000 1.0
C      1  0.4780890000000  0.4368610000000  0.5149750000000 1.0
C      1  0.3758490000000  0.5383960000000  0.4739610000000 1.0
C      1  0.4181840000000  0.5383090000000  0.4367530000000 1.0
C      1  0.5757320000000  0.5177290000000  0.4157270000000 1.0
C      1  0.5091730000000  0.4414610000000  0.4020480000000 1.0
C      1  0.5136480000000  0.4843810000000  0.3776790000000 1.0
C      1  0.4328480000000  0.4137900000000  0.5162130000000 1.0
C      1  0.5288780000000  0.4011680000000  0.5280990000000 1.0
C      1  0.4995580000000  0.3907210000000  0.4915500000000 1.0
C      1  0.4848250000000  0.3925530000000  0.4438100000000 1.0
C      1  0.5042130000000  0.5451160000000  0.5873580000000 1.0
C      1  0.4141890000000  0.5352650000000  0.5722920000000 1.0
C      1  0.5219110000000  0.4892750000000  0.5483610000000 1.0
C      1  0.5370690000000  0.5427440000000  0.5274930000000 1.0
C      1  0.5247240000000  0.4468030000000  0.5973120000000 1.0
C      1  0.5971120000000  0.5168520000000  0.4355770000000 1.0
C      1  0.4982040000000  0.5046050000000  0.6004330000000 1.0
C      1  0.5468780000000  0.4327910000000  0.5841150000000 1.0
C      1  0.5107120000000  0.4608240000000  0.5447560000000 1.0
C      1  0.4999590000000  0.5293990000000  0.4651730000000 1.0
C      1  0.5687390000000  0.5285570000000  0.4835880000000 1.0
C      1  0.4827590000000  0.3898600000000  0.5163640000000 1.0
C      1  0.5148970000000  0.6088570000000  0.4778180000000 1.0
C      1  0.4293240000000  0.5673380000000  0.5064100000000 1.0
C      1  0.4356700000000  0.4728110000000  0.4133670000000 1.0
C      1  0.5715230000000  0.4948240000000  0.5267890000000 1.0
C      1  0.4657010000000  0.5145940000000  0.4268230000000 1.0
C      1  0.4707000000000  0.4724070000000  0.5498800000000 1.0
C      1  0.5004080000000  0.5013170000000  0.3978080000000 1.0
C      1  0.4124580000000  0.4661950000000  0.5567830000000 1.0
C      1  0.5632150000000  0.5539080000000  0.6075880000000 1.0
C      1  0.4574060000000  0.4009040000000  0.4429480000000 1.0
C      1  0.4716250000000  0.4741010000000  0.5006220000000 1.0
C      1  0.5314160000000  0.5944640000000  0.4459570000000 1.0
C      1  0.5863980000000  0.5051690000000  0.4894530000000 1.0
C      1  0.5427800000000  0.5721900000000  0.5955990000000 1.0
C      1  0.5574530000000  0.4574500000000  0.5747730000000 1.0
C      1  0.5837210000000  0.4606700000000  0.4496390000000 1.0
C      1  0.4698270000000  0.5115240000000  0.5620350000000 1.0
C      1  0.5489400000000  0.5345260000000  0.5041620000000 1.0
C      1  0.3841960000000  0.5639520000000  0.4664150000000 1.0
C      1  0.5679550000000  0.5734460000000  0.4826460000000 1.0
C      1  0.5221460000000  0.3845220000000  0.5077940000000 1.0
C      1  0.4611390000000  0.5382170000000  0.5605290000000 1.0
C      1  0.6065540000000  0.4971430000000  0.5657060000000 1.0
C      1  0.4164210000000  0.4629690000000  0.4338230000000 1.0
C      1  0.4401840000000  0.5468170000000  0.5811540000000 1.0
C      1  0.5259560000000  0.5289820000000  0.5766800000000 1.0
C      1  0.4594600000000  0.4228400000000  0.5820830000000 1.0
C      1  0.5438040000000  0.4771950000000  0.4864630000000 1.0
C      1  0.5977230000000  0.5054780000000  0.5395760000000 1.0
C      1  0.4810830000000  0.4910070000000  0.4184750000000 1.0
C      1  0.4789790000000  0.3930760000000  0.5460690000000 1.0
C      1  0.5213610000000  0.5152390000000  0.4146520000000 1.0
C      1  0.5549300000000  0.4502990000000  0.5200270000000 1.0
C      1  0.4520410000000  0.5815430000000  0.4959940000000 1.0
C      1  0.4547180000000  0.4064990000000  0.5576970000000 1.0
C      1  0.4114640000000  0.5104500000000  0.4291960000000 1.0
END
