TITL C-884135-4325-9 3889051.77294639 125000 -20913.1994521319 0 0 140 (C1) n - 1
REM
REM in /home/nfs/bkarasulu/CARBON/AIRSS/Generating-Clusters/ReaxFF-fromJPCA2015/Units_Real/with-SteepDescent/Only-C1/SD-CG/Try1-3A/FIRE-CG
REM
REM
REM
REM
REM
REM ./C.cell (11c1c37f851c82e70ff6c80c92926a4b)
REM
REM compiler GCC version 9.2.1 20190827 (Red Hat 9.2.1-1)
REM options -cpp -mtune=generic -march=x86-64 -g -O0 -fpre-include=/usr/include/finclude/math-vector-fortran.h
REM seed -7546668 802334284 1982720007 136778377 -993634846 430846775 656595682 1863634130 -1084091867 -721656629 -1871453383 785614001 406121387 -521092342 678192133 -43442354 207202824 264272981 -225614583 -1027258979 -1416243688 -1281936737 2039240930 -2085949448 -107291168 -738340116 1976051089 915928702 -2104942987 -1872749297 -218223466 2110724734 -836044851
REM
CELL 1.54180   50.00000   50.00000   50.00000   90.00000   90.00000   90.00000
LATT -1
SFAC C  
C      1  0.4600220000000  0.5140170000000  0.4716120000000 1.0
C      1  0.3975530000000  0.5162530000000  0.5522590000000 1.0
C      1  0.4964250000000  0.4543940000000  0.4735930000000 1.0
C      1  0.4644950000000  0.5175710000000  0.5395240000000 1.0
C      1  0.4926840000000  0.5497640000000  0.4688280000000 1.0
C      1  0.5171720000000  0.4422490000000  0.4258230000000 1.0
C      1  0.4315990000000  0.4454560000000  0.4633980000000 1.0
C      1  0.5105320000000  0.4011420000000  0.5219640000000 1.0
C      1  0.5394530000000  0.5849000000000  0.4916100000000 1.0
C      1  0.4251630000000  0.4767340000000  0.4268600000000 1.0
C      1  0.5236850000000  0.5394800000000  0.5873400000000 1.0
C      1  0.5104430000000  0.4104020000000  0.5507180000000 1.0
C      1  0.4715660000000  0.5058090000000  0.5951130000000 1.0
C      1  0.4123090000000  0.4916550000000  0.5619950000000 1.0
C      1  0.5313690000000  0.5368650000000  0.4019770000000 1.0
C      1  0.4497610000000  0.4692950000000  0.5292950000000 1.0
C      1  0.4905090000000  0.5039300000000  0.4816240000000 1.0
C      1  0.4891490000000  0.5107310000000  0.4038270000000 1.0
C      1  0.5587720000000  0.5217000000000  0.5017690000000 1.0
C      1  0.5261400000000  0.4351600000000  0.5584440000000 1.0
C      1  0.4200850000000  0.4995090000000  0.4450250000000 1.0
C      1  0.5194830000000  0.5109670000000  0.3964600000000 1.0
C      1  0.5121660000000  0.4704350000000  0.4209270000000 1.0
C      1  0.5444260000000  0.5715140000000  0.4440370000000 1.0
C      1  0.5493890000000  0.5476660000000  0.4241520000000 1.0
C      1  0.4917990000000  0.4426910000000  0.5891820000000 1.0
C      1  0.5805840000000  0.5570330000000  0.4709510000000 1.0
C      1  0.5122680000000  0.5281410000000  0.4732400000000 1.0
C      1  0.4647830000000  0.5709330000000  0.5575570000000 1.0
C      1  0.4749540000000  0.5975670000000  0.4705580000000 1.0
C      1  0.5563820000000  0.4641680000000  0.5646360000000 1.0
C      1  0.4926850000000  0.6044860000000  0.4911530000000 1.0
C      1  0.4677350000000  0.4364860000000  0.5865190000000 1.0
C      1  0.4444660000000  0.5609710000000  0.4498730000000 1.0
C      1  0.5277070000000  0.4973250000000  0.5887210000000 1.0
C      1  0.5763340000000  0.4653120000000  0.5438680000000 1.0
C      1  0.4516460000000  0.5519500000000  0.5741670000000 1.0
C      1  0.5900830000000  0.4648320000000  0.4996600000000 1.0
C      1  0.5573850000000  0.4874750000000  0.4201080000000 1.0
C      1  0.5292830000000  0.5108340000000  0.5385930000000 1.0
C      1  0.5051340000000  0.5509950000000  0.5123920000000 1.0
C      1  0.5818420000000  0.4631210000000  0.4718840000000 1.0
C      1  0.4979610000000  0.4699370000000  0.5426870000000 1.0
C      1  0.4316030000000  0.4940850000000  0.4725550000000 1.0
C      1  0.4881710000000  0.5570860000000  0.5585890000000 1.0
C      1  0.5278990000000  0.4553450000000  0.5103110000000 1.0
C      1  0.5092190000000  0.4887330000000  0.4433680000000 1.0
C      1  0.5593750000000  0.5600250000000  0.5621120000000 1.0
C      1  0.5392800000000  0.5169080000000  0.5676890000000 1.0
C      1  0.5531740000000  0.5099570000000  0.4571980000000 1.0
C      1  0.5293560000000  0.5592880000000  0.5030240000000 1.0
C      1  0.4563480000000  0.4960170000000  0.5219470000000 1.0
C      1  0.4967420000000  0.5384230000000  0.5935300000000 1.0
C      1  0.4602780000000  0.4884680000000  0.5729020000000 1.0
C      1  0.5653350000000  0.5317690000000  0.5642110000000 1.0
C      1  0.5335190000000  0.4879480000000  0.4047320000000 1.0
C      1  0.4288800000000  0.4295340000000  0.5195700000000 1.0
C      1  0.5374580000000  0.4036200000000  0.4803650000000 1.0
C      1  0.5454070000000  0.4994030000000  0.5167250000000 1.0
C      1  0.5660420000000  0.4499330000000  0.4355080000000 1.0
C      1  0.4550530000000  0.5759070000000  0.5075020000000 1.0
C      1  0.4150580000000  0.5145350000000  0.4844980000000 1.0
C      1  0.4379960000000  0.4790160000000  0.5584030000000 1.0
C      1  0.4124490000000  0.5526520000000  0.5174060000000 1.0
C      1  0.4479410000000  0.4167380000000  0.5384130000000 1.0
C      1  0.4998030000000  0.5029900000000  0.5092410000000 1.0
C      1  0.5245140000000  0.5142530000000  0.4476120000000 1.0
C      1  0.5863860000000  0.5178190000000  0.4976510000000 1.0
C      1  0.5233100000000  0.4581400000000  0.5403100000000 1.0
C      1  0.5326080000000  0.5637470000000  0.5740440000000 1.0
C      1  0.4788020000000  0.5544940000000  0.4962610000000 1.0
C      1  0.4784480000000  0.5309760000000  0.4206440000000 1.0
C      1  0.4656870000000  0.5816670000000  0.4492380000000 1.0
C      1  0.5129640000000  0.4071270000000  0.4655730000000 1.0
C      1  0.4712870000000  0.4863460000000  0.4059070000000 1.0
C      1  0.5539680000000  0.4315410000000  0.5080780000000 1.0
C      1  0.4879620000000  0.3995200000000  0.4770400000000 1.0
C      1  0.5762030000000  0.4372850000000  0.4610100000000 1.0
C      1  0.4283570000000  0.5288370000000  0.5073350000000 1.0
C      1  0.4082530000000  0.5427600000000  0.5441890000000 1.0
C      1  0.4771710000000  0.4274500000000  0.4386420000000 1.0
C      1  0.5761720000000  0.4484190000000  0.5190580000000 1.0
C      1  0.4860600000000  0.3976070000000  0.5063000000000 1.0
C      1  0.4894860000000  0.5975570000000  0.5212100000000 1.0
C      1  0.5604990000000  0.5755640000000  0.4674960000000 1.0
C      1  0.4364920000000  0.4528930000000  0.4364720000000 1.0
C      1  0.4292930000000  0.5386810000000  0.5635610000000 1.0
C      1  0.4277020000000  0.5701740000000  0.5003860000000 1.0
C      1  0.5978100000000  0.5344250000000  0.4742860000000 1.0
C      1  0.4563530000000  0.5326900000000  0.4422080000000 1.0
C      1  0.5189260000000  0.5840150000000  0.4498550000000 1.0
C      1  0.5361620000000  0.4052180000000  0.5095310000000 1.0
C      1  0.4964900000000  0.4804490000000  0.4654520000000 1.0
C      1  0.4235750000000  0.5614700000000  0.4700350000000 1.0
C      1  0.5615530000000  0.5790520000000  0.5385400000000 1.0
C      1  0.5111430000000  0.5741080000000  0.5578230000000 1.0
C      1  0.5194930000000  0.4450250000000  0.5852900000000 1.0
C      1  0.4988080000000  0.4960670000000  0.5878440000000 1.0
C      1  0.5139630000000  0.5925820000000  0.5356770000000 1.0
C      1  0.5904600000000  0.4905880000000  0.5377350000000 1.0
C      1  0.6118500000000  0.5341740000000  0.5512590000000 1.0
C      1  0.4689990000000  0.5356790000000  0.5932500000000 1.0
C      1  0.4815840000000  0.4612240000000  0.4145900000000 1.0
C      1  0.5435870000000  0.4331690000000  0.4205000000000 1.0
C      1  0.5542710000000  0.4728410000000  0.4422980000000 1.0
C      1  0.5378510000000  0.4698290000000  0.5855470000000 1.0
C      1  0.4584650000000  0.3998350000000  0.5167000000000 1.0
C      1  0.4433070000000  0.4936040000000  0.4110140000000 1.0
C      1  0.5963360000000  0.4928140000000  0.5102880000000 1.0
C      1  0.5610240000000  0.4215970000000  0.4802000000000 1.0
C      1  0.4377870000000  0.5161550000000  0.5314450000000 1.0
C      1  0.4932370000000  0.5685220000000  0.4470300000000 1.0
C      1  0.4611950000000  0.4456720000000  0.4258420000000 1.0
C      1  0.4588770000000  0.4173020000000  0.5670380000000 1.0
C      1  0.4365800000000  0.4098320000000  0.4987580000000 1.0
C      1  0.4977980000000  0.4522830000000  0.5018420000000 1.0
C      1  0.5412410000000  0.5924940000000  0.5227750000000 1.0
C      1  0.5902400000000  0.5237640000000  0.4487600000000 1.0
C      1  0.5906690000000  0.5181170000000  0.5540390000000 1.0
C      1  0.5365360000000  0.5373850000000  0.4894560000000 1.0
C      1  0.4644140000000  0.5870340000000  0.5323890000000 1.0
C      1  0.4884090000000  0.4894430000000  0.5612640000000 1.0
C      1  0.4312720000000  0.4571660000000  0.5101560000000 1.0
C      1  0.5402960000000  0.4791640000000  0.4978610000000 1.0
C      1  0.4295490000000  0.4658520000000  0.4830670000000 1.0
C      1  0.4139100000000  0.5175000000000  0.5760850000000 1.0
C      1  0.4875160000000  0.5290520000000  0.5510130000000 1.0
C      1  0.4415320000000  0.4189820000000  0.4715440000000 1.0
C      1  0.4811350000000  0.4635810000000  0.5220980000000 1.0
C      1  0.4573080000000  0.5334430000000  0.4919910000000 1.0
C      1  0.4665670000000  0.4108220000000  0.4599340000000 1.0
C      1  0.5561040000000  0.4828310000000  0.4696250000000 1.0
C      1  0.5258890000000  0.5354070000000  0.4279530000000 1.0
C      1  0.4167320000000  0.5347560000000  0.4658030000000 1.0
C      1  0.5048720000000  0.4333660000000  0.4517150000000 1.0
C      1  0.4861510000000  0.4091090000000  0.5648740000000 1.0
C      1  0.5674410000000  0.5168850000000  0.4321220000000 1.0
C      1  0.5070630000000  0.5261470000000  0.5288220000000 1.0
C      1  0.4352350000000  0.5169140000000  0.4270290000000 1.0
C      1  0.5170450000000  0.5974660000000  0.4759970000000 1.0
END
