TITL C-884137-4758-116 1.06671494813892 125000 -14419.4531785876 0 0 97 (C1) n - 1
REM
REM in /home/nfs/bkarasulu/CARBON/AIRSS/Generating-Clusters/ReaxFF-fromJPCA2015/Units_Real/with-SteepDescent/Only-C1/SD-CG/Try1-3A/FIRE-CG
REM
REM
REM
REM
REM
REM ./C.cell (11c1c37f851c82e70ff6c80c92926a4b)
REM
REM compiler GCC version 9.2.1 20190827 (Red Hat 9.2.1-1)
REM options -cpp -mtune=generic -march=x86-64 -g -O0 -fpre-include=/usr/include/finclude/math-vector-fortran.h
REM seed 1025620420 -144255123 -571240119 -631490557 1415496082 407022353 -1348956669 -1020445655 -1427903425 -1142662691 -629698621 -687257249 1685879286 -556243569 -1894201886 -370635 -1439810211 -511676280 882160900 -1772392738 -2000967492 -623585490 1226368607 -872053213 -425716835 1857457924 335961735 -1770141187 -1181862609 626187705 -1761951643 913735003 82872307
REM
CELL 1.54180   50.00000   50.00000   50.00000   90.00000   90.00000   90.00000
LATT -1
SFAC C  
C      1  0.5117480000000  0.4304960000000  0.5536790000000 1.0
C      1  0.5313190000000  0.5087460000000  0.5323930000000 1.0
C      1  0.4331930000000  0.5533820000000  0.5464920000000 1.0
C      1  0.4657690000000  0.5862840000000  0.5444320000000 1.0
C      1  0.5085360000000  0.4596240000000  0.4123560000000 1.0
C      1  0.4825830000000  0.5268360000000  0.5456810000000 1.0
C      1  0.5664060000000  0.5302280000000  0.4364300000000 1.0
C      1  0.4742440000000  0.4815520000000  0.5316650000000 1.0
C      1  0.4922930000000  0.5148120000000  0.4041010000000 1.0
C      1  0.5581320000000  0.4316760000000  0.4999970000000 1.0
C      1  0.4771250000000  0.4994820000000  0.5103860000000 1.0
C      1  0.4837970000000  0.4079240000000  0.4943970000000 1.0
C      1  0.4770360000000  0.5896000000000  0.5189730000000 1.0
C      1  0.5270240000000  0.5781140000000  0.5094390000000 1.0
C      1  0.5045990000000  0.5809500000000  0.5283690000000 1.0
C      1  0.5624940000000  0.4288210000000  0.5286730000000 1.0
C      1  0.5732190000000  0.4774380000000  0.5390710000000 1.0
C      1  0.4808090000000  0.4744000000000  0.4615490000000 1.0
C      1  0.4727040000000  0.5554860000000  0.4623930000000 1.0
C      1  0.5307700000000  0.4375840000000  0.4890050000000 1.0
C      1  0.4561930000000  0.5654260000000  0.5613160000000 1.0
C      1  0.5421200000000  0.5529450000000  0.4710040000000 1.0
C      1  0.5696300000000  0.4778820000000  0.4888050000000 1.0
C      1  0.5211260000000  0.4598790000000  0.5022950000000 1.0
C      1  0.4358700000000  0.4449850000000  0.4815820000000 1.0
C      1  0.5041850000000  0.4957820000000  0.4911430000000 1.0
C      1  0.4245740000000  0.5485120000000  0.4748050000000 1.0
C      1  0.4925760000000  0.5647970000000  0.4823790000000 1.0
C      1  0.5266640000000  0.5245390000000  0.5722740000000 1.0
C      1  0.5053710000000  0.4694790000000  0.4806540000000 1.0
C      1  0.4427720000000  0.4450950000000  0.5106070000000 1.0
C      1  0.4304880000000  0.4497940000000  0.5369090000000 1.0
C      1  0.5795990000000  0.4515230000000  0.4982340000000 1.0
C      1  0.5296400000000  0.5040150000000  0.5037530000000 1.0
C      1  0.4783450000000  0.4890630000000  0.5795530000000 1.0
C      1  0.4826450000000  0.5524510000000  0.5612040000000 1.0
C      1  0.4760670000000  0.5173230000000  0.4289890000000 1.0
C      1  0.5754620000000  0.5315240000000  0.5455260000000 1.0
C      1  0.4951640000000  0.5392540000000  0.4971320000000 1.0
C      1  0.4286850000000  0.4947160000000  0.4611060000000 1.0
C      1  0.5500140000000  0.5541590000000  0.4402310000000 1.0
C      1  0.5404390000000  0.4316380000000  0.5475150000000 1.0
C      1  0.5672580000000  0.5103300000000  0.4122040000000 1.0
C      1  0.4503760000000  0.5651660000000  0.4776320000000 1.0
C      1  0.4703890000000  0.4514540000000  0.4453690000000 1.0
C      1  0.5228760000000  0.4548980000000  0.5417380000000 1.0
C      1  0.4553580000000  0.4517710000000  0.5526340000000 1.0
C      1  0.4148640000000  0.5457800000000  0.5024560000000 1.0
C      1  0.4873880000000  0.4148400000000  0.5455810000000 1.0
C      1  0.5208300000000  0.5721430000000  0.4822310000000 1.0
C      1  0.4860050000000  0.4253540000000  0.5177640000000 1.0
C      1  0.5490380000000  0.5109060000000  0.4507370000000 1.0
C      1  0.5014960000000  0.4210770000000  0.4478450000000 1.0
C      1  0.5100600000000  0.5344660000000  0.4122770000000 1.0
C      1  0.5637780000000  0.5515540000000  0.4942160000000 1.0
C      1  0.5432060000000  0.4789930000000  0.5003030000000 1.0
C      1  0.5408940000000  0.4985410000000  0.5725130000000 1.0
C      1  0.4204230000000  0.4673080000000  0.4705500000000 1.0
C      1  0.4254560000000  0.4950870000000  0.5113300000000 1.0
C      1  0.4783550000000  0.4144260000000  0.4655570000000 1.0
C      1  0.4325950000000  0.4998260000000  0.5535340000000 1.0
C      1  0.4223550000000  0.4791360000000  0.5362090000000 1.0
C      1  0.5075180000000  0.5660260000000  0.5535700000000 1.0
C      1  0.5321520000000  0.5517800000000  0.5611190000000 1.0
C      1  0.4935140000000  0.4846240000000  0.4094650000000 1.0
C      1  0.5836270000000  0.5040870000000  0.4881060000000 1.0
C      1  0.4755330000000  0.5264760000000  0.4570810000000 1.0
C      1  0.5033230000000  0.4831880000000  0.5796070000000 1.0
C      1  0.4130020000000  0.5210800000000  0.5182830000000 1.0
C      1  0.5847120000000  0.5315740000000  0.4977900000000 1.0
C      1  0.4641250000000  0.4977590000000  0.5553480000000 1.0
C      1  0.5496680000000  0.4919510000000  0.4274460000000 1.0
C      1  0.5254570000000  0.4744680000000  0.5663670000000 1.0
C      1  0.4535350000000  0.5761030000000  0.5047870000000 1.0
C      1  0.5314530000000  0.5248840000000  0.4689230000000 1.0
C      1  0.4611340000000  0.4246550000000  0.5503310000000 1.0
C      1  0.5036080000000  0.5202910000000  0.4758390000000 1.0
C      1  0.4828000000000  0.4897420000000  0.4350510000000 1.0
C      1  0.4578320000000  0.4990230000000  0.4694750000000 1.0
C      1  0.4690400000000  0.4541010000000  0.5223360000000 1.0
C      1  0.5359100000000  0.4452670000000  0.4412430000000 1.0
C      1  0.5819080000000  0.4531580000000  0.5284220000000 1.0
C      1  0.4799340000000  0.5278430000000  0.5176270000000 1.0
C      1  0.5972010000000  0.5331270000000  0.5269210000000 1.0
C      1  0.4511620000000  0.4962020000000  0.4973180000000 1.0
C      1  0.4920030000000  0.4409710000000  0.4286260000000 1.0
C      1  0.5366320000000  0.4636090000000  0.4212940000000 1.0
C      1  0.4560730000000  0.4329850000000  0.4620200000000 1.0
C      1  0.5290740000000  0.5476180000000  0.4237790000000 1.0
C      1  0.5557840000000  0.5532640000000  0.5442670000000 1.0
C      1  0.5609860000000  0.5021100000000  0.5484120000000 1.0
C      1  0.5109780000000  0.5177440000000  0.5484490000000 1.0
C      1  0.5523510000000  0.5642200000000  0.5168900000000 1.0
C      1  0.4225740000000  0.5214180000000  0.4684510000000 1.0
C      1  0.4312470000000  0.5639630000000  0.5195500000000 1.0
C      1  0.5276780000000  0.4274350000000  0.4607700000000 1.0
C      1  0.4220430000000  0.5259820000000  0.5458590000000 1.0
END
