TITL C-884128-4793-213 2.49248152052344 125000 -5563.18439740892 0 0 38 (C1) n - 1
REM
REM in /home/nfs/bkarasulu/CARBON/AIRSS/Generating-Clusters/ReaxFF-fromJPCA2015/Units_Real/with-SteepDescent/Only-C1/SD-CG/Try1-3A/FIRE-CG
REM
REM
REM
REM
REM
REM ./C.cell (11c1c37f851c82e70ff6c80c92926a4b)
REM
REM compiler GCC version 9.2.1 20190827 (Red Hat 9.2.1-1)
REM options -cpp -mtune=generic -march=x86-64 -g -O0 -fpre-include=/usr/include/finclude/math-vector-fortran.h
REM seed 1490878099 -1541135524 -1282855832 -2100545005 675300896 -849089321 -1754306121 151648945 252520745 1057056362 -2054801031 -1784390209 1298717752 -901676497 905370112 -2030892279 -426416076 1535701045 1339641146 116719520 444720614 1805824712 1585882395 -256067230 517573648 2108440202 1900567514 1915921958 256548545 -1086481316 -781379558 -1589824995 1343552289
REM
CELL 1.54180   50.00000   50.00000   50.00000   90.00000   90.00000   90.00000
LATT -1
SFAC C  
C      1  0.5453450000000  0.5238190000000  0.5557480000000 1.0
C      1  0.5646410000000  0.5107810000000  0.5125340000000 1.0
C      1  0.4398520000000  0.5179780000000  0.4931670000000 1.0
C      1  0.5303880000000  0.5465530000000  0.5136370000000 1.0
C      1  0.4629390000000  0.5157070000000  0.5098020000000 1.0
C      1  0.4587540000000  0.4550680000000  0.5327450000000 1.0
C      1  0.5573610000000  0.4949780000000  0.4886110000000 1.0
C      1  0.4826590000000  0.4793940000000  0.4478340000000 1.0
C      1  0.4863070000000  0.4769500000000  0.5553510000000 1.0
C      1  0.4913700000000  0.5167640000000  0.4938040000000 1.0
C      1  0.4577960000000  0.4513980000000  0.5032000000000 1.0
C      1  0.5152770000000  0.5164970000000  0.4373010000000 1.0
C      1  0.5063640000000  0.4921510000000  0.4872600000000 1.0
C      1  0.4720540000000  0.5245590000000  0.4601950000000 1.0
C      1  0.5047780000000  0.5438400000000  0.4976030000000 1.0
C      1  0.4394530000000  0.4672930000000  0.4861850000000 1.0
C      1  0.4946500000000  0.4687750000000  0.4727800000000 1.0
C      1  0.5532060000000  0.5349180000000  0.4995700000000 1.0
C      1  0.5336780000000  0.5202160000000  0.4513980000000 1.0
C      1  0.5345390000000  0.4813960000000  0.5408360000000 1.0
C      1  0.4394310000000  0.4939750000000  0.4735850000000 1.0
C      1  0.4859720000000  0.4502110000000  0.4939590000000 1.0
C      1  0.5554800000000  0.5017630000000  0.5390700000000 1.0
C      1  0.5285940000000  0.4634980000000  0.5181230000000 1.0
C      1  0.4566770000000  0.5007950000000  0.5263430000000 1.0
C      1  0.5276940000000  0.5430190000000  0.5424020000000 1.0
C      1  0.5324960000000  0.4802790000000  0.4943930000000 1.0
C      1  0.4515270000000  0.5329050000000  0.4727200000000 1.0
C      1  0.5053800000000  0.4931840000000  0.4404600000000 1.0
C      1  0.5011570000000  0.5496030000000  0.4707180000000 1.0
C      1  0.4862460000000  0.4510470000000  0.5414980000000 1.0
C      1  0.5517130000000  0.5198470000000  0.4731260000000 1.0
C      1  0.5032880000000  0.4488590000000  0.5173050000000 1.0
C      1  0.5109250000000  0.4929120000000  0.5540130000000 1.0
C      1  0.5164720000000  0.5209890000000  0.5593620000000 1.0
C      1  0.4594230000000  0.4817300000000  0.5444580000000 1.0
C      1  0.4610010000000  0.4992990000000  0.4529240000000 1.0
C      1  0.4951110000000  0.5370480000000  0.4459810000000 1.0
END
