TITL C-883727-9645-200 58.1822750524794 125000 -26035.7096630399 0 0 176 (C1) n - 1
REM
REM in /home/nfs/bkarasulu/CARBON/AIRSS/Generating-Clusters/ReaxFF-fromJPCA2015/Units_Real/with-SteepDescent/Only-C1/SD-CG/Try1-3A/FIRE-CG
REM
REM
REM
REM
REM
REM ./C.cell (11c1c37f851c82e70ff6c80c92926a4b)
REM
REM compiler GCC version 9.2.1 20190827 (Red Hat 9.2.1-1)
REM options -cpp -mtune=generic -march=x86-64 -g -O0 -fpre-include=/usr/include/finclude/math-vector-fortran.h
REM seed 620000814 -2085933024 1717185519 -132892602 -624947184 1346310335 829655447 1851612019 782638998 -613501234 385006907 308824971 2136518816 328516486 -198914601 -1633978336 -831148647 -289834426 -458163126 916298784 211350998 465945111 148072776 486249066 -1289018898 -1322018060 1203979338 1758661574 -778261871 235156769 113281558 -873691961 291438747
REM
CELL 1.54180   50.00000   50.00000   50.00000   90.00000   90.00000   90.00000
LATT -1
SFAC C  
C      1  0.5204770000000  0.4272520000000  0.4245270000000 1.0
C      1  0.4666030000000  0.4777650000000  0.6005020000000 1.0
C      1  0.5931410000000  0.4437030000000  0.4885430000000 1.0
C      1  0.5174930000000  0.3925240000000  0.5062800000000 1.0
C      1  0.4218600000000  0.4342800000000  0.5384080000000 1.0
C      1  0.4596530000000  0.5256320000000  0.5902990000000 1.0
C      1  0.4910620000000  0.5614420000000  0.4164180000000 1.0
C      1  0.6007600000000  0.5175310000000  0.4990320000000 1.0
C      1  0.4745880000000  0.5970360000000  0.4686030000000 1.0
C      1  0.5051760000000  0.5062420000000  0.6100290000000 1.0
C      1  0.5041930000000  0.5087870000000  0.3906480000000 1.0
C      1  0.5199710000000  0.4038440000000  0.5324190000000 1.0
C      1  0.5765830000000  0.4232230000000  0.5035440000000 1.0
C      1  0.3979200000000  0.5004500000000  0.5153280000000 1.0
C      1  0.5116790000000  0.4652030000000  0.5151960000000 1.0
C      1  0.4686210000000  0.5456130000000  0.4615140000000 1.0
C      1  0.4517540000000  0.5052690000000  0.5390910000000 1.0
C      1  0.4751470000000  0.5392940000000  0.5561070000000 1.0
C      1  0.5178220000000  0.4842490000000  0.5605200000000 1.0
C      1  0.4858800000000  0.4306740000000  0.5818770000000 1.0
C      1  0.4418900000000  0.4844530000000  0.4285540000000 1.0
C      1  0.5124850000000  0.4353170000000  0.4781780000000 1.0
C      1  0.5549040000000  0.5429920000000  0.5818490000000 1.0
C      1  0.3866480000000  0.5271110000000  0.5235090000000 1.0
C      1  0.5410290000000  0.5109290000000  0.5233030000000 1.0
C      1  0.4240760000000  0.4610530000000  0.4231410000000 1.0
C      1  0.4773550000000  0.5435580000000  0.4891090000000 1.0
C      1  0.4266860000000  0.5712980000000  0.4776670000000 1.0
C      1  0.5656730000000  0.4377150000000  0.4446360000000 1.0
C      1  0.5053060000000  0.5853780000000  0.4253670000000 1.0
C      1  0.5316830000000  0.4804650000000  0.5347260000000 1.0
C      1  0.4828820000000  0.5978720000000  0.4404650000000 1.0
C      1  0.5825360000000  0.4907620000000  0.5676240000000 1.0
C      1  0.5694230000000  0.4591490000000  0.4800260000000 1.0
C      1  0.6017310000000  0.5244980000000  0.5527750000000 1.0
C      1  0.5312890000000  0.5192930000000  0.3968000000000 1.0
C      1  0.4469350000000  0.4993680000000  0.5930790000000 1.0
C      1  0.5310860000000  0.5706920000000  0.4244470000000 1.0
C      1  0.4453480000000  0.4906060000000  0.4876270000000 1.0
C      1  0.5337170000000  0.4767530000000  0.4123820000000 1.0
C      1  0.4574680000000  0.5918490000000  0.5387680000000 1.0
C      1  0.5014450000000  0.6057760000000  0.5138510000000 1.0
C      1  0.5293600000000  0.4549620000000  0.4317800000000 1.0
C      1  0.4615310000000  0.5219000000000  0.5188680000000 1.0
C      1  0.4622500000000  0.5668810000000  0.4122710000000 1.0
C      1  0.4856780000000  0.6025020000000  0.5381410000000 1.0
C      1  0.5426380000000  0.4178710000000  0.5436000000000 1.0
C      1  0.5600820000000  0.4635860000000  0.5295170000000 1.0
C      1  0.5760440000000  0.4771090000000  0.4350730000000 1.0
C      1  0.4482050000000  0.5846450000000  0.5117830000000 1.0
C      1  0.5629040000000  0.5821970000000  0.4656320000000 1.0
C      1  0.5543520000000  0.4136570000000  0.4546890000000 1.0
C      1  0.5210210000000  0.5754200000000  0.4816070000000 1.0
C      1  0.5139460000000  0.4303350000000  0.5891840000000 1.0
C      1  0.5501210000000  0.5014870000000  0.4901160000000 1.0
C      1  0.6042400000000  0.4985390000000  0.5513410000000 1.0
C      1  0.5882870000000  0.5440590000000  0.4930000000000 1.0
C      1  0.5031350000000  0.4549550000000  0.4578160000000 1.0
C      1  0.4888450000000  0.5454670000000  0.4418970000000 1.0
C      1  0.4208090000000  0.5745770000000  0.5071250000000 1.0
C      1  0.5606060000000  0.4332260000000  0.5255790000000 1.0
C      1  0.4713470000000  0.4917130000000  0.4223240000000 1.0
C      1  0.4492860000000  0.5714300000000  0.5579470000000 1.0
C      1  0.4777270000000  0.4060920000000  0.4399980000000 1.0
C      1  0.4243290000000  0.5108440000000  0.5466340000000 1.0
C      1  0.5266800000000  0.5388820000000  0.5777320000000 1.0
C      1  0.4267430000000  0.4347830000000  0.4867090000000 1.0
C      1  0.5977680000000  0.5177370000000  0.4357170000000 1.0
C      1  0.5569700000000  0.5253310000000  0.5390120000000 1.0
C      1  0.5306390000000  0.6070390000000  0.5084910000000 1.0
C      1  0.4127980000000  0.4518820000000  0.4495890000000 1.0
C      1  0.3983580000000  0.5242310000000  0.4712820000000 1.0
C      1  0.5717890000000  0.4656790000000  0.5574240000000 1.0
C      1  0.5163780000000  0.5135640000000  0.5643010000000 1.0
C      1  0.5867350000000  0.5619870000000  0.4693920000000 1.0
C      1  0.4626370000000  0.4143000000000  0.5698470000000 1.0
C      1  0.4137890000000  0.4630970000000  0.5254410000000 1.0
C      1  0.4756540000000  0.4443020000000  0.4147530000000 1.0
C      1  0.5262030000000  0.5182530000000  0.4471640000000 1.0
C      1  0.4931840000000  0.5872950000000  0.4915680000000 1.0
C      1  0.4847570000000  0.5577180000000  0.5361520000000 1.0
C      1  0.5637070000000  0.4054630000000  0.4825880000000 1.0
C      1  0.4300410000000  0.4108850000000  0.5241870000000 1.0
C      1  0.4758340000000  0.5145550000000  0.3996260000000 1.0
C      1  0.4459500000000  0.5037640000000  0.3857610000000 1.0
C      1  0.5592790000000  0.4601990000000  0.4483020000000 1.0
C      1  0.4557640000000  0.5870240000000  0.4329560000000 1.0
C      1  0.5709860000000  0.4993960000000  0.5940230000000 1.0
C      1  0.6086780000000  0.5138660000000  0.5267620000000 1.0
C      1  0.5007650000000  0.4007460000000  0.4573170000000 1.0
C      1  0.4992780000000  0.5266690000000  0.4978470000000 1.0
C      1  0.5134830000000  0.5570850000000  0.5351570000000 1.0
C      1  0.6105740000000  0.4677260000000  0.4916670000000 1.0
C      1  0.5016600000000  0.4840240000000  0.4716560000000 1.0
C      1  0.4756890000000  0.4505050000000  0.4638380000000 1.0
C      1  0.5002170000000  0.5744260000000  0.5802800000000 1.0
C      1  0.4380990000000  0.5298450000000  0.5052750000000 1.0
C      1  0.5410710000000  0.5959530000000  0.4814110000000 1.0
C      1  0.4842620000000  0.4708270000000  0.5548060000000 1.0
C      1  0.4922820000000  0.5169790000000  0.5498530000000 1.0
C      1  0.4242010000000  0.5506180000000  0.5179160000000 1.0
C      1  0.5485730000000  0.5173630000000  0.4643760000000 1.0
C      1  0.6042210000000  0.4943490000000  0.4796930000000 1.0
C      1  0.4257480000000  0.5082260000000  0.4357400000000 1.0
C      1  0.4187450000000  0.5451850000000  0.4675500000000 1.0
C      1  0.4408050000000  0.5478930000000  0.5722190000000 1.0
C      1  0.5698810000000  0.5805190000000  0.5260460000000 1.0
C      1  0.4061610000000  0.4997980000000  0.4572390000000 1.0
C      1  0.4724950000000  0.5665670000000  0.5079480000000 1.0
C      1  0.5583700000000  0.5245890000000  0.6034650000000 1.0
C      1  0.4171800000000  0.5365540000000  0.5579520000000 1.0
C      1  0.4337430000000  0.5207420000000  0.4053100000000 1.0
C      1  0.4961010000000  0.4063110000000  0.4866110000000 1.0
C      1  0.5443380000000  0.5958690000000  0.5312380000000 1.0
C      1  0.4358020000000  0.4796470000000  0.5721590000000 1.0
C      1  0.5345100000000  0.4693190000000  0.5870890000000 1.0
C      1  0.5641820000000  0.5368230000000  0.4452870000000 1.0
C      1  0.4567340000000  0.5060430000000  0.4677260000000 1.0
C      1  0.4715980000000  0.4469820000000  0.4942250000000 1.0
C      1  0.4241510000000  0.5050030000000  0.5014070000000 1.0
C      1  0.4614040000000  0.4657460000000  0.5739670000000 1.0
C      1  0.4865630000000  0.5278880000000  0.6018490000000 1.0
C      1  0.4934240000000  0.4224100000000  0.5353780000000 1.0
C      1  0.4574160000000  0.5393470000000  0.4047240000000 1.0
C      1  0.5921310000000  0.5442430000000  0.4466720000000 1.0
C      1  0.3831530000000  0.5187020000000  0.4963810000000 1.0
C      1  0.5346360000000  0.5079690000000  0.6126340000000 1.0
C      1  0.5338020000000  0.5275580000000  0.4220870000000 1.0
C      1  0.5044060000000  0.5511880000000  0.5945360000000 1.0
C      1  0.4034830000000  0.5493080000000  0.5345720000000 1.0
C      1  0.5378130000000  0.5551090000000  0.4942300000000 1.0
C      1  0.5260840000000  0.5799650000000  0.5480990000000 1.0
C      1  0.4998710000000  0.5230120000000  0.4514100000000 1.0
C      1  0.5027930000000  0.5947240000000  0.5612990000000 1.0
C      1  0.5097790000000  0.4811740000000  0.3955940000000 1.0
C      1  0.5282180000000  0.4551020000000  0.4910200000000 1.0
C      1  0.5311730000000  0.4813080000000  0.4771790000000 1.0
C      1  0.4164720000000  0.4822920000000  0.5482090000000 1.0
C      1  0.4826760000000  0.5004540000000  0.4541010000000 1.0
C      1  0.4926960000000  0.4425400000000  0.5560750000000 1.0
C      1  0.4846350000000  0.4703280000000  0.4068470000000 1.0
C      1  0.5533010000000  0.5671910000000  0.4435930000000 1.0
C      1  0.5490900000000  0.4852730000000  0.6045440000000 1.0
C      1  0.4607890000000  0.4442900000000  0.4407960000000 1.0
C      1  0.4640810000000  0.4795310000000  0.5351360000000 1.0
C      1  0.5215900000000  0.5374030000000  0.5125200000000 1.0
C      1  0.4675790000000  0.4040080000000  0.4957380000000 1.0
C      1  0.4948090000000  0.4790210000000  0.6085140000000 1.0
C      1  0.4396770000000  0.4275420000000  0.5597880000000 1.0
C      1  0.4922730000000  0.4873440000000  0.5009390000000 1.0
C      1  0.4651590000000  0.4753370000000  0.5057290000000 1.0
C      1  0.4265680000000  0.4272640000000  0.4590940000000 1.0
C      1  0.4523720000000  0.4271870000000  0.4958770000000 1.0
C      1  0.5844820000000  0.5718300000000  0.5484110000000 1.0
C      1  0.5656910000000  0.4775340000000  0.5007660000000 1.0
C      1  0.5551570000000  0.4505400000000  0.5753720000000 1.0
C      1  0.5436970000000  0.3969590000000  0.4991640000000 1.0
C      1  0.5747010000000  0.5413500000000  0.5564850000000 1.0
C      1  0.4547240000000  0.3960170000000  0.5208470000000 1.0
C      1  0.5725100000000  0.5185690000000  0.4206120000000 1.0
C      1  0.4135740000000  0.4594840000000  0.4959480000000 1.0
C      1  0.4922390000000  0.4430540000000  0.5155600000000 1.0
C      1  0.5379070000000  0.4283460000000  0.5709560000000 1.0
C      1  0.4922600000000  0.4208960000000  0.4189440000000 1.0
C      1  0.4884300000000  0.5117530000000  0.5164990000000 1.0
C      1  0.4706740000000  0.4035630000000  0.5442270000000 1.0
C      1  0.5955490000000  0.4931510000000  0.4508010000000 1.0
C      1  0.5124570000000  0.4560180000000  0.6024670000000 1.0
C      1  0.5329530000000  0.5485610000000  0.4048260000000 1.0
C      1  0.4480670000000  0.5859260000000  0.4619120000000 1.0
C      1  0.4501860000000  0.4173360000000  0.4442540000000 1.0
C      1  0.5580760000000  0.4938430000000  0.4149060000000 1.0
C      1  0.4426710000000  0.5301280000000  0.4564340000000 1.0
C      1  0.4066900000000  0.4727310000000  0.4695160000000 1.0
C      1  0.5652090000000  0.5578540000000  0.5052070000000 1.0
C      1  0.5272190000000  0.4080320000000  0.4449810000000 1.0
END
