TITL C-884135-4325-199 9.71777668024457 125000 -22797.6104718941 0 0 154 (C1) n - 1
REM
REM in /home/nfs/bkarasulu/CARBON/AIRSS/Generating-Clusters/ReaxFF-fromJPCA2015/Units_Real/with-SteepDescent/Only-C1/SD-CG/Try1-3A/FIRE-CG
REM
REM
REM
REM
REM
REM ./C.cell (11c1c37f851c82e70ff6c80c92926a4b)
REM
REM compiler GCC version 9.2.1 20190827 (Red Hat 9.2.1-1)
REM options -cpp -mtune=generic -march=x86-64 -g -O0 -fpre-include=/usr/include/finclude/math-vector-fortran.h
REM seed 1643667287 -224518832 1318132470 -1701093826 1869450908 947803538 -2035565391 -1756648459 -1051000659 -1360955413 -1613237961 1992556455 820774895 -871836119 -344343190 -1633668517 1173864078 898181176 -2138104970 1697661171 216006470 -1897457303 1405292616 1682962544 319396371 998542954 1016644685 2102868901 553609515 -2011043733 694880170 -50637114 339699985
REM
CELL 1.54180   50.00000   50.00000   50.00000   90.00000   90.00000   90.00000
LATT -1
SFAC C  
C      1  0.5132800000000  0.5461850000000  0.5781770000000 1.0
C      1  0.5190340000000  0.4477670000000  0.5146490000000 1.0
C      1  0.5075070000000  0.4809810000000  0.3944120000000 1.0
C      1  0.3952180000000  0.5112890000000  0.5217290000000 1.0
C      1  0.4623440000000  0.5475180000000  0.5441880000000 1.0
C      1  0.4165170000000  0.5276820000000  0.5626390000000 1.0
C      1  0.5594710000000  0.5268120000000  0.5656730000000 1.0
C      1  0.5391120000000  0.5641500000000  0.4832430000000 1.0
C      1  0.4848000000000  0.5471210000000  0.5939570000000 1.0
C      1  0.5655240000000  0.4993880000000  0.5784900000000 1.0
C      1  0.4380930000000  0.4617630000000  0.4506900000000 1.0
C      1  0.6078490000000  0.4860230000000  0.4753230000000 1.0
C      1  0.5354660000000  0.5229080000000  0.4483950000000 1.0
C      1  0.4011140000000  0.4726510000000  0.4800820000000 1.0
C      1  0.5153480000000  0.4541900000000  0.4035400000000 1.0
C      1  0.5432750000000  0.5034750000000  0.5977360000000 1.0
C      1  0.5659640000000  0.5550250000000  0.5506380000000 1.0
C      1  0.4193400000000  0.4554920000000  0.5194260000000 1.0
C      1  0.5198040000000  0.4236190000000  0.5336300000000 1.0
C      1  0.4406700000000  0.5277850000000  0.5081270000000 1.0
C      1  0.5955200000000  0.4827670000000  0.4504460000000 1.0
C      1  0.5335020000000  0.4959780000000  0.5234130000000 1.0
C      1  0.4767620000000  0.4563360000000  0.5056640000000 1.0
C      1  0.4844530000000  0.6063330000000  0.5091680000000 1.0
C      1  0.4312750000000  0.4821530000000  0.5173190000000 1.0
C      1  0.4707710000000  0.5520630000000  0.4782830000000 1.0
C      1  0.6074600000000  0.4942160000000  0.5354600000000 1.0
C      1  0.4133030000000  0.4469770000000  0.4924550000000 1.0
C      1  0.4352490000000  0.5450210000000  0.4467500000000 1.0
C      1  0.5694700000000  0.4308460000000  0.5285830000000 1.0
C      1  0.4106950000000  0.4803070000000  0.4537110000000 1.0
C      1  0.4864570000000  0.4482170000000  0.5892430000000 1.0
C      1  0.5414300000000  0.5694800000000  0.5480040000000 1.0
C      1  0.4910180000000  0.5888900000000  0.5328990000000 1.0
C      1  0.5301230000000  0.5444270000000  0.5315340000000 1.0
C      1  0.4480100000000  0.5891060000000  0.5620600000000 1.0
C      1  0.5293720000000  0.5023270000000  0.3921190000000 1.0
C      1  0.4351650000000  0.4894070000000  0.5434640000000 1.0
C      1  0.4120820000000  0.5637560000000  0.4731000000000 1.0
C      1  0.4987420000000  0.5922350000000  0.5609320000000 1.0
C      1  0.6034990000000  0.5136270000000  0.5141300000000 1.0
C      1  0.4706500000000  0.5030250000000  0.5310920000000 1.0
C      1  0.4796700000000  0.4758560000000  0.4684550000000 1.0
C      1  0.5477080000000  0.4326730000000  0.5477220000000 1.0
C      1  0.4368710000000  0.5231160000000  0.5834540000000 1.0
C      1  0.5528540000000  0.4663790000000  0.4101270000000 1.0
C      1  0.5375990000000  0.5138330000000  0.4751580000000 1.0
C      1  0.5251710000000  0.4807010000000  0.6034660000000 1.0
C      1  0.5662380000000  0.4099480000000  0.5065240000000 1.0
C      1  0.5208440000000  0.5748250000000  0.5676150000000 1.0
C      1  0.4376520000000  0.5699700000000  0.5402830000000 1.0
C      1  0.4030430000000  0.5542680000000  0.4959610000000 1.0
C      1  0.4695230000000  0.4951180000000  0.6070200000000 1.0
C      1  0.4387100000000  0.5070720000000  0.4678910000000 1.0
C      1  0.5502190000000  0.5169760000000  0.5348910000000 1.0
C      1  0.4550500000000  0.5252090000000  0.5301760000000 1.0
C      1  0.4811590000000  0.5072180000000  0.5827670000000 1.0
C      1  0.5667050000000  0.4194600000000  0.4788920000000 1.0
C      1  0.5675540000000  0.4733010000000  0.5655470000000 1.0
C      1  0.5611110000000  0.5087820000000  0.4909030000000 1.0
C      1  0.3982920000000  0.5420580000000  0.5211260000000 1.0
C      1  0.4971920000000  0.5136380000000  0.5346090000000 1.0
C      1  0.4974650000000  0.4336210000000  0.4144660000000 1.0
C      1  0.5079740000000  0.5549870000000  0.4348630000000 1.0
C      1  0.4392560000000  0.5024800000000  0.4210560000000 1.0
C      1  0.4767280000000  0.4342120000000  0.5246230000000 1.0
C      1  0.6105820000000  0.5125020000000  0.4855870000000 1.0
C      1  0.4411850000000  0.4713390000000  0.5887260000000 1.0
C      1  0.4647860000000  0.5324800000000  0.5758590000000 1.0
C      1  0.5681010000000  0.4823740000000  0.4863880000000 1.0
C      1  0.4761210000000  0.5735740000000  0.6017810000000 1.0
C      1  0.4673280000000  0.5794000000000  0.4671530000000 1.0
C      1  0.5091250000000  0.5345010000000  0.5495910000000 1.0
C      1  0.5186970000000  0.5868050000000  0.4712360000000 1.0
C      1  0.4746560000000  0.4014390000000  0.4913630000000 1.0
C      1  0.5869150000000  0.5356730000000  0.4433800000000 1.0
C      1  0.5389020000000  0.5511230000000  0.4177100000000 1.0
C      1  0.4206000000000  0.5063050000000  0.4441760000000 1.0
C      1  0.5204910000000  0.4713310000000  0.5323120000000 1.0
C      1  0.5891970000000  0.4716330000000  0.5441720000000 1.0
C      1  0.5186870000000  0.4591440000000  0.5835560000000 1.0
C      1  0.4521110000000  0.4824070000000  0.4665570000000 1.0
C      1  0.4910940000000  0.4716110000000  0.4426430000000 1.0
C      1  0.5147390000000  0.4857200000000  0.4405340000000 1.0
C      1  0.5156310000000  0.4074920000000  0.4599630000000 1.0
C      1  0.3916920000000  0.4935130000000  0.4991760000000 1.0
C      1  0.4356890000000  0.5693600000000  0.4576450000000 1.0
C      1  0.5856440000000  0.5066880000000  0.4373930000000 1.0
C      1  0.4530360000000  0.4558380000000  0.4261960000000 1.0
C      1  0.4801860000000  0.4488800000000  0.4300350000000 1.0
C      1  0.4513270000000  0.4734270000000  0.5613950000000 1.0
C      1  0.5043270000000  0.4175650000000  0.4368450000000 1.0
C      1  0.5852880000000  0.4404470000000  0.4740060000000 1.0
C      1  0.5409360000000  0.3987240000000  0.5032840000000 1.0
C      1  0.4668770000000  0.4653870000000  0.6028280000000 1.0
C      1  0.6014660000000  0.5369540000000  0.4691040000000 1.0
C      1  0.4617160000000  0.5937550000000  0.4943800000000 1.0
C      1  0.5388310000000  0.4270740000000  0.4652200000000 1.0
C      1  0.5668830000000  0.5684540000000  0.4976860000000 1.0
C      1  0.4827580000000  0.5617210000000  0.5273700000000 1.0
C      1  0.5383630000000  0.5301570000000  0.5862680000000 1.0
C      1  0.5464200000000  0.5504620000000  0.4579840000000 1.0
C      1  0.4296760000000  0.4416500000000  0.5447460000000 1.0
C      1  0.5569300000000  0.4998310000000  0.4349070000000 1.0
C      1  0.5329290000000  0.4606510000000  0.4264540000000 1.0
C      1  0.5865410000000  0.4531660000000  0.5228110000000 1.0
C      1  0.5193420000000  0.5461560000000  0.5022770000000 1.0
C      1  0.4486120000000  0.4079990000000  0.4995040000000 1.0
C      1  0.4138820000000  0.5500330000000  0.5441630000000 1.0
C      1  0.5735920000000  0.5237600000000  0.5155330000000 1.0
C      1  0.5548160000000  0.4939560000000  0.4046410000000 1.0
C      1  0.5635090000000  0.5528810000000  0.4350710000000 1.0
C      1  0.4805380000000  0.5590470000000  0.4207430000000 1.0
C      1  0.4725640000000  0.5916720000000  0.5765410000000 1.0
C      1  0.5849630000000  0.5548720000000  0.4820250000000 1.0
C      1  0.4769670000000  0.4294880000000  0.5698640000000 1.0
C      1  0.5179580000000  0.4940820000000  0.4694680000000 1.0
C      1  0.5559790000000  0.4764280000000  0.4611190000000 1.0
C      1  0.4556530000000  0.4807800000000  0.4107520000000 1.0
C      1  0.4339380000000  0.4287910000000  0.4828960000000 1.0
C      1  0.4110920000000  0.5040050000000  0.5455870000000 1.0
C      1  0.4609150000000  0.5432300000000  0.4408150000000 1.0
C      1  0.5015590000000  0.3969120000000  0.4869480000000 1.0
C      1  0.4409510000000  0.4991300000000  0.5997100000000 1.0
C      1  0.4340720000000  0.5027720000000  0.4963590000000 1.0
C      1  0.4794930000000  0.4834890000000  0.5654280000000 1.0
C      1  0.4783200000000  0.4479240000000  0.4780220000000 1.0
C      1  0.5909560000000  0.4631840000000  0.4929920000000 1.0
C      1  0.4450210000000  0.5526150000000  0.4941970000000 1.0
C      1  0.5130470000000  0.5124690000000  0.5084710000000 1.0
C      1  0.4937860000000  0.4999280000000  0.4890850000000 1.0
C      1  0.4907640000000  0.5526630000000  0.5007740000000 1.0
C      1  0.4942250000000  0.4308540000000  0.5470840000000 1.0
C      1  0.4497810000000  0.4229890000000  0.5544330000000 1.0
C      1  0.4974880000000  0.5769210000000  0.4546380000000 1.0
C      1  0.5311240000000  0.4692960000000  0.4741010000000 1.0
C      1  0.4881580000000  0.5182810000000  0.4140870000000 1.0
C      1  0.5160220000000  0.3986720000000  0.5129550000000 1.0
C      1  0.5027670000000  0.6015450000000  0.4885720000000 1.0
C      1  0.5193740000000  0.4464380000000  0.4856180000000 1.0
C      1  0.5067190000000  0.5250080000000  0.4379060000000 1.0
C      1  0.4818470000000  0.4910620000000  0.4015010000000 1.0
C      1  0.4804590000000  0.4849050000000  0.5104650000000 1.0
C      1  0.5500240000000  0.4417760000000  0.4417960000000 1.0
C      1  0.4437330000000  0.5772130000000  0.5096220000000 1.0
C      1  0.4527880000000  0.4399640000000  0.4641750000000 1.0
C      1  0.4603370000000  0.5213760000000  0.4261630000000 1.0
C      1  0.5739600000000  0.5547660000000  0.5231630000000 1.0
C      1  0.5472390000000  0.4526950000000  0.5672910000000 1.0
C      1  0.5335580000000  0.5289670000000  0.4013220000000 1.0
C      1  0.4832420000000  0.5459950000000  0.3958460000000 1.0
C      1  0.5767170000000  0.4546900000000  0.4496260000000 1.0
C      1  0.5049740000000  0.4705010000000  0.5583250000000 1.0
C      1  0.4573870000000  0.4122440000000  0.5277430000000 1.0
END
