TITL C-883727-9645-5 1233349.62809107 125000 -17825.469024757 0 0 119 (C1) n - 1
REM
REM in /home/nfs/bkarasulu/CARBON/AIRSS/Generating-Clusters/ReaxFF-fromJPCA2015/Units_Real/with-SteepDescent/Only-C1/SD-CG/Try1-3A/FIRE-CG
REM
REM
REM
REM
REM
REM ./C.cell (11c1c37f851c82e70ff6c80c92926a4b)
REM
REM compiler GCC version 9.2.1 20190827 (Red Hat 9.2.1-1)
REM options -cpp -mtune=generic -march=x86-64 -g -O0 -fpre-include=/usr/include/finclude/math-vector-fortran.h
REM seed 1047201805 -159400882 1432126026 1003607744 -845541924 -203352105 -442280188 1141701316 1394408101 1526327406 123371651 1663467174 -2090787874 2095401176 1586850287 -555323324 1841232164 -138989887 351219724 1995369234 -1542873572 1709902528 -370669078 2138765684 297815755 -131414548 1772345785 2140978322 -1488558169 -254819900 -636425693 -1723692982 2050966645
REM
CELL 1.54180   50.00000   50.00000   50.00000   90.00000   90.00000   90.00000
LATT -1
SFAC C  
C      1  0.4982900000000  0.4363230000000  0.5615020000000 1.0
C      1  0.5295320000000  0.4799980000000  0.4262830000000 1.0
C      1  0.5109960000000  0.4937030000000  0.5838880000000 1.0
C      1  0.5052260000000  0.4825100000000  0.5210720000000 1.0
C      1  0.5070340000000  0.5032050000000  0.5561170000000 1.0
C      1  0.4183620000000  0.4763360000000  0.4530110000000 1.0
C      1  0.5202510000000  0.4573790000000  0.4659080000000 1.0
C      1  0.5253590000000  0.4908810000000  0.5386880000000 1.0
C      1  0.5763800000000  0.4335640000000  0.4764360000000 1.0
C      1  0.4291330000000  0.4505190000000  0.4605050000000 1.0
C      1  0.5151400000000  0.5741190000000  0.5340370000000 1.0
C      1  0.4818060000000  0.5496100000000  0.5795210000000 1.0
C      1  0.4958710000000  0.4116170000000  0.4494640000000 1.0
C      1  0.4469720000000  0.5615120000000  0.5118140000000 1.0
C      1  0.4108350000000  0.5417520000000  0.4862870000000 1.0
C      1  0.5521450000000  0.4251080000000  0.4623610000000 1.0
C      1  0.4864230000000  0.5821720000000  0.5364750000000 1.0
C      1  0.5252280000000  0.4412420000000  0.5665350000000 1.0
C      1  0.5093920000000  0.5664460000000  0.4628530000000 1.0
C      1  0.4036400000000  0.5286340000000  0.4628380000000 1.0
C      1  0.5246040000000  0.5654810000000  0.4379600000000 1.0
C      1  0.5849140000000  0.5179390000000  0.4736620000000 1.0
C      1  0.4828120000000  0.5007440000000  0.4164800000000 1.0
C      1  0.5426570000000  0.5964930000000  0.4706380000000 1.0
C      1  0.4605320000000  0.4955500000000  0.5424690000000 1.0
C      1  0.5538220000000  0.5558090000000  0.5579520000000 1.0
C      1  0.4030460000000  0.4984610000000  0.4981160000000 1.0
C      1  0.5207100000000  0.5442030000000  0.4164720000000 1.0
C      1  0.4625500000000  0.5517970000000  0.4472330000000 1.0
C      1  0.5003790000000  0.4779940000000  0.4242450000000 1.0
C      1  0.4051420000000  0.4996190000000  0.4690960000000 1.0
C      1  0.4195220000000  0.4743060000000  0.5003710000000 1.0
C      1  0.5519380000000  0.4883570000000  0.4838900000000 1.0
C      1  0.5107970000000  0.4100380000000  0.4762910000000 1.0
C      1  0.4661870000000  0.4179220000000  0.4538400000000 1.0
C      1  0.6017540000000  0.5054360000000  0.4935510000000 1.0
C      1  0.4922070000000  0.4026520000000  0.4955990000000 1.0
C      1  0.5847020000000  0.5463120000000  0.5143950000000 1.0
C      1  0.4540490000000  0.4097060000000  0.4788910000000 1.0
C      1  0.4870450000000  0.5282580000000  0.5152600000000 1.0
C      1  0.5919510000000  0.4778010000000  0.4955600000000 1.0
C      1  0.5070660000000  0.5166790000000  0.4470680000000 1.0
C      1  0.4400310000000  0.4685620000000  0.5709750000000 1.0
C      1  0.5336330000000  0.4319920000000  0.5411770000000 1.0
C      1  0.4482140000000  0.4254570000000  0.5418290000000 1.0
C      1  0.4149400000000  0.5167770000000  0.5199630000000 1.0
C      1  0.5132100000000  0.5936910000000  0.4720580000000 1.0
C      1  0.5101140000000  0.4931010000000  0.4948570000000 1.0
C      1  0.4539930000000  0.5038150000000  0.4257980000000 1.0
C      1  0.5759170000000  0.5424510000000  0.4853690000000 1.0
C      1  0.5492280000000  0.5727660000000  0.4526690000000 1.0
C      1  0.4965880000000  0.5261360000000  0.4218210000000 1.0
C      1  0.4525080000000  0.4428850000000  0.5661380000000 1.0
C      1  0.4535970000000  0.4439400000000  0.4473530000000 1.0
C      1  0.5272590000000  0.5658210000000  0.5611060000000 1.0
C      1  0.5641120000000  0.4996680000000  0.4593140000000 1.0
C      1  0.4935410000000  0.6026730000000  0.4928970000000 1.0
C      1  0.6026380000000  0.5232140000000  0.5186770000000 1.0
C      1  0.5525940000000  0.4288450000000  0.5247000000000 1.0
C      1  0.5368410000000  0.5069190000000  0.4388600000000 1.0
C      1  0.4207620000000  0.4761590000000  0.5495940000000 1.0
C      1  0.5738840000000  0.4252870000000  0.5059650000000 1.0
C      1  0.5288150000000  0.4346390000000  0.4784570000000 1.0
C      1  0.4292540000000  0.5018210000000  0.5398390000000 1.0
C      1  0.4685110000000  0.5916680000000  0.4867820000000 1.0
C      1  0.5554140000000  0.5958320000000  0.4952500000000 1.0
C      1  0.4671120000000  0.5293700000000  0.5662950000000 1.0
C      1  0.4682390000000  0.4477490000000  0.4914180000000 1.0
C      1  0.5711960000000  0.5630130000000  0.5346380000000 1.0
C      1  0.4668000000000  0.3973610000000  0.5035380000000 1.0
C      1  0.5013150000000  0.5974690000000  0.5208130000000 1.0
C      1  0.5312130000000  0.4676170000000  0.5819380000000 1.0
C      1  0.4814910000000  0.5162840000000  0.5445510000000 1.0
C      1  0.4740290000000  0.4606940000000  0.4658730000000 1.0
C      1  0.5077790000000  0.5205810000000  0.4967700000000 1.0
C      1  0.5292510000000  0.5511280000000  0.5139790000000 1.0
C      1  0.4798240000000  0.4508750000000  0.5173620000000 1.0
C      1  0.5726430000000  0.4725100000000  0.4487220000000 1.0
C      1  0.5442820000000  0.5267000000000  0.4161120000000 1.0
C      1  0.5398010000000  0.5283580000000  0.5223640000000 1.0
C      1  0.5449610000000  0.4320340000000  0.4344180000000 1.0
C      1  0.4709350000000  0.4103100000000  0.5306920000000 1.0
C      1  0.4663520000000  0.4899840000000  0.4751230000000 1.0
C      1  0.4616540000000  0.5700000000000  0.5370950000000 1.0
C      1  0.4734800000000  0.5382470000000  0.4716230000000 1.0
C      1  0.4779040000000  0.4774200000000  0.5276180000000 1.0
C      1  0.4836570000000  0.4795490000000  0.5848900000000 1.0
C      1  0.5533440000000  0.4598640000000  0.5903320000000 1.0
C      1  0.4928920000000  0.4296220000000  0.5337660000000 1.0
C      1  0.5263550000000  0.5242580000000  0.5845370000000 1.0
C      1  0.4393970000000  0.5665700000000  0.4573210000000 1.0
C      1  0.5523190000000  0.5296990000000  0.5725600000000 1.0
C      1  0.4607950000000  0.5557910000000  0.5615640000000 1.0
C      1  0.5114890000000  0.5486950000000  0.5788260000000 1.0
C      1  0.4200600000000  0.5450340000000  0.5118640000000 1.0
C      1  0.4177290000000  0.4582590000000  0.5261890000000 1.0
C      1  0.4595360000000  0.4909000000000  0.5746350000000 1.0
C      1  0.5862050000000  0.4602840000000  0.4712870000000 1.0
C      1  0.4987580000000  0.4629410000000  0.4486320000000 1.0
C      1  0.4417550000000  0.4353990000000  0.4894000000000 1.0
C      1  0.4319780000000  0.4348790000000  0.5200230000000 1.0
C      1  0.5687070000000  0.5095620000000  0.5582320000000 1.0
C      1  0.5899370000000  0.5162420000000  0.5421930000000 1.0
C      1  0.4454050000000  0.5789880000000  0.4839930000000 1.0
C      1  0.5187310000000  0.4213050000000  0.4366740000000 1.0
C      1  0.5232850000000  0.5458490000000  0.4835210000000 1.0
C      1  0.5668850000000  0.4850280000000  0.5076270000000 1.0
C      1  0.4833630000000  0.5118830000000  0.4642190000000 1.0
C      1  0.5281970000000  0.4740230000000  0.4840820000000 1.0
C      1  0.5511340000000  0.5508150000000  0.4721520000000 1.0
C      1  0.4399810000000  0.4818760000000  0.4367160000000 1.0
C      1  0.5520350000000  0.5018480000000  0.5320210000000 1.0
C      1  0.4683390000000  0.5424160000000  0.4998840000000 1.0
C      1  0.5668950000000  0.5900650000000  0.5210160000000 1.0
C      1  0.4216980000000  0.5453510000000  0.4449810000000 1.0
C      1  0.5514660000000  0.4613290000000  0.4321500000000 1.0
C      1  0.4453200000000  0.5323440000000  0.4328340000000 1.0
C      1  0.4781660000000  0.4514320000000  0.5765430000000 1.0
C      1  0.4419250000000  0.4878900000000  0.4883060000000 1.0
END
