TITL C-883729-9652-218 0.601695442556308 125000 -13016.8275833691 0 0 88 (C1) n - 1
REM
REM in /home/nfs/bkarasulu/CARBON/AIRSS/Generating-Clusters/ReaxFF-fromJPCA2015/Units_Real/with-SteepDescent/Only-C1/SD-CG/Try1-3A/FIRE-CG
REM
REM
REM
REM
REM
REM ./C.cell (11c1c37f851c82e70ff6c80c92926a4b)
REM
REM compiler GCC version 9.2.1 20190827 (Red Hat 9.2.1-1)
REM options -cpp -mtune=generic -march=x86-64 -g -O0 -fpre-include=/usr/include/finclude/math-vector-fortran.h
REM seed -1293170441 287976862 -1554119625 1051187535 -1572190736 604692098 520190842 2076507666 -311107031 -2009826966 1062120168 -62527559 -604850118 -2037140536 -1343852621 1197518345 -1427504100 1615813680 1342174094 949392700 1114978166 24192357 1344667574 -1131145116 24304683 -1864323878 -850945093 1258217239 -781248982 223184916 -539885203 -1720893047 -59301375
REM
CELL 1.54180   50.00000   50.00000   50.00000   90.00000   90.00000   90.00000
LATT -1
SFAC C  
C      1  0.4353250000000  0.4560010000000  0.5031840000000 1.0
C      1  0.4624810000000  0.5093300000000  0.5256940000000 1.0
C      1  0.4938850000000  0.4687310000000  0.5154520000000 1.0
C      1  0.5410420000000  0.5686110000000  0.4526600000000 1.0
C      1  0.5382700000000  0.4515320000000  0.4439820000000 1.0
C      1  0.4355710000000  0.5259890000000  0.4632220000000 1.0
C      1  0.5322230000000  0.5184420000000  0.5522370000000 1.0
C      1  0.5212580000000  0.5658930000000  0.4331980000000 1.0
C      1  0.4573020000000  0.5014200000000  0.4992070000000 1.0
C      1  0.5094740000000  0.5433540000000  0.4731540000000 1.0
C      1  0.5011450000000  0.5644220000000  0.4910560000000 1.0
C      1  0.5868840000000  0.4912880000000  0.5028940000000 1.0
C      1  0.5642260000000  0.4540980000000  0.4532160000000 1.0
C      1  0.4562450000000  0.4747480000000  0.4902690000000 1.0
C      1  0.4901780000000  0.4974240000000  0.4195060000000 1.0
C      1  0.4498520000000  0.4304810000000  0.5155970000000 1.0
C      1  0.4899540000000  0.5414580000000  0.4515710000000 1.0
C      1  0.4169680000000  0.4737320000000  0.5221350000000 1.0
C      1  0.5259950000000  0.4715540000000  0.4816830000000 1.0
C      1  0.5333290000000  0.4937830000000  0.4638350000000 1.0
C      1  0.5275280000000  0.5188370000000  0.4796910000000 1.0
C      1  0.5189220000000  0.4407820000000  0.4664250000000 1.0
C      1  0.4872520000000  0.4414710000000  0.5116560000000 1.0
C      1  0.5290000000000  0.4273150000000  0.4917360000000 1.0
C      1  0.5612620000000  0.4524250000000  0.5168550000000 1.0
C      1  0.5221260000000  0.4758910000000  0.5746610000000 1.0
C      1  0.5438640000000  0.5152620000000  0.5058490000000 1.0
C      1  0.4495570000000  0.5603420000000  0.5001250000000 1.0
C      1  0.5045690000000  0.5252570000000  0.5479930000000 1.0
C      1  0.5468860000000  0.5628280000000  0.5423630000000 1.0
C      1  0.5098690000000  0.5005090000000  0.5827130000000 1.0
C      1  0.4894720000000  0.4461500000000  0.4605370000000 1.0
C      1  0.5737520000000  0.5186110000000  0.5397740000000 1.0
C      1  0.4598180000000  0.4377380000000  0.5421140000000 1.0
C      1  0.5654160000000  0.5492870000000  0.4947780000000 1.0
C      1  0.4489900000000  0.5097080000000  0.5638300000000 1.0
C      1  0.5770290000000  0.4452400000000  0.4766290000000 1.0
C      1  0.4898540000000  0.5157810000000  0.5250060000000 1.0
C      1  0.5197190000000  0.5728380000000  0.5124050000000 1.0
C      1  0.4112590000000  0.4851100000000  0.4775600000000 1.0
C      1  0.4320500000000  0.4772970000000  0.5443880000000 1.0
C      1  0.5092860000000  0.4261660000000  0.5143440000000 1.0
C      1  0.5177950000000  0.4887070000000  0.4159630000000 1.0
C      1  0.5198800000000  0.4707620000000  0.5275250000000 1.0
C      1  0.5808240000000  0.4734370000000  0.5248840000000 1.0
C      1  0.4959770000000  0.5237700000000  0.5866240000000 1.0
C      1  0.4719080000000  0.5748210000000  0.4872430000000 1.0
C      1  0.5363600000000  0.4807050000000  0.4381070000000 1.0
C      1  0.4211720000000  0.4573620000000  0.4760290000000 1.0
C      1  0.5305330000000  0.5378350000000  0.4264090000000 1.0
C      1  0.4511470000000  0.4795330000000  0.5630840000000 1.0
C      1  0.5159270000000  0.4436820000000  0.5385940000000 1.0
C      1  0.5390020000000  0.4684120000000  0.5073880000000 1.0
C      1  0.4412940000000  0.5265840000000  0.5345550000000 1.0
C      1  0.5840380000000  0.4723990000000  0.4829950000000 1.0
C      1  0.4784600000000  0.4728240000000  0.4701490000000 1.0
C      1  0.4316870000000  0.5391830000000  0.4891740000000 1.0
C      1  0.4708660000000  0.4921580000000  0.4423440000000 1.0
C      1  0.5023130000000  0.4556940000000  0.5609570000000 1.0
C      1  0.4730000000000  0.4570520000000  0.5601070000000 1.0
C      1  0.4717780000000  0.4252450000000  0.4964360000000 1.0
C      1  0.4984790000000  0.5537040000000  0.5588150000000 1.0
C      1  0.4770290000000  0.5598100000000  0.5423850000000 1.0
C      1  0.4220940000000  0.5225390000000  0.5113180000000 1.0
C      1  0.4644950000000  0.5228880000000  0.4539990000000 1.0
C      1  0.5735670000000  0.5211870000000  0.5094850000000 1.0
C      1  0.4445340000000  0.4788180000000  0.4445500000000 1.0
C      1  0.5555670000000  0.5366570000000  0.5530350000000 1.0
C      1  0.4650110000000  0.4342630000000  0.4679010000000 1.0
C      1  0.4261960000000  0.4992640000000  0.4567830000000 1.0
C      1  0.4534930000000  0.5556750000000  0.5288770000000 1.0
C      1  0.5491560000000  0.5655610000000  0.5127390000000 1.0
C      1  0.5548290000000  0.5314460000000  0.4423370000000 1.0
C      1  0.4982960000000  0.5113860000000  0.4965640000000 1.0
C      1  0.5330870000000  0.5019160000000  0.5290450000000 1.0
C      1  0.4773460000000  0.5795130000000  0.4599660000000 1.0
C      1  0.5710060000000  0.4901340000000  0.5484160000000 1.0
C      1  0.4426890000000  0.4519480000000  0.4569750000000 1.0
C      1  0.4914030000000  0.5680690000000  0.4382870000000 1.0
C      1  0.5479270000000  0.4814690000000  0.5632560000000 1.0
C      1  0.5116040000000  0.5166560000000  0.4136700000000 1.0
C      1  0.4718410000000  0.5182020000000  0.5763980000000 1.0
C      1  0.4986840000000  0.4817750000000  0.4902410000000 1.0
C      1  0.4732420000000  0.5186900000000  0.4824610000000 1.0
C      1  0.5178180000000  0.5698320000000  0.5417730000000 1.0
C      1  0.5571120000000  0.4321750000000  0.4963880000000 1.0
C      1  0.5599400000000  0.5522960000000  0.4657340000000 1.0
C      1  0.4105090000000  0.4968240000000  0.5048500000000 1.0
END
