TITL C-884134-5972-469 39.3491216968273 125000 -25572.5511676477 0 0 171 (C1) n - 1
REM
REM in /home/nfs/bkarasulu/CARBON/AIRSS/Generating-Clusters/ReaxFF-fromJPCA2015/Units_Real/with-SteepDescent/Only-C1/SD-CG/Try1-3A/FIRE-CG
REM
REM
REM
REM
REM
REM ./C.cell (11c1c37f851c82e70ff6c80c92926a4b)
REM
REM compiler GCC version 9.2.1 20190827 (Red Hat 9.2.1-1)
REM options -cpp -mtune=generic -march=x86-64 -g -O0 -fpre-include=/usr/include/finclude/math-vector-fortran.h
REM seed -681008483 1123412188 289738263 303079985 -2013225364 1739712893 1999124194 -1826846712 -61997171 1077220147 1505391713 -1545036586 290966173 1417517789 2140155459 1904021181 255937082 -1380339353 702375397 -902163072 1435726906 169410658 -1773354988 796842714 -1576033422 619630065 926779067 -1806325267 959963899 -1973688603 -1963011392 266104167 -489736341
REM
CELL 1.54180   50.00000   50.00000   50.00000   90.00000   90.00000   90.00000
LATT -1
SFAC C  
C      1  0.5255250000000  0.4472320000000  0.5309100000000 1.0
C      1  0.4108870000000  0.4465500000000  0.5371660000000 1.0
C      1  0.4218750000000  0.5178040000000  0.5738780000000 1.0
C      1  0.5356620000000  0.4969560000000  0.5705350000000 1.0
C      1  0.5555130000000  0.4478310000000  0.4633070000000 1.0
C      1  0.5733590000000  0.5402960000000  0.4695440000000 1.0
C      1  0.5167170000000  0.3944500000000  0.4589020000000 1.0
C      1  0.4863810000000  0.4742890000000  0.5423460000000 1.0
C      1  0.5075470000000  0.5467080000000  0.5004950000000 1.0
C      1  0.4457220000000  0.4637610000000  0.5133730000000 1.0
C      1  0.4064830000000  0.5314640000000  0.4416790000000 1.0
C      1  0.6061800000000  0.4941130000000  0.5258280000000 1.0
C      1  0.5164830000000  0.4701160000000  0.4175710000000 1.0
C      1  0.4515210000000  0.5160070000000  0.4644020000000 1.0
C      1  0.5213530000000  0.5981640000000  0.4404490000000 1.0
C      1  0.4439060000000  0.4796440000000  0.4146300000000 1.0
C      1  0.5404030000000  0.4502540000000  0.4179480000000 1.0
C      1  0.4906960000000  0.4909560000000  0.5661320000000 1.0
C      1  0.4157340000000  0.4634180000000  0.4666480000000 1.0
C      1  0.4985620000000  0.5203850000000  0.6097840000000 1.0
C      1  0.4175650000000  0.4888490000000  0.4227590000000 1.0
C      1  0.4713140000000  0.5075990000000  0.5121080000000 1.0
C      1  0.4364560000000  0.5885580000000  0.4487290000000 1.0
C      1  0.4961400000000  0.5183150000000  0.5592570000000 1.0
C      1  0.4531030000000  0.5622070000000  0.4799340000000 1.0
C      1  0.5077670000000  0.5578670000000  0.4180490000000 1.0
C      1  0.5773810000000  0.5171410000000  0.5823590000000 1.0
C      1  0.5931190000000  0.5289630000000  0.4961350000000 1.0
C      1  0.6029190000000  0.5111110000000  0.4534750000000 1.0
C      1  0.4931490000000  0.4607590000000  0.4013960000000 1.0
C      1  0.5827140000000  0.4600370000000  0.4460270000000 1.0
C      1  0.4385320000000  0.6014590000000  0.5008740000000 1.0
C      1  0.4883370000000  0.4214230000000  0.4321140000000 1.0
C      1  0.4752380000000  0.4429460000000  0.4162550000000 1.0
C      1  0.4927620000000  0.4010230000000  0.4749380000000 1.0
C      1  0.4166070000000  0.5108350000000  0.4611370000000 1.0
C      1  0.4905210000000  0.4265650000000  0.4608200000000 1.0
C      1  0.5165000000000  0.5382800000000  0.5661650000000 1.0
C      1  0.4730360000000  0.4936900000000  0.4533110000000 1.0
C      1  0.5327600000000  0.5883920000000  0.5708480000000 1.0
C      1  0.5110790000000  0.4714510000000  0.5268680000000 1.0
C      1  0.4368350000000  0.5257390000000  0.4024000000000 1.0
C      1  0.5234710000000  0.4771960000000  0.5890460000000 1.0
C      1  0.5087920000000  0.5959690000000  0.5152330000000 1.0
C      1  0.5567250000000  0.4538780000000  0.4955140000000 1.0
C      1  0.4732280000000  0.5343810000000  0.5973910000000 1.0
C      1  0.5919860000000  0.4865880000000  0.4481710000000 1.0
C      1  0.4362200000000  0.4487650000000  0.5758260000000 1.0
C      1  0.4814360000000  0.6047710000000  0.4732120000000 1.0
C      1  0.4828500000000  0.4720410000000  0.4700290000000 1.0
C      1  0.4522530000000  0.5953790000000  0.4741010000000 1.0
C      1  0.4966420000000  0.4923700000000  0.4375130000000 1.0
C      1  0.5042470000000  0.5887520000000  0.5800680000000 1.0
C      1  0.4418290000000  0.4658940000000  0.4844730000000 1.0
C      1  0.4650800000000  0.4510160000000  0.5925430000000 1.0
C      1  0.5379270000000  0.5401940000000  0.5475600000000 1.0
C      1  0.5661430000000  0.4631150000000  0.4177250000000 1.0
C      1  0.5656200000000  0.4691920000000  0.5630870000000 1.0
C      1  0.4757830000000  0.5840790000000  0.5713950000000 1.0
C      1  0.4104010000000  0.4857880000000  0.4502170000000 1.0
C      1  0.4145230000000  0.5860220000000  0.4954970000000 1.0
C      1  0.5299910000000  0.4630980000000  0.4599780000000 1.0
C      1  0.4389940000000  0.4241480000000  0.4729320000000 1.0
C      1  0.5394970000000  0.4895510000000  0.4680920000000 1.0
C      1  0.4611530000000  0.6046230000000  0.5188750000000 1.0
C      1  0.5836050000000  0.5090710000000  0.5165140000000 1.0
C      1  0.5414890000000  0.4004690000000  0.4726320000000 1.0
C      1  0.4576280000000  0.5038120000000  0.4026570000000 1.0
C      1  0.4284610000000  0.5508360000000  0.5249240000000 1.0
C      1  0.5094480000000  0.5171740000000  0.4427100000000 1.0
C      1  0.5804810000000  0.4299320000000  0.5292960000000 1.0
C      1  0.6124260000000  0.5104900000000  0.4829140000000 1.0
C      1  0.4672850000000  0.4512520000000  0.4822800000000 1.0
C      1  0.5303010000000  0.5745320000000  0.4251740000000 1.0
C      1  0.6075330000000  0.4584520000000  0.4907470000000 1.0
C      1  0.6093470000000  0.4509820000000  0.4629470000000 1.0
C      1  0.5434600000000  0.4846830000000  0.4965590000000 1.0
C      1  0.5549020000000  0.5837900000000  0.5520520000000 1.0
C      1  0.5078720000000  0.5319540000000  0.4038980000000 1.0
C      1  0.5444160000000  0.5832920000000  0.4503630000000 1.0
C      1  0.5349840000000  0.5420740000000  0.4979300000000 1.0
C      1  0.5418620000000  0.4064460000000  0.5506920000000 1.0
C      1  0.4507400000000  0.4541630000000  0.4270810000000 1.0
C      1  0.5391190000000  0.4366610000000  0.5584530000000 1.0
C      1  0.6169500000000  0.4873660000000  0.4992680000000 1.0
C      1  0.5282340000000  0.5203950000000  0.6098470000000 1.0
C      1  0.4541910000000  0.5488970000000  0.5065410000000 1.0
C      1  0.5372950000000  0.5271280000000  0.5211880000000 1.0
C      1  0.4011720000000  0.4625300000000  0.4938770000000 1.0
C      1  0.5387190000000  0.4232170000000  0.4288970000000 1.0
C      1  0.4803550000000  0.4454360000000  0.5376600000000 1.0
C      1  0.3969930000000  0.4853410000000  0.5122740000000 1.0
C      1  0.4882230000000  0.3976460000000  0.5471860000000 1.0
C      1  0.5850900000000  0.5414650000000  0.5671300000000 1.0
C      1  0.5684590000000  0.4414370000000  0.5529300000000 1.0
C      1  0.5147630000000  0.4861840000000  0.5035120000000 1.0
C      1  0.5841570000000  0.4471020000000  0.5056640000000 1.0
C      1  0.5540150000000  0.5023730000000  0.5229640000000 1.0
C      1  0.5502830000000  0.4877900000000  0.5477160000000 1.0
C      1  0.4704810000000  0.4783190000000  0.5821170000000 1.0
C      1  0.4093060000000  0.4775230000000  0.5406540000000 1.0
C      1  0.5157650000000  0.3903270000000  0.5150710000000 1.0
C      1  0.4124140000000  0.4666040000000  0.5858900000000 1.0
C      1  0.5590160000000  0.5172740000000  0.4252870000000 1.0
C      1  0.5176450000000  0.3914630000000  0.5435540000000 1.0
C      1  0.5985860000000  0.5534160000000  0.5163870000000 1.0
C      1  0.4876060000000  0.5644980000000  0.4395000000000 1.0
C      1  0.4559250000000  0.5316140000000  0.5559120000000 1.0
C      1  0.5353100000000  0.4356920000000  0.5069710000000 1.0
C      1  0.4933520000000  0.4873080000000  0.3868460000000 1.0
C      1  0.5373930000000  0.5140050000000  0.4526470000000 1.0
C      1  0.5219470000000  0.4908990000000  0.3957810000000 1.0
C      1  0.5403970000000  0.4054390000000  0.5033770000000 1.0
C      1  0.5712510000000  0.5695800000000  0.4799790000000 1.0
C      1  0.4689490000000  0.3992530000000  0.5250700000000 1.0
C      1  0.4525110000000  0.5215660000000  0.4934270000000 1.0
C      1  0.5806720000000  0.5278610000000  0.4428970000000 1.0
C      1  0.5130070000000  0.4951790000000  0.6106480000000 1.0
C      1  0.4791050000000  0.5282610000000  0.5382410000000 1.0
C      1  0.6104950000000  0.4880520000000  0.5560630000000 1.0
C      1  0.4525830000000  0.5456930000000  0.4583800000000 1.0
C      1  0.4467600000000  0.4755310000000  0.5667470000000 1.0
C      1  0.3947460000000  0.5114890000000  0.5044940000000 1.0
C      1  0.4688850000000  0.5884450000000  0.5422160000000 1.0
C      1  0.4076810000000  0.4910520000000  0.5714390000000 1.0
C      1  0.5319440000000  0.5167000000000  0.4039000000000 1.0
C      1  0.4954340000000  0.5918010000000  0.4519460000000 1.0
C      1  0.5195390000000  0.5642300000000  0.5810300000000 1.0
C      1  0.5431740000000  0.5770230000000  0.4794710000000 1.0
C      1  0.6040850000000  0.5462630000000  0.5441760000000 1.0
C      1  0.4076450000000  0.4388820000000  0.5089140000000 1.0
C      1  0.5425590000000  0.4577060000000  0.5810840000000 1.0
C      1  0.4847460000000  0.4301780000000  0.5881760000000 1.0
C      1  0.4282540000000  0.5342870000000  0.5487050000000 1.0
C      1  0.4892150000000  0.3948050000000  0.5037630000000 1.0
C      1  0.5461020000000  0.5297100000000  0.4747230000000 1.0
C      1  0.5881500000000  0.4913180000000  0.5738300000000 1.0
C      1  0.4681620000000  0.4449060000000  0.5114500000000 1.0
C      1  0.4946220000000  0.5034160000000  0.4942640000000 1.0
C      1  0.4429370000000  0.4140620000000  0.5269100000000 1.0
C      1  0.4851390000000  0.4252410000000  0.5574180000000 1.0
C      1  0.5528800000000  0.4193010000000  0.4544700000000 1.0
C      1  0.4960010000000  0.5290960000000  0.4805240000000 1.0
C      1  0.5039280000000  0.4524340000000  0.4665590000000 1.0
C      1  0.3925990000000  0.5373950000000  0.4949540000000 1.0
C      1  0.5360210000000  0.5918740000000  0.5049480000000 1.0
C      1  0.5580880000000  0.5874480000000  0.5228830000000 1.0
C      1  0.3927830000000  0.5290120000000  0.4666210000000 1.0
C      1  0.4291490000000  0.4203340000000  0.5012480000000 1.0
C      1  0.4744790000000  0.5587110000000  0.5846690000000 1.0
C      1  0.4867650000000  0.5515650000000  0.5209880000000 1.0
C      1  0.4588170000000  0.4848400000000  0.5271030000000 1.0
C      1  0.4312700000000  0.4308560000000  0.5483760000000 1.0
C      1  0.5610430000000  0.5557330000000  0.5583930000000 1.0
C      1  0.4071960000000  0.5607890000000  0.5086760000000 1.0
C      1  0.4944400000000  0.5777220000000  0.5339680000000 1.0
C      1  0.4842460000000  0.5131270000000  0.3958570000000 1.0
C      1  0.5609180000000  0.4078650000000  0.5293590000000 1.0
C      1  0.4129480000000  0.5171300000000  0.4175780000000 1.0
C      1  0.4124430000000  0.5867410000000  0.4645890000000 1.0
C      1  0.5142240000000  0.4077590000000  0.4325670000000 1.0
C      1  0.4857030000000  0.6077560000000  0.5018510000000 1.0
C      1  0.5487610000000  0.5157900000000  0.5893140000000 1.0
C      1  0.4502710000000  0.5205910000000  0.5822730000000 1.0
C      1  0.4528070000000  0.5658800000000  0.4333530000000 1.0
C      1  0.4943830000000  0.5386060000000  0.4537270000000 1.0
C      1  0.4439060000000  0.5539310000000  0.4072800000000 1.0
C      1  0.5652170000000  0.4913150000000  0.4100550000000 1.0
C      1  0.5797410000000  0.5739800000000  0.5073480000000 1.0
C      1  0.4370530000000  0.4884760000000  0.5439660000000 1.0
C      1  0.4350320000000  0.4422840000000  0.4507070000000 1.0
END
