TITL C-883736-9678-319 191.612183034844 125000 -28080.1795902748 0 0 191 (C1) n - 1
REM
REM in /home/nfs/bkarasulu/CARBON/AIRSS/Generating-Clusters/ReaxFF-fromJPCA2015/Units_Real/with-SteepDescent/Only-C1/SD-CG/Try1-3A/FIRE-CG
REM
REM
REM
REM
REM
REM ./C.cell (11c1c37f851c82e70ff6c80c92926a4b)
REM
REM compiler GCC version 9.2.1 20190827 (Red Hat 9.2.1-1)
REM options -cpp -mtune=generic -march=x86-64 -g -O0 -fpre-include=/usr/include/finclude/math-vector-fortran.h
REM seed -1985210765 -537414236 -1748021038 -975205875 -1898155888 -1195481549 1323226524 1243632896 467794259 -1705253492 100094131 -213723414 1567321210 -1492158571 -578616740 -375309462 11767988 -49018418 1845271793 655673861 1928798627 -1410437713 -777717978 724540287 871806190 -631464696 -1262696595 683684855 1448281176 -897633315 1647925562 261265953 -994814596
REM
CELL 1.54180   50.00000   50.00000   50.00000   90.00000   90.00000   90.00000
LATT -1
SFAC C  
C      1  0.4804680000000  0.3943190000000  0.5194650000000 1.0
C      1  0.5362620000000  0.5590640000000  0.4908190000000 1.0
C      1  0.5791250000000  0.5460920000000  0.5183900000000 1.0
C      1  0.3947420000000  0.5345730000000  0.5028210000000 1.0
C      1  0.5261500000000  0.4987480000000  0.5055910000000 1.0
C      1  0.5926590000000  0.4339880000000  0.4784230000000 1.0
C      1  0.5387320000000  0.4974270000000  0.3944210000000 1.0
C      1  0.5097380000000  0.4025630000000  0.5285160000000 1.0
C      1  0.4683530000000  0.5215800000000  0.4140490000000 1.0
C      1  0.5188890000000  0.4942920000000  0.6118680000000 1.0
C      1  0.4608760000000  0.5557420000000  0.5623920000000 1.0
C      1  0.5953740000000  0.4586050000000  0.4627930000000 1.0
C      1  0.5422220000000  0.4497700000000  0.5067010000000 1.0
C      1  0.5538380000000  0.5500150000000  0.5345280000000 1.0
C      1  0.5362870000000  0.4999890000000  0.4457740000000 1.0
C      1  0.4617100000000  0.4729110000000  0.3954090000000 1.0
C      1  0.5534790000000  0.4074890000000  0.5662650000000 1.0
C      1  0.5408420000000  0.5273550000000  0.4522040000000 1.0
C      1  0.5654110000000  0.4353500000000  0.5164630000000 1.0
C      1  0.4119660000000  0.4972730000000  0.4426480000000 1.0
C      1  0.5084480000000  0.5893500000000  0.4715740000000 1.0
C      1  0.5234400000000  0.4450570000000  0.4087120000000 1.0
C      1  0.4926670000000  0.5901760000000  0.5728190000000 1.0
C      1  0.4864620000000  0.3850270000000  0.4934930000000 1.0
C      1  0.4122460000000  0.5095280000000  0.5399840000000 1.0
C      1  0.5682920000000  0.5040130000000  0.5086710000000 1.0
C      1  0.4725630000000  0.4675250000000  0.5617810000000 1.0
C      1  0.4845550000000  0.4231080000000  0.5667820000000 1.0
C      1  0.4581300000000  0.4638680000000  0.5882850000000 1.0
C      1  0.4998280000000  0.5599200000000  0.5304850000000 1.0
C      1  0.3922020000000  0.4812990000000  0.5099360000000 1.0
C      1  0.5501990000000  0.4792770000000  0.4683890000000 1.0
C      1  0.4543920000000  0.4302250000000  0.4393110000000 1.0
C      1  0.4331490000000  0.4560570000000  0.5201490000000 1.0
C      1  0.4158040000000  0.4722910000000  0.4248010000000 1.0
C      1  0.5036080000000  0.4801430000000  0.4057860000000 1.0
C      1  0.3926050000000  0.5092430000000  0.5183430000000 1.0
C      1  0.4512780000000  0.5667250000000  0.5344740000000 1.0
C      1  0.6033140000000  0.5046520000000  0.5380490000000 1.0
C      1  0.5503840000000  0.5777860000000  0.4746210000000 1.0
C      1  0.5663720000000  0.5801640000000  0.4373930000000 1.0
C      1  0.5933850000000  0.5559020000000  0.4717030000000 1.0
C      1  0.4331250000000  0.5226700000000  0.4907330000000 1.0
C      1  0.4499280000000  0.5189550000000  0.5967140000000 1.0
C      1  0.4843930000000  0.4921880000000  0.3896590000000 1.0
C      1  0.5456260000000  0.5028910000000  0.5263260000000 1.0
C      1  0.5937100000000  0.5175570000000  0.5144820000000 1.0
C      1  0.4135010000000  0.5566090000000  0.5104250000000 1.0
C      1  0.4273770000000  0.4241760000000  0.4290700000000 1.0
C      1  0.4565250000000  0.5947370000000  0.5242430000000 1.0
C      1  0.5708010000000  0.4659530000000  0.4565400000000 1.0
C      1  0.5699650000000  0.4277150000000  0.5788700000000 1.0
C      1  0.5569590000000  0.4102670000000  0.5033460000000 1.0
C      1  0.5660020000000  0.5864040000000  0.5113280000000 1.0
C      1  0.5440380000000  0.5251860000000  0.5776250000000 1.0
C      1  0.5171940000000  0.4524630000000  0.4585920000000 1.0
C      1  0.5257440000000  0.3996760000000  0.5564170000000 1.0
C      1  0.4269900000000  0.5512470000000  0.4368430000000 1.0
C      1  0.5701690000000  0.4734330000000  0.4161380000000 1.0
C      1  0.5097890000000  0.4535140000000  0.6110150000000 1.0
C      1  0.4563690000000  0.5923020000000  0.4175090000000 1.0
C      1  0.5851710000000  0.5667240000000  0.5002730000000 1.0
C      1  0.4320990000000  0.4882660000000  0.4633580000000 1.0
C      1  0.5648420000000  0.4909400000000  0.4861560000000 1.0
C      1  0.5922280000000  0.4382770000000  0.5067940000000 1.0
C      1  0.5137710000000  0.4209730000000  0.5715300000000 1.0
C      1  0.5615720000000  0.5615800000000  0.5616520000000 1.0
C      1  0.5228320000000  0.5219520000000  0.3980640000000 1.0
C      1  0.5229090000000  0.4461320000000  0.5287250000000 1.0
C      1  0.4904530000000  0.4656600000000  0.4971060000000 1.0
C      1  0.5321250000000  0.4829710000000  0.5591340000000 1.0
C      1  0.4061110000000  0.5234400000000  0.4781890000000 1.0
C      1  0.5261810000000  0.4710770000000  0.3945670000000 1.0
C      1  0.5405750000000  0.5990910000000  0.5178720000000 1.0
C      1  0.4706550000000  0.5188920000000  0.4430220000000 1.0
C      1  0.4709620000000  0.4821830000000  0.4866910000000 1.0
C      1  0.6052490000000  0.4879550000000  0.4659460000000 1.0
C      1  0.4818210000000  0.6086280000000  0.5282820000000 1.0
C      1  0.4982660000000  0.4315240000000  0.5216920000000 1.0
C      1  0.4764640000000  0.4427680000000  0.5452250000000 1.0
C      1  0.4408300000000  0.4914190000000  0.5912120000000 1.0
C      1  0.5389120000000  0.4091040000000  0.4392080000000 1.0
C      1  0.4981140000000  0.4312980000000  0.4661580000000 1.0
C      1  0.4937410000000  0.5581780000000  0.4392650000000 1.0
C      1  0.5778920000000  0.4860200000000  0.5830670000000 1.0
C      1  0.4680680000000  0.6066750000000  0.4805820000000 1.0
C      1  0.4549770000000  0.4087400000000  0.5174370000000 1.0
C      1  0.4180680000000  0.5429950000000  0.5642060000000 1.0
C      1  0.5013610000000  0.4779120000000  0.4496040000000 1.0
C      1  0.4396560000000  0.5116130000000  0.4090690000000 1.0
C      1  0.4622050000000  0.3913510000000  0.4769430000000 1.0
C      1  0.4642880000000  0.5412720000000  0.4625940000000 1.0
C      1  0.5581530000000  0.3979830000000  0.4576640000000 1.0
C      1  0.4424560000000  0.4091030000000  0.4918550000000 1.0
C      1  0.4812610000000  0.5095410000000  0.4870310000000 1.0
C      1  0.4231310000000  0.5569810000000  0.5372840000000 1.0
C      1  0.5354820000000  0.5456550000000  0.4089320000000 1.0
C      1  0.4712850000000  0.6040460000000  0.4535120000000 1.0
C      1  0.5685000000000  0.4511590000000  0.4322300000000 1.0
C      1  0.4857590000000  0.4193860000000  0.4412040000000 1.0
C      1  0.4891130000000  0.5165020000000  0.5664880000000 1.0
C      1  0.4598600000000  0.4985130000000  0.5265010000000 1.0
C      1  0.4301670000000  0.5700410000000  0.4885040000000 1.0
C      1  0.4167060000000  0.4899290000000  0.5767370000000 1.0
C      1  0.4511650000000  0.4446130000000  0.4643080000000 1.0
C      1  0.4903430000000  0.5625150000000  0.5626170000000 1.0
C      1  0.4222410000000  0.5241370000000  0.4274980000000 1.0
C      1  0.6084490000000  0.5085740000000  0.4861210000000 1.0
C      1  0.4893940000000  0.4875340000000  0.5729150000000 1.0
C      1  0.4900080000000  0.4371260000000  0.4934800000000 1.0
C      1  0.5678770000000  0.4973160000000  0.4028200000000 1.0
C      1  0.5182820000000  0.5693190000000  0.4066070000000 1.0
C      1  0.4819630000000  0.6013470000000  0.4283300000000 1.0
C      1  0.4832010000000  0.4564100000000  0.6061270000000 1.0
C      1  0.5303300000000  0.5986250000000  0.5461560000000 1.0
C      1  0.5371080000000  0.4565180000000  0.6074650000000 1.0
C      1  0.4070220000000  0.4643560000000  0.5297610000000 1.0
C      1  0.4968580000000  0.4342420000000  0.4133660000000 1.0
C      1  0.4951640000000  0.5395830000000  0.5859290000000 1.0
C      1  0.4265090000000  0.4409020000000  0.5595850000000 1.0
C      1  0.4390850000000  0.5691690000000  0.4167190000000 1.0
C      1  0.4357470000000  0.4823940000000  0.4066270000000 1.0
C      1  0.5154360000000  0.3881030000000  0.4849760000000 1.0
C      1  0.5347010000000  0.4596700000000  0.4814430000000 1.0
C      1  0.4389340000000  0.5566070000000  0.4635380000000 1.0
C      1  0.4971880000000  0.5601360000000  0.4662580000000 1.0
C      1  0.6087660000000  0.4770520000000  0.5391260000000 1.0
C      1  0.5089720000000  0.5145660000000  0.4898590000000 1.0
C      1  0.5685870000000  0.5121390000000  0.5899050000000 1.0
C      1  0.4109120000000  0.4478970000000  0.4398710000000 1.0
C      1  0.5051160000000  0.4832720000000  0.5149100000000 1.0
C      1  0.4417860000000  0.5109740000000  0.5411530000000 1.0
C      1  0.5102110000000  0.5935730000000  0.4215280000000 1.0
C      1  0.5501670000000  0.5972780000000  0.4528890000000 1.0
C      1  0.4765910000000  0.4901250000000  0.4475070000000 1.0
C      1  0.5167240000000  0.6017310000000  0.4964080000000 1.0
C      1  0.4911520000000  0.6134470000000  0.5009390000000 1.0
C      1  0.5696730000000  0.5404610000000  0.5799950000000 1.0
C      1  0.5061910000000  0.5916100000000  0.6004200000000 1.0
C      1  0.5199230000000  0.5226330000000  0.6191370000000 1.0
C      1  0.5824680000000  0.5591400000000  0.4451560000000 1.0
C      1  0.5997440000000  0.4573150000000  0.5230530000000 1.0
C      1  0.6063760000000  0.5303830000000  0.4671830000000 1.0
C      1  0.5231330000000  0.5421970000000  0.5965660000000 1.0
C      1  0.4711120000000  0.3927470000000  0.4488030000000 1.0
C      1  0.4817140000000  0.5218420000000  0.5281000000000 1.0
C      1  0.5354100000000  0.5230740000000  0.5450500000000 1.0
C      1  0.5213730000000  0.5380200000000  0.4737450000000 1.0
C      1  0.4758600000000  0.5501160000000  0.5172360000000 1.0
C      1  0.5125270000000  0.4945050000000  0.4296490000000 1.0
C      1  0.5912700000000  0.4899010000000  0.5589080000000 1.0
C      1  0.4062950000000  0.4490800000000  0.4694900000000 1.0
C      1  0.4606650000000  0.4121140000000  0.5814570000000 1.0
C      1  0.4641290000000  0.5697450000000  0.4034730000000 1.0
C      1  0.4645710000000  0.5267330000000  0.5533410000000 1.0
C      1  0.5159580000000  0.4721340000000  0.5378840000000 1.0
C      1  0.3931280000000  0.4991290000000  0.4668130000000 1.0
C      1  0.5206070000000  0.6001610000000  0.4473060000000 1.0
C      1  0.5066330000000  0.5200660000000  0.5440450000000 1.0
C      1  0.5311220000000  0.4393860000000  0.5553630000000 1.0
C      1  0.5592920000000  0.5393470000000  0.4306360000000 1.0
C      1  0.4903170000000  0.5575310000000  0.4111170000000 1.0
C      1  0.4916860000000  0.5195570000000  0.3956090000000 1.0
C      1  0.4772560000000  0.4512970000000  0.4041310000000 1.0
C      1  0.5382380000000  0.4386770000000  0.4334700000000 1.0
C      1  0.5421390000000  0.5822140000000  0.5679080000000 1.0
C      1  0.4943040000000  0.5097810000000  0.6221430000000 1.0
C      1  0.5983840000000  0.5089650000000  0.4454850000000 1.0
C      1  0.5284630000000  0.5737650000000  0.5929080000000 1.0
C      1  0.4769570000000  0.5259320000000  0.6060830000000 1.0
C      1  0.4470680000000  0.5924980000000  0.4970530000000 1.0
C      1  0.4431050000000  0.4364230000000  0.5828330000000 1.0
C      1  0.4304620000000  0.4941690000000  0.4905250000000 1.0
C      1  0.4296260000000  0.4342120000000  0.4804800000000 1.0
C      1  0.5297520000000  0.3895150000000  0.4592370000000 1.0
C      1  0.4627740000000  0.5317230000000  0.4894840000000 1.0
C      1  0.5493040000000  0.4597840000000  0.5635890000000 1.0
C      1  0.5268330000000  0.5598800000000  0.5196280000000 1.0
C      1  0.4114650000000  0.4655680000000  0.5590010000000 1.0
C      1  0.5778110000000  0.5148180000000  0.4256400000000 1.0
C      1  0.4486070000000  0.4797480000000  0.5072830000000 1.0
C      1  0.4056080000000  0.5162230000000  0.5671570000000 1.0
C      1  0.5022590000000  0.6054410000000  0.5496600000000 1.0
C      1  0.3935540000000  0.4737120000000  0.4815640000000 1.0
C      1  0.5636700000000  0.4570560000000  0.5896860000000 1.0
C      1  0.4466160000000  0.4345390000000  0.5345000000000 1.0
C      1  0.5157090000000  0.4844640000000  0.5837710000000 1.0
C      1  0.5305920000000  0.3978290000000  0.5067780000000 1.0
C      1  0.5722880000000  0.4130030000000  0.4788050000000 1.0
C      1  0.4564360000000  0.4750440000000  0.4608450000000 1.0
C      1  0.4406300000000  0.5426670000000  0.5815530000000 1.0
END
