TITL C-884133-6611-136 24.4532412771319 125000 -16424.5854724587 0 0 113 (C1) n - 1
REM
REM in /home/nfs/bkarasulu/CARBON/AIRSS/Generating-Clusters/ReaxFF-fromJPCA2015/Units_Real/with-SteepDescent/Only-C1/SD-CG/Try1-3A/FIRE-CG
REM
REM
REM
REM
REM
REM ./C.cell (11c1c37f851c82e70ff6c80c92926a4b)
REM
REM compiler GCC version 9.2.1 20190827 (Red Hat 9.2.1-1)
REM options -cpp -mtune=generic -march=x86-64 -g -O0 -fpre-include=/usr/include/finclude/math-vector-fortran.h
REM seed -1619834361 -820851246 941779222 -685283003 1109520293 915257445 1338524100 487233715 1227038541 -1242572502 -296638655 -1436415137 92422689 -1840519336 122150243 428906904 -1654740496 -1833861791 1856872086 -1349608088 -508373850 -482028789 -1115185912 -1479590766 -719175614 -92784064 -1730213456 -422844121 71022487 2146665430 -692806829 -1734266130 1808899644
REM
CELL 1.54180   50.00000   50.00000   50.00000   90.00000   90.00000   90.00000
LATT -1
SFAC C  
C      1  0.5747330000000  0.5419760000000  0.4924410000000 1.0
C      1  0.5878310000000  0.4541620000000  0.4766600000000 1.0
C      1  0.5280460000000  0.5509670000000  0.4598130000000 1.0
C      1  0.4917890000000  0.5133520000000  0.5807370000000 1.0
C      1  0.5387700000000  0.5312760000000  0.5096250000000 1.0
C      1  0.4709890000000  0.5816280000000  0.4595150000000 1.0
C      1  0.5475870000000  0.5529680000000  0.4912480000000 1.0
C      1  0.4341330000000  0.5706650000000  0.4941080000000 1.0
C      1  0.4597950000000  0.4642210000000  0.4713590000000 1.0
C      1  0.4478640000000  0.4890530000000  0.4614590000000 1.0
C      1  0.4689690000000  0.4395770000000  0.5500930000000 1.0
C      1  0.4621420000000  0.4708680000000  0.5851870000000 1.0
C      1  0.4063110000000  0.4702770000000  0.4945570000000 1.0
C      1  0.5002010000000  0.4751190000000  0.4973030000000 1.0
C      1  0.4794960000000  0.4540960000000  0.4879620000000 1.0
C      1  0.4528440000000  0.5067600000000  0.5014660000000 1.0
C      1  0.5257890000000  0.4601700000000  0.4888950000000 1.0
C      1  0.5332680000000  0.5026380000000  0.4823850000000 1.0
C      1  0.4970060000000  0.5247790000000  0.5265700000000 1.0
C      1  0.5253090000000  0.5126820000000  0.4144630000000 1.0
C      1  0.5483110000000  0.5283660000000  0.5612260000000 1.0
C      1  0.4250320000000  0.4707030000000  0.5482120000000 1.0
C      1  0.5834910000000  0.5261310000000  0.4693360000000 1.0
C      1  0.5635600000000  0.4410810000000  0.5402830000000 1.0
C      1  0.5914140000000  0.4811920000000  0.5277080000000 1.0
C      1  0.5456730000000  0.5029260000000  0.5074050000000 1.0
C      1  0.5650060000000  0.4158790000000  0.4987600000000 1.0
C      1  0.4445640000000  0.4543070000000  0.5137680000000 1.0
C      1  0.4899660000000  0.5502590000000  0.4248260000000 1.0
C      1  0.4716620000000  0.4972430000000  0.4467310000000 1.0
C      1  0.4980410000000  0.4832450000000  0.5273450000000 1.0
C      1  0.4609300000000  0.5634600000000  0.5355210000000 1.0
C      1  0.5862500000000  0.4375610000000  0.4984180000000 1.0
C      1  0.5589220000000  0.4811760000000  0.5670180000000 1.0
C      1  0.4802980000000  0.4996820000000  0.4069550000000 1.0
C      1  0.5923410000000  0.4766950000000  0.4625850000000 1.0
C      1  0.5116350000000  0.4629750000000  0.5893260000000 1.0
C      1  0.4516750000000  0.4819300000000  0.5138180000000 1.0
C      1  0.4892300000000  0.4165720000000  0.4737270000000 1.0
C      1  0.4791650000000  0.5544780000000  0.5530590000000 1.0
C      1  0.4871580000000  0.5519460000000  0.4851820000000 1.0
C      1  0.5249430000000  0.4637320000000  0.4593020000000 1.0
C      1  0.4258920000000  0.5399570000000  0.5325380000000 1.0
C      1  0.4195520000000  0.4975650000000  0.5577880000000 1.0
C      1  0.4267280000000  0.5451510000000  0.4825140000000 1.0
C      1  0.3995130000000  0.5361320000000  0.5202100000000 1.0
C      1  0.4412600000000  0.5447490000000  0.4413040000000 1.0
C      1  0.4362730000000  0.5103590000000  0.4798850000000 1.0
C      1  0.5502560000000  0.4530640000000  0.5632950000000 1.0
C      1  0.4162520000000  0.5305060000000  0.4454570000000 1.0
C      1  0.4289270000000  0.4554210000000  0.4463480000000 1.0
C      1  0.4148390000000  0.4596020000000  0.4697230000000 1.0
C      1  0.5697660000000  0.4726980000000  0.4443220000000 1.0
C      1  0.5957330000000  0.5025490000000  0.4793370000000 1.0
C      1  0.3999480000000  0.5380270000000  0.4903940000000 1.0
C      1  0.4615060000000  0.4319080000000  0.5239420000000 1.0
C      1  0.5199840000000  0.5798470000000  0.4545740000000 1.0
C      1  0.5431320000000  0.4144660000000  0.4804710000000 1.0
C      1  0.4546760000000  0.5868370000000  0.4828810000000 1.0
C      1  0.5215010000000  0.5344290000000  0.5322080000000 1.0
C      1  0.5830800000000  0.5281670000000  0.5171170000000 1.0
C      1  0.4873260000000  0.5053710000000  0.5417010000000 1.0
C      1  0.5704750000000  0.5236090000000  0.4436320000000 1.0
C      1  0.4493780000000  0.4578200000000  0.5617380000000 1.0
C      1  0.4936820000000  0.5783880000000  0.4958490000000 1.0
C      1  0.4662360000000  0.5594360000000  0.4397590000000 1.0
C      1  0.5151680000000  0.5617260000000  0.4330640000000 1.0
C      1  0.5031530000000  0.4414230000000  0.5483270000000 1.0
C      1  0.4960050000000  0.5787650000000  0.5247210000000 1.0
C      1  0.5265020000000  0.4579010000000  0.4186800000000 1.0
C      1  0.5284240000000  0.4321010000000  0.5042170000000 1.0
C      1  0.5054740000000  0.4708770000000  0.5489900000000 1.0
C      1  0.4659670000000  0.5011700000000  0.5870950000000 1.0
C      1  0.4964120000000  0.5229040000000  0.4122050000000 1.0
C      1  0.5126260000000  0.4917410000000  0.5762430000000 1.0
C      1  0.5568720000000  0.5915650000000  0.5281930000000 1.0
C      1  0.5080700000000  0.4269650000000  0.5222950000000 1.0
C      1  0.5242340000000  0.5485730000000  0.5577180000000 1.0
C      1  0.4066850000000  0.5208360000000  0.5443860000000 1.0
C      1  0.4476840000000  0.5211540000000  0.5244530000000 1.0
C      1  0.5468330000000  0.4796760000000  0.4896920000000 1.0
C      1  0.4935750000000  0.5109060000000  0.4603910000000 1.0
C      1  0.5064050000000  0.4981300000000  0.4810970000000 1.0
C      1  0.5047100000000  0.4549840000000  0.4389970000000 1.0
C      1  0.4599400000000  0.5111690000000  0.5479700000000 1.0
C      1  0.5064870000000  0.4252130000000  0.4530830000000 1.0
C      1  0.5361380000000  0.4237050000000  0.4548050000000 1.0
C      1  0.4168080000000  0.4607290000000  0.5216940000000 1.0
C      1  0.5241240000000  0.4428420000000  0.5724740000000 1.0
C      1  0.5406810000000  0.5027770000000  0.5729280000000 1.0
C      1  0.5009110000000  0.5386400000000  0.4652730000000 1.0
C      1  0.4842060000000  0.4257080000000  0.5048120000000 1.0
C      1  0.5465500000000  0.4513260000000  0.4423810000000 1.0
C      1  0.4557300000000  0.5805930000000  0.5133960000000 1.0
C      1  0.5431860000000  0.5204860000000  0.4362950000000 1.0
C      1  0.4510850000000  0.4606920000000  0.4314630000000 1.0
C      1  0.5211460000000  0.5745890000000  0.5370770000000 1.0
C      1  0.3984280000000  0.5186220000000  0.4679740000000 1.0
C      1  0.4101910000000  0.4976190000000  0.4845060000000 1.0
C      1  0.5844360000000  0.4533560000000  0.5243510000000 1.0
C      1  0.5785870000000  0.4947710000000  0.5499880000000 1.0
C      1  0.5282860000000  0.4844210000000  0.4059780000000 1.0
C      1  0.5491030000000  0.4225400000000  0.5222850000000 1.0
C      1  0.5423990000000  0.5756310000000  0.5148690000000 1.0
C      1  0.5716700000000  0.5227200000000  0.5441510000000 1.0
C      1  0.5956080000000  0.5033100000000  0.5080000000000 1.0
C      1  0.4431060000000  0.5099020000000  0.5714260000000 1.0
C      1  0.4967640000000  0.5404900000000  0.5702530000000 1.0
C      1  0.4881450000000  0.5327310000000  0.5030690000000 1.0
C      1  0.4772790000000  0.4743100000000  0.4280130000000 1.0
C      1  0.4971750000000  0.5905800000000  0.4693220000000 1.0
C      1  0.4852790000000  0.4553810000000  0.5839570000000 1.0
C      1  0.5636970000000  0.4989200000000  0.4341030000000 1.0
END
