TITL C-883739-1268-258 72.6176950302147 125000 -29013.4953713105 0 0 196 (C1) n - 1
REM
REM in /home/nfs/bkarasulu/CARBON/AIRSS/Generating-Clusters/ReaxFF-fromJPCA2015/Units_Real/with-SteepDescent/Only-C1/SD-CG/Try1-3A/FIRE-CG
REM
REM
REM
REM
REM
REM ./C.cell (11c1c37f851c82e70ff6c80c92926a4b)
REM
REM compiler GCC version 9.2.1 20190827 (Red Hat 9.2.1-1)
REM options -cpp -mtune=generic -march=x86-64 -g -O0 -fpre-include=/usr/include/finclude/math-vector-fortran.h
REM seed -440876754 2001718948 -1111005115 -1616068421 -236128957 1470776395 -1866951282 1272036262 1350162750 -830217008 349963532 1158491759 -941750850 1552787176 -1367089624 287754387 -2011822009 278993824 -36606719 -921001668 1028254501 -469446693 475285227 2122125846 -1707231030 52146992 -1231630332 -1644312917 -1831029061 -569074420 711232051 2099337075 -863548107
REM
CELL 1.54180   50.00000   50.00000   50.00000   90.00000   90.00000   90.00000
LATT -1
SFAC C  
C      1  0.4571320000000  0.5703790000000  0.5428200000000 1.0
C      1  0.3942880000000  0.4738480000000  0.5048870000000 1.0
C      1  0.5390740000000  0.5576980000000  0.3880600000000 1.0
C      1  0.4026080000000  0.4864670000000  0.5296050000000 1.0
C      1  0.4851780000000  0.4644160000000  0.5584260000000 1.0
C      1  0.3897490000000  0.5611260000000  0.5194310000000 1.0
C      1  0.5945990000000  0.4574840000000  0.4364170000000 1.0
C      1  0.5211220000000  0.4499130000000  0.5804560000000 1.0
C      1  0.5877670000000  0.5470320000000  0.4632890000000 1.0
C      1  0.4965020000000  0.4890530000000  0.5948160000000 1.0
C      1  0.5136140000000  0.4415560000000  0.5247240000000 1.0
C      1  0.5456720000000  0.5559940000000  0.5614400000000 1.0
C      1  0.4118060000000  0.4883950000000  0.4016080000000 1.0
C      1  0.4251280000000  0.4634800000000  0.4061000000000 1.0
C      1  0.3962870000000  0.5229130000000  0.4898610000000 1.0
C      1  0.4164490000000  0.4254200000000  0.5368860000000 1.0
C      1  0.5502390000000  0.6212410000000  0.5161560000000 1.0
C      1  0.5280470000000  0.6013590000000  0.4579020000000 1.0
C      1  0.4177350000000  0.4590620000000  0.4717100000000 1.0
C      1  0.5306060000000  0.4520580000000  0.4741680000000 1.0
C      1  0.5272610000000  0.5563130000000  0.5845530000000 1.0
C      1  0.5394710000000  0.6213420000000  0.4760840000000 1.0
C      1  0.5019380000000  0.5110260000000  0.5751920000000 1.0
C      1  0.5524800000000  0.4635970000000  0.4596100000000 1.0
C      1  0.6112600000000  0.4986660000000  0.4572280000000 1.0
C      1  0.4537010000000  0.5751270000000  0.4157740000000 1.0
C      1  0.5910840000000  0.5332890000000  0.5501870000000 1.0
C      1  0.5326360000000  0.5067180000000  0.4459780000000 1.0
C      1  0.4895730000000  0.4303850000000  0.4794230000000 1.0
C      1  0.5754750000000  0.5305670000000  0.4147730000000 1.0
C      1  0.4014280000000  0.5061380000000  0.5784740000000 1.0
C      1  0.5376380000000  0.6038550000000  0.5605290000000 1.0
C      1  0.4606700000000  0.5115500000000  0.5498800000000 1.0
C      1  0.6078840000000  0.5028250000000  0.5034050000000 1.0
C      1  0.6235980000000  0.5231840000000  0.5184030000000 1.0
C      1  0.4882570000000  0.4694220000000  0.3877360000000 1.0
C      1  0.4703640000000  0.5290270000000  0.4197400000000 1.0
C      1  0.4833280000000  0.5574510000000  0.5578800000000 1.0
C      1  0.5372980000000  0.5334940000000  0.6011830000000 1.0
C      1  0.4532470000000  0.4625600000000  0.4901860000000 1.0
C      1  0.4421900000000  0.5739920000000  0.4956600000000 1.0
C      1  0.5109060000000  0.5933960000000  0.5556520000000 1.0
C      1  0.4874400000000  0.5913920000000  0.4624080000000 1.0
C      1  0.3863470000000  0.5306330000000  0.5157630000000 1.0
C      1  0.5212700000000  0.3964930000000  0.4747070000000 1.0
C      1  0.4985970000000  0.5684980000000  0.5116520000000 1.0
C      1  0.5143690000000  0.4668310000000  0.6013600000000 1.0
C      1  0.4216580000000  0.4504060000000  0.5539110000000 1.0
C      1  0.4750970000000  0.5448480000000  0.3968610000000 1.0
C      1  0.4131570000000  0.4835740000000  0.5877530000000 1.0
C      1  0.5868220000000  0.5663060000000  0.4873110000000 1.0
C      1  0.5030100000000  0.5516730000000  0.5349000000000 1.0
C      1  0.4653020000000  0.5468100000000  0.4423100000000 1.0
C      1  0.4601060000000  0.4119510000000  0.5431080000000 1.0
C      1  0.6120070000000  0.5149740000000  0.5631340000000 1.0
C      1  0.5217000000000  0.5102250000000  0.5541580000000 1.0
C      1  0.4141720000000  0.4878290000000  0.4634200000000 1.0
C      1  0.4834980000000  0.4009200000000  0.4358140000000 1.0
C      1  0.5497440000000  0.4016690000000  0.4692820000000 1.0
C      1  0.5163220000000  0.5235260000000  0.4298440000000 1.0
C      1  0.5388080000000  0.5035270000000  0.4976550000000 1.0
C      1  0.5012430000000  0.4889390000000  0.4877920000000 1.0
C      1  0.4587900000000  0.3941650000000  0.4502270000000 1.0
C      1  0.5862570000000  0.4509530000000  0.5435380000000 1.0
C      1  0.4033580000000  0.5380450000000  0.4465650000000 1.0
C      1  0.5035840000000  0.4495730000000  0.4644810000000 1.0
C      1  0.4627140000000  0.4396180000000  0.5282050000000 1.0
C      1  0.4630650000000  0.4748200000000  0.3955970000000 1.0
C      1  0.4990060000000  0.3877140000000  0.4576830000000 1.0
C      1  0.4983270000000  0.4812160000000  0.4282290000000 1.0
C      1  0.5398680000000  0.4745530000000  0.5416220000000 1.0
C      1  0.6087580000000  0.5457380000000  0.5287370000000 1.0
C      1  0.4613720000000  0.4824710000000  0.4463220000000 1.0
C      1  0.4932310000000  0.5096450000000  0.4189010000000 1.0
C      1  0.4584970000000  0.3925150000000  0.4972000000000 1.0
C      1  0.4430180000000  0.4584050000000  0.5190400000000 1.0
C      1  0.4946980000000  0.4980020000000  0.3878750000000 1.0
C      1  0.5346480000000  0.4841680000000  0.6101060000000 1.0
C      1  0.4391290000000  0.4522390000000  0.5776400000000 1.0
C      1  0.3949430000000  0.5177780000000  0.4241790000000 1.0
C      1  0.4681600000000  0.4462990000000  0.5728770000000 1.0
C      1  0.4952090000000  0.5072060000000  0.6177340000000 1.0
C      1  0.5013790000000  0.5367730000000  0.4712650000000 1.0
C      1  0.6057060000000  0.4679040000000  0.5584690000000 1.0
C      1  0.5649540000000  0.4054850000000  0.4938320000000 1.0
C      1  0.5118420000000  0.5837190000000  0.4757310000000 1.0
C      1  0.5272050000000  0.4428930000000  0.4101060000000 1.0
C      1  0.6300940000000  0.4772650000000  0.5445190000000 1.0
C      1  0.5243310000000  0.5116400000000  0.6158670000000 1.0
C      1  0.5085260000000  0.4284240000000  0.5903990000000 1.0
C      1  0.4824890000000  0.5273760000000  0.5607470000000 1.0
C      1  0.4331770000000  0.4243190000000  0.4322510000000 1.0
C      1  0.5447780000000  0.4818360000000  0.4376090000000 1.0
C      1  0.4549690000000  0.5973010000000  0.5339370000000 1.0
C      1  0.4614610000000  0.4378950000000  0.4764900000000 1.0
C      1  0.5359840000000  0.4789660000000  0.5137450000000 1.0
C      1  0.4386410000000  0.5659380000000  0.4365340000000 1.0
C      1  0.4289570000000  0.4026460000000  0.5483550000000 1.0
C      1  0.5616130000000  0.4051380000000  0.5229850000000 1.0
C      1  0.4818640000000  0.4250450000000  0.4173800000000 1.0
C      1  0.4068240000000  0.5959570000000  0.4614330000000 1.0
C      1  0.4999600000000  0.5094680000000  0.5090450000000 1.0
C      1  0.5190640000000  0.4040850000000  0.5469180000000 1.0
C      1  0.4250090000000  0.4715670000000  0.5369850000000 1.0
C      1  0.4117620000000  0.4423200000000  0.4249970000000 1.0
C      1  0.5601220000000  0.4758360000000  0.5973430000000 1.0
C      1  0.3988930000000  0.4934460000000  0.4387160000000 1.0
C      1  0.5854850000000  0.4916650000000  0.5178230000000 1.0
C      1  0.4547330000000  0.5430420000000  0.6098590000000 1.0
C      1  0.4512210000000  0.5251140000000  0.5124630000000 1.0
C      1  0.3966680000000  0.4950620000000  0.4859670000000 1.0
C      1  0.4884650000000  0.5688930000000  0.4380310000000 1.0
C      1  0.5356330000000  0.4464580000000  0.5042710000000 1.0
C      1  0.5811050000000  0.5872280000000  0.5333680000000 1.0
C      1  0.5994800000000  0.5230000000000  0.4603270000000 1.0
C      1  0.5889720000000  0.5045600000000  0.4135740000000 1.0
C      1  0.4167230000000  0.5382790000000  0.4723930000000 1.0
C      1  0.4513640000000  0.4979310000000  0.5982470000000 1.0
C      1  0.4029490000000  0.4483250000000  0.4928420000000 1.0
C      1  0.5170600000000  0.5419680000000  0.3830260000000 1.0
C      1  0.4989740000000  0.6145300000000  0.5061280000000 1.0
C      1  0.4376250000000  0.5396160000000  0.5855800000000 1.0
C      1  0.5707570000000  0.5439820000000  0.5699020000000 1.0
C      1  0.4805060000000  0.5714690000000  0.4090410000000 1.0
C      1  0.5423580000000  0.5588060000000  0.4401590000000 1.0
C      1  0.6031110000000  0.4849180000000  0.4308580000000 1.0
C      1  0.5640540000000  0.5418040000000  0.3894170000000 1.0
C      1  0.4881120000000  0.4719000000000  0.4518700000000 1.0
C      1  0.5612200000000  0.5769890000000  0.4936290000000 1.0
C      1  0.5012840000000  0.5935710000000  0.5259130000000 1.0
C      1  0.4038340000000  0.5366140000000  0.5522220000000 1.0
C      1  0.4471990000000  0.5240140000000  0.4784930000000 1.0
C      1  0.5648260000000  0.4359500000000  0.5582060000000 1.0
C      1  0.5055500000000  0.4962910000000  0.5341640000000 1.0
C      1  0.5791670000000  0.4480290000000  0.4607350000000 1.0
C      1  0.4783370000000  0.6066880000000  0.4853370000000 1.0
C      1  0.4820470000000  0.4681850000000  0.4944390000000 1.0
C      1  0.5429550000000  0.5536200000000  0.5074990000000 1.0
C      1  0.4867890000000  0.4490600000000  0.5167090000000 1.0
C      1  0.6311700000000  0.5076350000000  0.5426170000000 1.0
C      1  0.4423260000000  0.4171610000000  0.4632700000000 1.0
C      1  0.4446200000000  0.5132210000000  0.5738210000000 1.0
C      1  0.4511720000000  0.4656060000000  0.4167270000000 1.0
C      1  0.4555330000000  0.4358290000000  0.4188510000000 1.0
C      1  0.4045610000000  0.4440610000000  0.4520990000000 1.0
C      1  0.4090780000000  0.5334970000000  0.5792880000000 1.0
C      1  0.5675390000000  0.5443340000000  0.4411410000000 1.0
C      1  0.4140690000000  0.5589870000000  0.5356980000000 1.0
C      1  0.5487660000000  0.4997820000000  0.5517050000000 1.0
C      1  0.5427750000000  0.4288940000000  0.4296650000000 1.0
C      1  0.5531530000000  0.5251630000000  0.5088770000000 1.0
C      1  0.3937570000000  0.5133920000000  0.5382170000000 1.0
C      1  0.5599880000000  0.6067570000000  0.4924610000000 1.0
C      1  0.5465340000000  0.4122390000000  0.5466380000000 1.0
C      1  0.5130410000000  0.5481340000000  0.4440400000000 1.0
C      1  0.4158780000000  0.5045190000000  0.4182630000000 1.0
C      1  0.4716220000000  0.5363530000000  0.4679660000000 1.0
C      1  0.4157850000000  0.4252940000000  0.5059470000000 1.0
C      1  0.5602940000000  0.6063340000000  0.5403300000000 1.0
C      1  0.5318540000000  0.5994630000000  0.4271030000000 1.0
C      1  0.5642240000000  0.5264800000000  0.5918590000000 1.0
C      1  0.4544740000000  0.5983810000000  0.5019180000000 1.0
C      1  0.5249090000000  0.4713480000000  0.4189960000000 1.0
C      1  0.4938230000000  0.5266960000000  0.3802110000000 1.0
C      1  0.5160410000000  0.4564280000000  0.5508550000000 1.0
C      1  0.5183060000000  0.5082420000000  0.4727320000000 1.0
C      1  0.4419920000000  0.5545470000000  0.5218850000000 1.0
C      1  0.5768230000000  0.4992920000000  0.5920830000000 1.0
C      1  0.5046570000000  0.5716390000000  0.5744290000000 1.0
C      1  0.4177130000000  0.5744610000000  0.4554350000000 1.0
C      1  0.4332130000000  0.4076250000000  0.4913120000000 1.0
C      1  0.5936680000000  0.4597520000000  0.4878520000000 1.0
C      1  0.4669690000000  0.5161760000000  0.6161700000000 1.0
C      1  0.4736410000000  0.3942280000000  0.5219580000000 1.0
C      1  0.5022390000000  0.4075650000000  0.5725110000000 1.0
C      1  0.5683210000000  0.5129250000000  0.5325240000000 1.0
C      1  0.5073130000000  0.4118720000000  0.4958670000000 1.0
C      1  0.6110970000000  0.4820960000000  0.4825730000000 1.0
C      1  0.4990930000000  0.4429540000000  0.4019500000000 1.0
C      1  0.5589160000000  0.4217990000000  0.4501160000000 1.0
C      1  0.4728540000000  0.3827160000000  0.4726240000000 1.0
C      1  0.5623190000000  0.4546910000000  0.5777300000000 1.0
C      1  0.5585350000000  0.4278820000000  0.5072460000000 1.0
C      1  0.5970070000000  0.5694800000000  0.5157910000000 1.0
C      1  0.4745790000000  0.5176140000000  0.5108190000000 1.0
C      1  0.5408190000000  0.5744790000000  0.4154970000000 1.0
C      1  0.5146770000000  0.5583450000000  0.4896430000000 1.0
C      1  0.4360590000000  0.4723660000000  0.5989340000000 1.0
C      1  0.5837980000000  0.4624970000000  0.5151800000000 1.0
C      1  0.5315260000000  0.5549400000000  0.5357200000000 1.0
C      1  0.4449790000000  0.4984430000000  0.4629320000000 1.0
C      1  0.5022330000000  0.3991610000000  0.5223230000000 1.0
C      1  0.4792410000000  0.4885900000000  0.5457840000000 1.0
C      1  0.4748060000000  0.4175860000000  0.5698510000000 1.0
C      1  0.5250580000000  0.6278330000000  0.5014480000000 1.0
C      1  0.5998080000000  0.4924410000000  0.5761730000000 1.0
END
