TITL C-883740-3686-471 12.0273133886086 125000 -16545.8223209399 0 0 111 (C1) n - 1
REM
REM in /home/nfs/bkarasulu/CARBON/AIRSS/Generating-Clusters/ReaxFF-fromJPCA2015/Units_Real/with-SteepDescent/Only-C1/SD-CG/Try1-3A/FIRE-CG
REM
REM
REM
REM
REM
REM ./C.cell (11c1c37f851c82e70ff6c80c92926a4b)
REM
REM compiler GCC version 9.2.1 20190827 (Red Hat 9.2.1-1)
REM options -cpp -mtune=generic -march=x86-64 -g -O0 -fpre-include=/usr/include/finclude/math-vector-fortran.h
REM seed -556264812 -1347837344 465033208 313600152 1655477924 53809940 -1170489597 1747046489 1952582040 -622429673 967207844 -1413672472 1494409406 -1564855108 -265983923 -1641580971 -385220477 -749098316 2040939051 151745434 -1691528128 -1799431008 538587472 1909972036 1335099759 -1065129962 1170996840 1284087244 -1115917804 -617087777 1176831189 1948828693 -184075786
REM
CELL 1.54180   50.00000   50.00000   50.00000   90.00000   90.00000   90.00000
LATT -1
SFAC C  
C      1  0.3862940000000  0.5059090000000  0.5075830000000 1.0
C      1  0.5738670000000  0.4783800000000  0.4832070000000 1.0
C      1  0.4743560000000  0.5799230000000  0.5267590000000 1.0
C      1  0.4968690000000  0.4965350000000  0.5925010000000 1.0
C      1  0.5552870000000  0.5172660000000  0.5889120000000 1.0
C      1  0.4939300000000  0.5140820000000  0.4841980000000 1.0
C      1  0.4909630000000  0.5211990000000  0.5933300000000 1.0
C      1  0.4887720000000  0.4133180000000  0.5061300000000 1.0
C      1  0.4936130000000  0.4536420000000  0.4207410000000 1.0
C      1  0.5746060000000  0.4594870000000  0.4569580000000 1.0
C      1  0.4891240000000  0.5826190000000  0.4500830000000 1.0
C      1  0.5124990000000  0.4511100000000  0.4428240000000 1.0
C      1  0.4072370000000  0.5038330000000  0.4541710000000 1.0
C      1  0.5575820000000  0.5669790000000  0.5192630000000 1.0
C      1  0.5290880000000  0.5537320000000  0.4109160000000 1.0
C      1  0.5310430000000  0.4303490000000  0.4442480000000 1.0
C      1  0.4617080000000  0.4810820000000  0.4946130000000 1.0
C      1  0.4186480000000  0.4782010000000  0.5439270000000 1.0
C      1  0.5053720000000  0.4609300000000  0.5630640000000 1.0
C      1  0.5050960000000  0.4631950000000  0.5114050000000 1.0
C      1  0.5266150000000  0.5415410000000  0.4339580000000 1.0
C      1  0.4742930000000  0.5047670000000  0.5420210000000 1.0
C      1  0.4303930000000  0.5239190000000  0.5350430000000 1.0
C      1  0.5445640000000  0.5113410000000  0.5039310000000 1.0
C      1  0.5676820000000  0.5371990000000  0.5454230000000 1.0
C      1  0.4589620000000  0.5159240000000  0.5231080000000 1.0
C      1  0.5094470000000  0.4747950000000  0.5370220000000 1.0
C      1  0.5128630000000  0.5317940000000  0.5798560000000 1.0
C      1  0.5895680000000  0.4766310000000  0.5118130000000 1.0
C      1  0.4697720000000  0.4803190000000  0.4669440000000 1.0
C      1  0.5591740000000  0.5020270000000  0.4092920000000 1.0
C      1  0.4441500000000  0.5501110000000  0.5445070000000 1.0
C      1  0.5667300000000  0.4824090000000  0.5472130000000 1.0
C      1  0.5523690000000  0.4205020000000  0.4782110000000 1.0
C      1  0.4624860000000  0.5579810000000  0.4720740000000 1.0
C      1  0.4428320000000  0.4837050000000  0.4563890000000 1.0
C      1  0.4005530000000  0.4864680000000  0.5246250000000 1.0
C      1  0.5813870000000  0.4995340000000  0.4649250000000 1.0
C      1  0.5151740000000  0.4766630000000  0.5869760000000 1.0
C      1  0.4516840000000  0.5157590000000  0.4259690000000 1.0
C      1  0.5557050000000  0.5420740000000  0.5726690000000 1.0
C      1  0.5160940000000  0.5181050000000  0.5101480000000 1.0
C      1  0.4429650000000  0.4351010000000  0.4769010000000 1.0
C      1  0.5212600000000  0.4196860000000  0.5495260000000 1.0
C      1  0.4720370000000  0.4248510000000  0.5477970000000 1.0
C      1  0.4552470000000  0.4656360000000  0.5666900000000 1.0
C      1  0.4374070000000  0.4537240000000  0.5474700000000 1.0
C      1  0.4669890000000  0.5093300000000  0.4963930000000 1.0
C      1  0.5292270000000  0.5559050000000  0.5760870000000 1.0
C      1  0.4664000000000  0.5490770000000  0.5624470000000 1.0
C      1  0.4248890000000  0.5207650000000  0.4369840000000 1.0
C      1  0.4617520000000  0.4325210000000  0.5027840000000 1.0
C      1  0.5208240000000  0.5113020000000  0.5607790000000 1.0
C      1  0.4114700000000  0.5313940000000  0.4607900000000 1.0
C      1  0.5182180000000  0.4744720000000  0.4587100000000 1.0
C      1  0.4771450000000  0.4589100000000  0.5047240000000 1.0
C      1  0.5802620000000  0.5505730000000  0.5228690000000 1.0
C      1  0.5387620000000  0.4856250000000  0.4411980000000 1.0
C      1  0.5267870000000  0.4106930000000  0.4662150000000 1.0
C      1  0.4879010000000  0.5850900000000  0.5012440000000 1.0
C      1  0.4847970000000  0.4806660000000  0.4107010000000 1.0
C      1  0.4998010000000  0.5276710000000  0.4188120000000 1.0
C      1  0.5601920000000  0.5051660000000  0.4448980000000 1.0
C      1  0.5926640000000  0.5037660000000  0.5205610000000 1.0
C      1  0.5641160000000  0.5096590000000  0.5324550000000 1.0
C      1  0.4966060000000  0.4147810000000  0.5346110000000 1.0
C      1  0.5371590000000  0.4952250000000  0.5785240000000 1.0
C      1  0.5267470000000  0.4422640000000  0.5666860000000 1.0
C      1  0.5065610000000  0.4117540000000  0.4862980000000 1.0
C      1  0.4862210000000  0.5681190000000  0.5508070000000 1.0
C      1  0.4229860000000  0.4546250000000  0.4760910000000 1.0
C      1  0.5153630000000  0.5462500000000  0.5143850000000 1.0
C      1  0.5452760000000  0.4399740000000  0.4982830000000 1.0
C      1  0.5004670000000  0.5588790000000  0.4963070000000 1.0
C      1  0.4430110000000  0.4664830000000  0.4326630000000 1.0
C      1  0.4577800000000  0.4877540000000  0.4184800000000 1.0
C      1  0.4689630000000  0.5245830000000  0.5799960000000 1.0
C      1  0.4705270000000  0.5613870000000  0.4420800000000 1.0
C      1  0.4400370000000  0.5589210000000  0.4942300000000 1.0
C      1  0.5588090000000  0.4382410000000  0.5223470000000 1.0
C      1  0.5591720000000  0.4354440000000  0.4531940000000 1.0
C      1  0.4091360000000  0.5259730000000  0.5115630000000 1.0
C      1  0.5044670000000  0.5014570000000  0.4085200000000 1.0
C      1  0.5310100000000  0.5634540000000  0.5301400000000 1.0
C      1  0.5044960000000  0.5021410000000  0.5383680000000 1.0
C      1  0.5157170000000  0.5694500000000  0.5545130000000 1.0
C      1  0.4731020000000  0.5364560000000  0.4267830000000 1.0
C      1  0.5397120000000  0.5794230000000  0.4732460000000 1.0
C      1  0.4481960000000  0.5668050000000  0.5211270000000 1.0
C      1  0.5475500000000  0.4334350000000  0.5472290000000 1.0
C      1  0.5186350000000  0.5850960000000  0.4536520000000 1.0
C      1  0.5472770000000  0.5308560000000  0.4525920000000 1.0
C      1  0.4750950000000  0.5863190000000  0.4752910000000 1.0
C      1  0.4863040000000  0.5413490000000  0.4800340000000 1.0
C      1  0.5844610000000  0.5243370000000  0.4791700000000 1.0
C      1  0.5765930000000  0.4589470000000  0.5309820000000 1.0
C      1  0.4183560000000  0.5413450000000  0.4889610000000 1.0
C      1  0.5935770000000  0.5290910000000  0.5058710000000 1.0
C      1  0.5558290000000  0.5354580000000  0.4804850000000 1.0
C      1  0.4756190000000  0.4469720000000  0.5665270000000 1.0
C      1  0.5335070000000  0.4904120000000  0.4129250000000 1.0
C      1  0.4954270000000  0.4924380000000  0.4641580000000 1.0
C      1  0.5571050000000  0.5643850000000  0.4909350000000 1.0
C      1  0.4746560000000  0.4391830000000  0.4352290000000 1.0
C      1  0.4170440000000  0.4817710000000  0.4716030000000 1.0
C      1  0.4496900000000  0.4328280000000  0.5310570000000 1.0
C      1  0.4306890000000  0.5020240000000  0.5541410000000 1.0
C      1  0.4492600000000  0.4397220000000  0.4468680000000 1.0
C      1  0.4568640000000  0.4984860000000  0.5646920000000 1.0
C      1  0.5284000000000  0.4637280000000  0.4914610000000 1.0
C      1  0.5469820000000  0.4850530000000  0.4929040000000 1.0
END
