TITL C-884131-4643-310 26.4403968074085 125000 -18935.4996184627 0 0 129 (C1) n - 1
REM
REM in /home/nfs/bkarasulu/CARBON/AIRSS/Generating-Clusters/ReaxFF-fromJPCA2015/Units_Real/with-SteepDescent/Only-C1/SD-CG/Try1-3A/FIRE-CG
REM
REM
REM
REM
REM
REM ./C.cell (11c1c37f851c82e70ff6c80c92926a4b)
REM
REM compiler GCC version 9.2.1 20190827 (Red Hat 9.2.1-1)
REM options -cpp -mtune=generic -march=x86-64 -g -O0 -fpre-include=/usr/include/finclude/math-vector-fortran.h
REM seed 37678498 1428188100 -903087417 1681926019 -1870939027 29390950 290122078 -489554842 -70644657 -82321464 -279215102 -1981804396 895891461 -592041208 -2043358072 -217724333 313828121 1782281022 -916649619 1077691668 -954236507 1027617782 1373420506 -122758542 -768975267 -1728080154 113609017 1579621878 1592044178 1030518471 1914138716 -2098229387 1536962440
REM
CELL 1.54180   50.00000   50.00000   50.00000   90.00000   90.00000   90.00000
LATT -1
SFAC C  
C      1  0.4522000000000  0.4590210000000  0.5690110000000 1.0
C      1  0.4848640000000  0.5499970000000  0.5143970000000 1.0
C      1  0.5642630000000  0.5354310000000  0.4981190000000 1.0
C      1  0.5535590000000  0.4418610000000  0.4282640000000 1.0
C      1  0.5201020000000  0.4104490000000  0.4602170000000 1.0
C      1  0.4520630000000  0.5285630000000  0.5397810000000 1.0
C      1  0.4788160000000  0.4900820000000  0.5929020000000 1.0
C      1  0.5884520000000  0.5359730000000  0.5143490000000 1.0
C      1  0.5899320000000  0.4606890000000  0.4982840000000 1.0
C      1  0.4922710000000  0.4108270000000  0.4568900000000 1.0
C      1  0.5516920000000  0.5791770000000  0.4905810000000 1.0
C      1  0.4171800000000  0.4586170000000  0.5223190000000 1.0
C      1  0.4920980000000  0.4189570000000  0.5092810000000 1.0
C      1  0.5510020000000  0.5609720000000  0.4681390000000 1.0
C      1  0.5207920000000  0.5848650000000  0.5454910000000 1.0
C      1  0.5345280000000  0.5561460000000  0.4204590000000 1.0
C      1  0.4599360000000  0.4422790000000  0.5255360000000 1.0
C      1  0.4221220000000  0.5048520000000  0.4487820000000 1.0
C      1  0.5371900000000  0.4426050000000  0.4814190000000 1.0
C      1  0.4548480000000  0.5443550000000  0.5134150000000 1.0
C      1  0.5581570000000  0.4593060000000  0.5261920000000 1.0
C      1  0.5763520000000  0.5166520000000  0.4521260000000 1.0
C      1  0.5883380000000  0.4961860000000  0.4684500000000 1.0
C      1  0.4591790000000  0.4846730000000  0.4797610000000 1.0
C      1  0.5077500000000  0.4462580000000  0.5105990000000 1.0
C      1  0.5705280000000  0.4714440000000  0.5502720000000 1.0
C      1  0.4389530000000  0.5107950000000  0.5775820000000 1.0
C      1  0.4239850000000  0.4526790000000  0.4673090000000 1.0
C      1  0.5432480000000  0.4707130000000  0.4722240000000 1.0
C      1  0.4886800000000  0.5165450000000  0.6019910000000 1.0
C      1  0.5059640000000  0.5557270000000  0.5700030000000 1.0
C      1  0.5925200000000  0.4836910000000  0.5169780000000 1.0
C      1  0.5296010000000  0.5655890000000  0.4481080000000 1.0
C      1  0.4523630000000  0.5374620000000  0.5794150000000 1.0
C      1  0.4748740000000  0.5945100000000  0.5063510000000 1.0
C      1  0.4466240000000  0.5767080000000  0.5402810000000 1.0
C      1  0.4833550000000  0.5274950000000  0.4792290000000 1.0
C      1  0.5258930000000  0.4260890000000  0.4345850000000 1.0
C      1  0.5539120000000  0.4553780000000  0.5685600000000 1.0
C      1  0.4941820000000  0.4812350000000  0.5702960000000 1.0
C      1  0.5025340000000  0.5071500000000  0.4931880000000 1.0
C      1  0.4019080000000  0.4939710000000  0.4837400000000 1.0
C      1  0.5748730000000  0.4475300000000  0.4460630000000 1.0
C      1  0.4518260000000  0.4848230000000  0.5838300000000 1.0
C      1  0.5335860000000  0.4940540000000  0.4876000000000 1.0
C      1  0.4298060000000  0.4560460000000  0.5493390000000 1.0
C      1  0.4598770000000  0.4592390000000  0.4229960000000 1.0
C      1  0.4827130000000  0.5663220000000  0.4376230000000 1.0
C      1  0.5280100000000  0.4415960000000  0.5540670000000 1.0
C      1  0.4991240000000  0.5633390000000  0.4949690000000 1.0
C      1  0.5055040000000  0.4570120000000  0.5759800000000 1.0
C      1  0.5521350000000  0.4943050000000  0.4113000000000 1.0
C      1  0.4833620000000  0.5366330000000  0.5784230000000 1.0
C      1  0.5374690000000  0.4926420000000  0.5977290000000 1.0
C      1  0.5524610000000  0.5356440000000  0.4085800000000 1.0
C      1  0.5351530000000  0.4643380000000  0.5880620000000 1.0
C      1  0.4896260000000  0.4213110000000  0.5549740000000 1.0
C      1  0.5391350000000  0.5952140000000  0.5270160000000 1.0
C      1  0.4362280000000  0.5697840000000  0.5133590000000 1.0
C      1  0.4471910000000  0.4430210000000  0.4475850000000 1.0
C      1  0.5422620000000  0.5243980000000  0.5145410000000 1.0
C      1  0.4913070000000  0.4533050000000  0.4646950000000 1.0
C      1  0.5111120000000  0.5024620000000  0.4041170000000 1.0
C      1  0.4118600000000  0.5431380000000  0.4917740000000 1.0
C      1  0.4118570000000  0.4784810000000  0.4611110000000 1.0
C      1  0.4656070000000  0.4145000000000  0.4878880000000 1.0
C      1  0.4066810000000  0.5096460000000  0.5326480000000 1.0
C      1  0.5026170000000  0.4619030000000  0.4883220000000 1.0
C      1  0.5997230000000  0.5113850000000  0.5199210000000 1.0
C      1  0.5762630000000  0.4384450000000  0.5113740000000 1.0
C      1  0.4786840000000  0.5194880000000  0.5499700000000 1.0
C      1  0.5445330000000  0.5114910000000  0.5761790000000 1.0
C      1  0.5682970000000  0.5139000000000  0.4233280000000 1.0
C      1  0.4627960000000  0.4722100000000  0.5268350000000 1.0
C      1  0.4707230000000  0.5095610000000  0.4603130000000 1.0
C      1  0.4866520000000  0.4485800000000  0.4163860000000 1.0
C      1  0.4434490000000  0.5530380000000  0.5574490000000 1.0
C      1  0.5034700000000  0.5745740000000  0.4561940000000 1.0
C      1  0.5441490000000  0.4676980000000  0.4162550000000 1.0
C      1  0.4872350000000  0.4841640000000  0.4893250000000 1.0
C      1  0.5340690000000  0.4959990000000  0.5163060000000 1.0
C      1  0.5058020000000  0.5038620000000  0.5224740000000 1.0
C      1  0.4292670000000  0.5111680000000  0.5501750000000 1.0
C      1  0.4425400000000  0.5097190000000  0.4289440000000 1.0
C      1  0.4767070000000  0.4223060000000  0.5318520000000 1.0
C      1  0.5001010000000  0.5310280000000  0.5325300000000 1.0
C      1  0.5311230000000  0.4172520000000  0.4890880000000 1.0
C      1  0.4499980000000  0.5856690000000  0.4933770000000 1.0
C      1  0.4483360000000  0.5632500000000  0.4734030000000 1.0
C      1  0.4460950000000  0.4286030000000  0.5035190000000 1.0
C      1  0.4003250000000  0.5345760000000  0.5180270000000 1.0
C      1  0.4089250000000  0.5192960000000  0.4717650000000 1.0
C      1  0.5283470000000  0.5370590000000  0.5362740000000 1.0
C      1  0.4640620000000  0.4577680000000  0.4665470000000 1.0
C      1  0.5075880000000  0.4531640000000  0.4408910000000 1.0
C      1  0.6008240000000  0.5019920000000  0.4947800000000 1.0
C      1  0.4575980000000  0.5382300000000  0.4859400000000 1.0
C      1  0.4141090000000  0.4878120000000  0.5121580000000 1.0
C      1  0.4460860000000  0.4859680000000  0.5081100000000 1.0
C      1  0.4527650000000  0.5376730000000  0.4268670000000 1.0
C      1  0.5647650000000  0.5495580000000  0.5569720000000 1.0
C      1  0.4652200000000  0.4173550000000  0.4598600000000 1.0
C      1  0.5170740000000  0.5005280000000  0.4330800000000 1.0
C      1  0.5346490000000  0.5410940000000  0.5642060000000 1.0
C      1  0.5778650000000  0.5581590000000  0.5318620000000 1.0
C      1  0.5301430000000  0.5963580000000  0.4984240000000 1.0
C      1  0.4922420000000  0.5246050000000  0.3985900000000 1.0
C      1  0.4543440000000  0.5622850000000  0.4447570000000 1.0
C      1  0.5190440000000  0.4072850000000  0.5159070000000 1.0
C      1  0.5144190000000  0.5072920000000  0.6053370000000 1.0
C      1  0.5025210000000  0.4249650000000  0.4121680000000 1.0
C      1  0.5664650000000  0.5375060000000  0.4692240000000 1.0
C      1  0.5630960000000  0.5790220000000  0.5175540000000 1.0
C      1  0.4786230000000  0.5443450000000  0.4157940000000 1.0
C      1  0.5675240000000  0.4999940000000  0.5623170000000 1.0
C      1  0.5167150000000  0.4158040000000  0.5437850000000 1.0
C      1  0.5282480000000  0.4738000000000  0.4412560000000 1.0
C      1  0.5777050000000  0.4683430000000  0.4691290000000 1.0
C      1  0.5280190000000  0.4573540000000  0.5279320000000 1.0
C      1  0.4237490000000  0.4450570000000  0.4957130000000 1.0
C      1  0.4820720000000  0.4973670000000  0.3999870000000 1.0
C      1  0.4934800000000  0.5052330000000  0.4462370000000 1.0
C      1  0.4968340000000  0.5789360000000  0.5548800000000 1.0
C      1  0.4846030000000  0.4897840000000  0.5439220000000 1.0
C      1  0.4793960000000  0.4434720000000  0.5710790000000 1.0
C      1  0.4593620000000  0.4875470000000  0.4169440000000 1.0
C      1  0.5775730000000  0.5254800000000  0.5565690000000 1.0
C      1  0.5024230000000  0.5906880000000  0.4864110000000 1.0
C      1  0.4730010000000  0.5871960000000  0.5340760000000 1.0
END
