TITL C-883740-3686-290 8.85482917769345 125000 -9943.46728530836 0 0 68 (C1) n - 1
REM
REM in /home/nfs/bkarasulu/CARBON/AIRSS/Generating-Clusters/ReaxFF-fromJPCA2015/Units_Real/with-SteepDescent/Only-C1/SD-CG/Try1-3A/FIRE-CG
REM
REM
REM
REM
REM
REM ./C.cell (11c1c37f851c82e70ff6c80c92926a4b)
REM
REM compiler GCC version 9.2.1 20190827 (Red Hat 9.2.1-1)
REM options -cpp -mtune=generic -march=x86-64 -g -O0 -fpre-include=/usr/include/finclude/math-vector-fortran.h
REM seed 1211492518 1402422672 484702270 -2128207529 1810808874 116794532 332239664 692794009 5028755 1660562394 -246305432 1622439144 -384252851 1371750373 -1961191170 -578770927 -1908164346 2054305757 730066988 -856088289 340386569 143214031 -1611329738 1014011921 -1382714380 -660975487 -493416098 1831395040 527493621 -538192300 -2099462058 -1755128525 -571382594
REM
CELL 1.54180   50.00000   50.00000   50.00000   90.00000   90.00000   90.00000
LATT -1
SFAC C  
C      1  0.5182290000000  0.4161990000000  0.5295240000000 1.0
C      1  0.4600590000000  0.5288840000000  0.4331920000000 1.0
C      1  0.4970130000000  0.5283720000000  0.5145430000000 1.0
C      1  0.5458100000000  0.5311810000000  0.4358660000000 1.0
C      1  0.4854470000000  0.4148630000000  0.4802870000000 1.0
C      1  0.4924110000000  0.5149000000000  0.4659640000000 1.0
C      1  0.5184220000000  0.5344390000000  0.4248480000000 1.0
C      1  0.5323890000000  0.4728320000000  0.5592280000000 1.0
C      1  0.4543560000000  0.5545700000000  0.4976280000000 1.0
C      1  0.5533290000000  0.5020670000000  0.4341530000000 1.0
C      1  0.5526110000000  0.4424480000000  0.5046310000000 1.0
C      1  0.5162600000000  0.4514680000000  0.4681600000000 1.0
C      1  0.4826570000000  0.5179250000000  0.4940610000000 1.0
C      1  0.5195990000000  0.4735630000000  0.4908880000000 1.0
C      1  0.5705700000000  0.5292250000000  0.5198510000000 1.0
C      1  0.5074260000000  0.5412900000000  0.5383160000000 1.0
C      1  0.4905780000000  0.5062350000000  0.5795890000000 1.0
C      1  0.5125920000000  0.5829190000000  0.5065300000000 1.0
C      1  0.4651140000000  0.4283250000000  0.4656860000000 1.0
C      1  0.5310990000000  0.5272270000000  0.5396380000000 1.0
C      1  0.4464180000000  0.5147930000000  0.5290140000000 1.0
C      1  0.4798020000000  0.5071230000000  0.4254290000000 1.0
C      1  0.4896600000000  0.4746090000000  0.5382380000000 1.0
C      1  0.4744100000000  0.5302920000000  0.5731820000000 1.0
C      1  0.4293760000000  0.5092510000000  0.5493770000000 1.0
C      1  0.5004980000000  0.5719620000000  0.4810440000000 1.0
C      1  0.4648420000000  0.5493720000000  0.4526310000000 1.0
C      1  0.4699320000000  0.4527720000000  0.5512920000000 1.0
C      1  0.5051870000000  0.5361730000000  0.4511930000000 1.0
C      1  0.4752950000000  0.5745740000000  0.5450830000000 1.0
C      1  0.4513340000000  0.5235230000000  0.4998010000000 1.0
C      1  0.4356460000000  0.5062420000000  0.4774660000000 1.0
C      1  0.5305170000000  0.4961550000000  0.4191460000000 1.0
C      1  0.5132220000000  0.4245180000000  0.4794620000000 1.0
C      1  0.4491360000000  0.5275540000000  0.5572060000000 1.0
C      1  0.5166550000000  0.4360210000000  0.5519390000000 1.0
C      1  0.5191580000000  0.5582720000000  0.4643940000000 1.0
C      1  0.5546730000000  0.5121420000000  0.5390480000000 1.0
C      1  0.4718500000000  0.4169400000000  0.5062320000000 1.0
C      1  0.4465260000000  0.4442040000000  0.4603390000000 1.0
C      1  0.5165420000000  0.4614870000000  0.5429380000000 1.0
C      1  0.5649150000000  0.4866090000000  0.4582630000000 1.0
C      1  0.5378210000000  0.5705380000000  0.5094490000000 1.0
C      1  0.5471270000000  0.5482260000000  0.4597200000000 1.0
C      1  0.5063970000000  0.5099980000000  0.4125250000000 1.0
C      1  0.4373230000000  0.5183150000000  0.4500980000000 1.0
C      1  0.5489280000000  0.4828980000000  0.5367390000000 1.0
C      1  0.5009090000000  0.4744910000000  0.5088600000000 1.0
C      1  0.4518220000000  0.4468390000000  0.5319330000000 1.0
C      1  0.4718550000000  0.5651020000000  0.4748900000000 1.0
C      1  0.5618950000000  0.5562640000000  0.5082490000000 1.0
C      1  0.4479170000000  0.4341020000000  0.5087740000000 1.0
C      1  0.4948740000000  0.5914690000000  0.5298490000000 1.0
C      1  0.5746460000000  0.5182820000000  0.4933750000000 1.0
C      1  0.5495950000000  0.4724650000000  0.5069930000000 1.0
C      1  0.4633370000000  0.5656050000000  0.5207990000000 1.0
C      1  0.4347330000000  0.4782490000000  0.4791960000000 1.0
C      1  0.4960350000000  0.4974190000000  0.5551760000000 1.0
C      1  0.4990050000000  0.4682210000000  0.4557030000000 1.0
C      1  0.4874520000000  0.4295440000000  0.5549010000000 1.0
C      1  0.4896070000000  0.4138690000000  0.5302880000000 1.0
C      1  0.5664700000000  0.5441810000000  0.4808480000000 1.0
C      1  0.4875270000000  0.5518130000000  0.5601300000000 1.0
C      1  0.5165060000000  0.4945060000000  0.5729490000000 1.0
C      1  0.4343980000000  0.4505540000000  0.4843860000000 1.0
C      1  0.4836130000000  0.4907530000000  0.4496800000000 1.0
C      1  0.5673900000000  0.4903920000000  0.4862360000000 1.0
C      1  0.5312580000000  0.4223840000000  0.5029570000000 1.0
END
