TITL C-883741-3679-447 -12.4441255867122 125000 -10517.7660747346 0 0 72 (C1) n - 1
REM
REM in /home/nfs/bkarasulu/CARBON/AIRSS/Generating-Clusters/ReaxFF-fromJPCA2015/Units_Real/with-SteepDescent/Only-C1/SD-CG/Try1-3A/FIRE-CG
REM
REM
REM
REM
REM
REM ./C.cell (11c1c37f851c82e70ff6c80c92926a4b)
REM
REM compiler GCC version 9.2.1 20190827 (Red Hat 9.2.1-1)
REM options -cpp -mtune=generic -march=x86-64 -g -O0 -fpre-include=/usr/include/finclude/math-vector-fortran.h
REM seed -1869347034 525933283 -158393661 -1363804079 -362349564 119387362 1800353365 -127277512 1916510510 667045762 -47606254 -848806574 -2102492936 -108555765 -1178435304 892773976 -1376334410 -1958274680 -1433653206 -627451720 -1570326972 -106191635 1603317950 -545683257 -1253698439 1015139168 -1320508837 366346084 -1539586887 977345946 -1359268870 -1078157886 -1419116855
REM
CELL 1.54180   50.00000   50.00000   50.00000   90.00000   90.00000   90.00000
LATT -1
SFAC C  
C      1  0.4898390000000  0.4759360000000  0.4810350000000 1.0
C      1  0.5582380000000  0.5191400000000  0.5289020000000 1.0
C      1  0.5811120000000  0.4947940000000  0.4900260000000 1.0
C      1  0.4909930000000  0.5460540000000  0.4560300000000 1.0
C      1  0.4786870000000  0.5441980000000  0.5065090000000 1.0
C      1  0.5626630000000  0.4712620000000  0.5314280000000 1.0
C      1  0.4209150000000  0.4691870000000  0.5222320000000 1.0
C      1  0.5050550000000  0.5219540000000  0.5742600000000 1.0
C      1  0.5636860000000  0.5323990000000  0.4592610000000 1.0
C      1  0.4938510000000  0.5695640000000  0.5118400000000 1.0
C      1  0.4828550000000  0.5082540000000  0.4223410000000 1.0
C      1  0.4992320000000  0.5227120000000  0.5454360000000 1.0
C      1  0.4929760000000  0.5035610000000  0.4711220000000 1.0
C      1  0.5232970000000  0.5310790000000  0.4953640000000 1.0
C      1  0.5681530000000  0.4713880000000  0.5034090000000 1.0
C      1  0.4760940000000  0.4280260000000  0.5133540000000 1.0
C      1  0.4808260000000  0.5713400000000  0.4662250000000 1.0
C      1  0.4556240000000  0.4501150000000  0.4717600000000 1.0
C      1  0.5199000000000  0.5671630000000  0.5229490000000 1.0
C      1  0.4529820000000  0.4344030000000  0.4962360000000 1.0
C      1  0.4526590000000  0.5600780000000  0.4663590000000 1.0
C      1  0.4853580000000  0.4998990000000  0.5789010000000 1.0
C      1  0.5161730000000  0.5402510000000  0.4407620000000 1.0
C      1  0.4995440000000  0.4539660000000  0.5552460000000 1.0
C      1  0.5363350000000  0.5531120000000  0.5388710000000 1.0
C      1  0.4433130000000  0.4772970000000  0.4662760000000 1.0
C      1  0.4290050000000  0.5178900000000  0.5240420000000 1.0
C      1  0.5410960000000  0.4506220000000  0.4795950000000 1.0
C      1  0.5277360000000  0.5574820000000  0.4831510000000 1.0
C      1  0.5431020000000  0.4960010000000  0.4779630000000 1.0
C      1  0.4811020000000  0.4933790000000  0.4437470000000 1.0
C      1  0.5305040000000  0.4587130000000  0.4532030000000 1.0
C      1  0.4587710000000  0.5026930000000  0.5657740000000 1.0
C      1  0.4824840000000  0.4374320000000  0.4673950000000 1.0
C      1  0.5306080000000  0.4879870000000  0.5723860000000 1.0
C      1  0.5386940000000  0.5482000000000  0.4569910000000 1.0
C      1  0.4623910000000  0.4810720000000  0.5471350000000 1.0
C      1  0.5031340000000  0.4776390000000  0.5740100000000 1.0
C      1  0.5206360000000  0.4610820000000  0.5389390000000 1.0
C      1  0.4349900000000  0.5543000000000  0.4890290000000 1.0
C      1  0.4468870000000  0.5306740000000  0.4536870000000 1.0
C      1  0.5123690000000  0.5161490000000  0.4241770000000 1.0
C      1  0.5191480000000  0.4438250000000  0.5201570000000 1.0
C      1  0.4174370000000  0.4917970000000  0.5240120000000 1.0
C      1  0.4588870000000  0.5269730000000  0.4277690000000 1.0
C      1  0.4952970000000  0.4252410000000  0.4919230000000 1.0
C      1  0.4456140000000  0.4557570000000  0.5142670000000 1.0
C      1  0.5290650000000  0.4952560000000  0.4321090000000 1.0
C      1  0.5475300000000  0.4802310000000  0.4427280000000 1.0
C      1  0.5239220000000  0.4331120000000  0.4970300000000 1.0
C      1  0.4327720000000  0.5240120000000  0.4948130000000 1.0
C      1  0.5768470000000  0.5345850000000  0.4835690000000 1.0
C      1  0.4500010000000  0.5217820000000  0.5446150000000 1.0
C      1  0.4742040000000  0.5330570000000  0.5337130000000 1.0
C      1  0.4775520000000  0.4401920000000  0.5402700000000 1.0
C      1  0.4408380000000  0.5068830000000  0.4724740000000 1.0
C      1  0.5036980000000  0.5756330000000  0.4853660000000 1.0
C      1  0.5404490000000  0.4759250000000  0.4921560000000 1.0
C      1  0.4830880000000  0.5316590000000  0.4808160000000 1.0
C      1  0.4607310000000  0.4819370000000  0.4453590000000 1.0
C      1  0.5339130000000  0.5167100000000  0.5726870000000 1.0
C      1  0.4821440000000  0.4875760000000  0.5255690000000 1.0
C      1  0.5213320000000  0.5078790000000  0.4780020000000 1.0
C      1  0.5502330000000  0.5332980000000  0.5534760000000 1.0
C      1  0.5010570000000  0.4585520000000  0.4601020000000 1.0
C      1  0.4735870000000  0.4735420000000  0.5040720000000 1.0
C      1  0.4524520000000  0.4539690000000  0.5430390000000 1.0
C      1  0.5463390000000  0.4693230000000  0.5531960000000 1.0
C      1  0.5102870000000  0.4987080000000  0.5319680000000 1.0
C      1  0.5664570000000  0.5007910000000  0.4624900000000 1.0
C      1  0.5312930000000  0.5148050000000  0.5180180000000 1.0
C      1  0.5799610000000  0.5185390000000  0.5068770000000 1.0
END
