TITL C-884137-4758-271 -7.9851143159168 125000 -16760.1541147884 0 0 111 (C1) n - 1
REM
REM in /home/nfs/bkarasulu/CARBON/AIRSS/Generating-Clusters/ReaxFF-fromJPCA2015/Units_Real/with-SteepDescent/Only-C1/SD-CG/Try1-3A/FIRE-CG
REM
REM
REM
REM
REM
REM ./C.cell (11c1c37f851c82e70ff6c80c92926a4b)
REM
REM compiler GCC version 9.2.1 20190827 (Red Hat 9.2.1-1)
REM options -cpp -mtune=generic -march=x86-64 -g -O0 -fpre-include=/usr/include/finclude/math-vector-fortran.h
REM seed 796872056 -1646634737 389064775 -1965542815 25163461 -1048775585 -1251333130 -527263147 -226452462 -1953623646 -1292095711 1528642619 -1584212119 2099311377 -844331639 1992823996 -920698057 -1137948137 -832444893 2124983536 -562141750 1527460716 -1482558477 -533312473 1894761034 -2144587117 -1867312769 -1277203902 -1861943578 1488889794 423370535 -814157754 220523470
REM
CELL 1.54180   50.00000   50.00000   50.00000   90.00000   90.00000   90.00000
LATT -1
SFAC C  
C      1  0.5005080000000  0.5363590000000  0.5589080000000 1.0
C      1  0.5275440000000  0.4971720000000  0.5031170000000 1.0
C      1  0.4515810000000  0.5149330000000  0.5151120000000 1.0
C      1  0.5498500000000  0.4915170000000  0.5162010000000 1.0
C      1  0.4302320000000  0.4555110000000  0.4522540000000 1.0
C      1  0.4402750000000  0.5432460000000  0.5179750000000 1.0
C      1  0.5874440000000  0.5324950000000  0.5076880000000 1.0
C      1  0.4507660000000  0.4988510000000  0.5994450000000 1.0
C      1  0.5289820000000  0.4572680000000  0.4257070000000 1.0
C      1  0.5862450000000  0.4810840000000  0.4904670000000 1.0
C      1  0.5782670000000  0.5580240000000  0.4954880000000 1.0
C      1  0.5403820000000  0.5416480000000  0.5215150000000 1.0
C      1  0.5539340000000  0.5181240000000  0.5233950000000 1.0
C      1  0.4634820000000  0.4923370000000  0.4702000000000 1.0
C      1  0.5279040000000  0.5156240000000  0.4849740000000 1.0
C      1  0.4514530000000  0.5463970000000  0.4450920000000 1.0
C      1  0.4811160000000  0.4285760000000  0.4348630000000 1.0
C      1  0.4323470000000  0.4476010000000  0.5053910000000 1.0
C      1  0.4350340000000  0.5085280000000  0.5768040000000 1.0
C      1  0.4481810000000  0.4418800000000  0.4786100000000 1.0
C      1  0.4880850000000  0.5787400000000  0.5237110000000 1.0
C      1  0.4489140000000  0.5238020000000  0.4251610000000 1.0
C      1  0.5136790000000  0.5460250000000  0.5133280000000 1.0
C      1  0.4827700000000  0.4183000000000  0.5079140000000 1.0
C      1  0.5170800000000  0.4548200000000  0.5610760000000 1.0
C      1  0.5294080000000  0.4413130000000  0.4546120000000 1.0
C      1  0.4382360000000  0.5010950000000  0.4605890000000 1.0
C      1  0.5266540000000  0.5793430000000  0.4810700000000 1.0
C      1  0.5283490000000  0.5487380000000  0.5663230000000 1.0
C      1  0.4800840000000  0.4442560000000  0.4128770000000 1.0
C      1  0.5129010000000  0.4173400000000  0.4666220000000 1.0
C      1  0.5631870000000  0.4240680000000  0.4834400000000 1.0
C      1  0.4139240000000  0.4646030000000  0.4726220000000 1.0
C      1  0.5362630000000  0.5876160000000  0.5067980000000 1.0
C      1  0.4937460000000  0.5359670000000  0.5296840000000 1.0
C      1  0.5827760000000  0.4678720000000  0.5165530000000 1.0
C      1  0.5280380000000  0.4521500000000  0.5328500000000 1.0
C      1  0.4798550000000  0.5149230000000  0.5156740000000 1.0
C      1  0.5086040000000  0.4096450000000  0.4943220000000 1.0
C      1  0.4989620000000  0.5256380000000  0.4193340000000 1.0
C      1  0.5441460000000  0.5722960000000  0.4589480000000 1.0
C      1  0.5597810000000  0.4924860000000  0.4490210000000 1.0
C      1  0.4525870000000  0.4719160000000  0.5874130000000 1.0
C      1  0.4808010000000  0.5586870000000  0.5715380000000 1.0
C      1  0.4752890000000  0.4325430000000  0.5335890000000 1.0
C      1  0.5710990000000  0.4707310000000  0.4663110000000 1.0
C      1  0.5042330000000  0.5564710000000  0.4860700000000 1.0
C      1  0.4362860000000  0.4813680000000  0.5644800000000 1.0
C      1  0.5232420000000  0.5601530000000  0.4450070000000 1.0
C      1  0.5437570000000  0.5260000000000  0.5750120000000 1.0
C      1  0.5370540000000  0.4844720000000  0.4225930000000 1.0
C      1  0.5235230000000  0.5039620000000  0.5864400000000 1.0
C      1  0.4791190000000  0.5718470000000  0.4957430000000 1.0
C      1  0.5342660000000  0.5048050000000  0.4586540000000 1.0
C      1  0.5334410000000  0.5721040000000  0.5502720000000 1.0
C      1  0.5833950000000  0.5400770000000  0.4487900000000 1.0
C      1  0.4867750000000  0.4865290000000  0.5621110000000 1.0
C      1  0.5078670000000  0.4567730000000  0.4067120000000 1.0
C      1  0.5330760000000  0.4014190000000  0.5118380000000 1.0
C      1  0.4792990000000  0.4625340000000  0.5780350000000 1.0
C      1  0.4355740000000  0.5537470000000  0.4699720000000 1.0
C      1  0.5320060000000  0.4772540000000  0.5739590000000 1.0
C      1  0.4248310000000  0.5024520000000  0.5055400000000 1.0
C      1  0.4707430000000  0.5703170000000  0.5467690000000 1.0
C      1  0.5037500000000  0.5277550000000  0.4745640000000 1.0
C      1  0.5584530000000  0.4084200000000  0.4999440000000 1.0
C      1  0.4168500000000  0.4710980000000  0.4999100000000 1.0
C      1  0.5164120000000  0.5843670000000  0.5289770000000 1.0
C      1  0.5022810000000  0.4959720000000  0.5087240000000 1.0
C      1  0.4781650000000  0.4788540000000  0.5359840000000 1.0
C      1  0.4534800000000  0.5600420000000  0.4914740000000 1.0
C      1  0.5012930000000  0.5092310000000  0.5696290000000 1.0
C      1  0.4882130000000  0.5066200000000  0.4624520000000 1.0
C      1  0.4471550000000  0.5534660000000  0.5463280000000 1.0
C      1  0.5593760000000  0.4445410000000  0.4652150000000 1.0
C      1  0.5009180000000  0.5105640000000  0.6101490000000 1.0
C      1  0.5717890000000  0.5605660000000  0.4669350000000 1.0
C      1  0.4747430000000  0.5559400000000  0.4567970000000 1.0
C      1  0.4600620000000  0.4668020000000  0.4106850000000 1.0
C      1  0.4896000000000  0.4435470000000  0.5579980000000 1.0
C      1  0.4681770000000  0.4194950000000  0.4833730000000 1.0
C      1  0.5564940000000  0.4860310000000  0.5618540000000 1.0
C      1  0.4437150000000  0.5367420000000  0.5701930000000 1.0
C      1  0.4981220000000  0.5498330000000  0.4388890000000 1.0
C      1  0.5101400000000  0.4888300000000  0.4553940000000 1.0
C      1  0.5184900000000  0.5048640000000  0.4115620000000 1.0
C      1  0.4994990000000  0.4678130000000  0.5176550000000 1.0
C      1  0.4342910000000  0.5004250000000  0.4334050000000 1.0
C      1  0.4729080000000  0.5168470000000  0.4105070000000 1.0
C      1  0.4501970000000  0.4720300000000  0.5400250000000 1.0
C      1  0.5785890000000  0.5277860000000  0.5362450000000 1.0
C      1  0.5823490000000  0.5120620000000  0.4596150000000 1.0
C      1  0.4141430000000  0.5365950000000  0.4817760000000 1.0
C      1  0.5334180000000  0.4247800000000  0.5268090000000 1.0
C      1  0.4744570000000  0.4892250000000  0.3994810000000 1.0
C      1  0.4738610000000  0.5184240000000  0.6056270000000 1.0
C      1  0.5120980000000  0.4624380000000  0.4676140000000 1.0
C      1  0.4186700000000  0.5084380000000  0.4770870000000 1.0
C      1  0.5894830000000  0.5110200000000  0.4881030000000 1.0
C      1  0.4848570000000  0.4136560000000  0.4582870000000 1.0
C      1  0.4646540000000  0.5431000000000  0.5892000000000 1.0
C      1  0.5033440000000  0.4841720000000  0.3967180000000 1.0
C      1  0.5573200000000  0.5617120000000  0.5360300000000 1.0
C      1  0.5579570000000  0.4694310000000  0.5352810000000 1.0
C      1  0.4935400000000  0.4580630000000  0.4895640000000 1.0
C      1  0.4488570000000  0.4445170000000  0.5296010000000 1.0
C      1  0.4134470000000  0.5310830000000  0.5102910000000 1.0
C      1  0.4676080000000  0.4658940000000  0.4794560000000 1.0
C      1  0.4381290000000  0.4714790000000  0.4290400000000 1.0
C      1  0.5659780000000  0.5139900000000  0.5610010000000 1.0
C      1  0.5634320000000  0.5770680000000  0.5119700000000 1.0
END
