TITL C-884128-4793-371 58.4605791120697 125000 -30022.0550917827 0 0 200 (C1) n - 1
REM
REM in /home/nfs/bkarasulu/CARBON/AIRSS/Generating-Clusters/ReaxFF-fromJPCA2015/Units_Real/with-SteepDescent/Only-C1/SD-CG/Try1-3A/FIRE-CG
REM
REM
REM
REM
REM
REM ./C.cell (11c1c37f851c82e70ff6c80c92926a4b)
REM
REM compiler GCC version 9.2.1 20190827 (Red Hat 9.2.1-1)
REM options -cpp -mtune=generic -march=x86-64 -g -O0 -fpre-include=/usr/include/finclude/math-vector-fortran.h
REM seed -503317593 -388921512 569967997 -449191667 -57677988 -597201673 1807000354 -29332647 1078760041 -1898045539 760895543 988304065 -1542166910 1247869966 -867604864 -587604708 -1867921101 -734337632 -1813900989 196776478 -1970883408 1233982068 -2079148275 1156073036 1128488806 271562435 1038192417 -1814564985 -1695093785 529905635 -1925264334 546239054 -1955338415
REM
CELL 1.54180   50.00000   50.00000   50.00000   90.00000   90.00000   90.00000
LATT -1
SFAC C  
C      1  0.4941110000000  0.3821280000000  0.4778090000000 1.0
C      1  0.4728620000000  0.4790600000000  0.4381670000000 1.0
C      1  0.4362290000000  0.5388660000000  0.4546380000000 1.0
C      1  0.6009000000000  0.4863150000000  0.5377970000000 1.0
C      1  0.4512180000000  0.5863490000000  0.5584800000000 1.0
C      1  0.4865730000000  0.5216120000000  0.5627310000000 1.0
C      1  0.5675660000000  0.5640280000000  0.4233800000000 1.0
C      1  0.5114340000000  0.5620780000000  0.5856290000000 1.0
C      1  0.4551770000000  0.5174390000000  0.4601950000000 1.0
C      1  0.4994260000000  0.4358820000000  0.4019560000000 1.0
C      1  0.4234460000000  0.4651870000000  0.5755290000000 1.0
C      1  0.4115970000000  0.5562770000000  0.5532910000000 1.0
C      1  0.5256160000000  0.3954550000000  0.5406260000000 1.0
C      1  0.5080680000000  0.5172850000000  0.6128010000000 1.0
C      1  0.3853240000000  0.5100350000000  0.4983890000000 1.0
C      1  0.3951100000000  0.5417600000000  0.4564330000000 1.0
C      1  0.5528660000000  0.5429010000000  0.5976150000000 1.0
C      1  0.5965650000000  0.4395160000000  0.4820090000000 1.0
C      1  0.4938390000000  0.4233150000000  0.5138990000000 1.0
C      1  0.5179320000000  0.4989330000000  0.4711130000000 1.0
C      1  0.5432050000000  0.4022520000000  0.4807370000000 1.0
C      1  0.4435540000000  0.4951830000000  0.4734350000000 1.0
C      1  0.5910610000000  0.4874170000000  0.4494110000000 1.0
C      1  0.4742500000000  0.4732060000000  0.3818410000000 1.0
C      1  0.5653810000000  0.4413890000000  0.5780580000000 1.0
C      1  0.5454070000000  0.5933210000000  0.4562650000000 1.0
C      1  0.4427030000000  0.5314520000000  0.5445640000000 1.0
C      1  0.4458820000000  0.5515040000000  0.4106980000000 1.0
C      1  0.4098230000000  0.4924400000000  0.4425470000000 1.0
C      1  0.6049330000000  0.4607370000000  0.5240300000000 1.0
C      1  0.4447930000000  0.5681060000000  0.4366090000000 1.0
C      1  0.4276580000000  0.4244780000000  0.5360120000000 1.0
C      1  0.5009300000000  0.5250580000000  0.5088930000000 1.0
C      1  0.5513450000000  0.5226020000000  0.5211400000000 1.0
C      1  0.4970730000000  0.4627920000000  0.6086480000000 1.0
C      1  0.5221160000000  0.5782110000000  0.4459420000000 1.0
C      1  0.4586450000000  0.4068110000000  0.4575960000000 1.0
C      1  0.5251830000000  0.5400360000000  0.6051560000000 1.0
C      1  0.5120140000000  0.4889950000000  0.6070060000000 1.0
C      1  0.4701250000000  0.4556330000000  0.6007270000000 1.0
C      1  0.4983050000000  0.5422640000000  0.4593130000000 1.0
C      1  0.4223730000000  0.4700210000000  0.4295490000000 1.0
C      1  0.5448180000000  0.5588180000000  0.4094170000000 1.0
C      1  0.6065340000000  0.4655990000000  0.4955220000000 1.0
C      1  0.5202800000000  0.5524870000000  0.3973880000000 1.0
C      1  0.5693750000000  0.5862070000000  0.4421050000000 1.0
C      1  0.4928250000000  0.4991300000000  0.4326700000000 1.0
C      1  0.4267500000000  0.5492230000000  0.4788870000000 1.0
C      1  0.5216610000000  0.3842630000000  0.4888350000000 1.0
C      1  0.5057940000000  0.4397770000000  0.4509870000000 1.0
C      1  0.4822120000000  0.5215150000000  0.4484870000000 1.0
C      1  0.4044530000000  0.5741710000000  0.5029070000000 1.0
C      1  0.6087890000000  0.4943790000000  0.4929720000000 1.0
C      1  0.4652650000000  0.5348540000000  0.6312150000000 1.0
C      1  0.5572290000000  0.4631650000000  0.4649600000000 1.0
C      1  0.4177690000000  0.4807970000000  0.4694930000000 1.0
C      1  0.4682260000000  0.5517410000000  0.4966080000000 1.0
C      1  0.5470640000000  0.5958570000000  0.4861310000000 1.0
C      1  0.5284650000000  0.5009840000000  0.3977430000000 1.0
C      1  0.4589020000000  0.4692750000000  0.5363760000000 1.0
C      1  0.4030700000000  0.4275990000000  0.4969860000000 1.0
C      1  0.4717400000000  0.3869940000000  0.4963530000000 1.0
C      1  0.4771320000000  0.5168330000000  0.6173840000000 1.0
C      1  0.5095150000000  0.4062020000000  0.5626800000000 1.0
C      1  0.4689910000000  0.5268380000000  0.5352030000000 1.0
C      1  0.5254450000000  0.5594440000000  0.5363410000000 1.0
C      1  0.5899430000000  0.4482210000000  0.5904890000000 1.0
C      1  0.5642680000000  0.4396450000000  0.5462970000000 1.0
C      1  0.4693330000000  0.5869080000000  0.4420590000000 1.0
C      1  0.4682500000000  0.6098890000000  0.4893700000000 1.0
C      1  0.4978680000000  0.5051980000000  0.4889310000000 1.0
C      1  0.4952330000000  0.5988770000000  0.5416640000000 1.0
C      1  0.5798240000000  0.4980320000000  0.5831640000000 1.0
C      1  0.5262620000000  0.5497490000000  0.4518200000000 1.0
C      1  0.5618110000000  0.4891290000000  0.4542860000000 1.0
C      1  0.4599590000000  0.4969720000000  0.5980610000000 1.0
C      1  0.5169470000000  0.4870910000000  0.4439770000000 1.0
C      1  0.4895060000000  0.3943670000000  0.5190460000000 1.0
C      1  0.5502000000000  0.5348730000000  0.4565890000000 1.0
C      1  0.4821340000000  0.4766780000000  0.4665030000000 1.0
C      1  0.4736930000000  0.4719100000000  0.5599630000000 1.0
C      1  0.5459340000000  0.4547230000000  0.4918560000000 1.0
C      1  0.5274840000000  0.4292470000000  0.4087690000000 1.0
C      1  0.5334050000000  0.4116000000000  0.4314000000000 1.0
C      1  0.5032860000000  0.5796340000000  0.4933500000000 1.0
C      1  0.3895570000000  0.5259670000000  0.4768210000000 1.0
C      1  0.5450510000000  0.4526250000000  0.3998430000000 1.0
C      1  0.4780450000000  0.4459560000000  0.5713920000000 1.0
C      1  0.5209400000000  0.4589780000000  0.5423750000000 1.0
C      1  0.4459720000000  0.4711930000000  0.5966690000000 1.0
C      1  0.4291500000000  0.4516710000000  0.4691680000000 1.0
C      1  0.4156470000000  0.4806920000000  0.5180920000000 1.0
C      1  0.4949300000000  0.4513610000000  0.4762450000000 1.0
C      1  0.5240270000000  0.4590110000000  0.4394810000000 1.0
C      1  0.5105120000000  0.5940600000000  0.5889690000000 1.0
C      1  0.5423450000000  0.4558270000000  0.5904860000000 1.0
C      1  0.5629480000000  0.5157500000000  0.5483610000000 1.0
C      1  0.4253590000000  0.5805020000000  0.5464180000000 1.0
C      1  0.4824350000000  0.5464140000000  0.5183220000000 1.0
C      1  0.4539390000000  0.6050110000000  0.5134980000000 1.0
C      1  0.4859210000000  0.3879980000000  0.5724100000000 1.0
C      1  0.5058510000000  0.4117880000000  0.4410020000000 1.0
C      1  0.4397140000000  0.4122450000000  0.5614620000000 1.0
C      1  0.4619060000000  0.4518530000000  0.3953000000000 1.0
C      1  0.5856240000000  0.4839060000000  0.4204350000000 1.0
C      1  0.5425930000000  0.4188330000000  0.5303710000000 1.0
C      1  0.4701130000000  0.4317090000000  0.4119560000000 1.0
C      1  0.6025680000000  0.5584240000000  0.4744960000000 1.0
C      1  0.4632820000000  0.4288080000000  0.5547440000000 1.0
C      1  0.4952870000000  0.5660360000000  0.4076510000000 1.0
C      1  0.5171890000000  0.4340090000000  0.5275360000000 1.0
C      1  0.4850780000000  0.3947610000000  0.4536340000000 1.0
C      1  0.5640040000000  0.5606310000000  0.5714610000000 1.0
C      1  0.4866680000000  0.5606460000000  0.4783960000000 1.0
C      1  0.4156620000000  0.4915310000000  0.5733640000000 1.0
C      1  0.5806560000000  0.5391850000000  0.5526430000000 1.0
C      1  0.5143200000000  0.6060840000000  0.5633090000000 1.0
C      1  0.5484010000000  0.5092460000000  0.4728780000000 1.0
C      1  0.4789290000000  0.4793660000000  0.5167540000000 1.0
C      1  0.4745170000000  0.4961630000000  0.5745700000000 1.0
C      1  0.5154410000000  0.3807940000000  0.5174750000000 1.0
C      1  0.4539270000000  0.4492170000000  0.4834710000000 1.0
C      1  0.4192430000000  0.5160030000000  0.5385820000000 1.0
C      1  0.4274610000000  0.4133570000000  0.5036030000000 1.0
C      1  0.5840550000000  0.4245980000000  0.5041260000000 1.0
C      1  0.4836970000000  0.5250950000000  0.3868280000000 1.0
C      1  0.5143600000000  0.5223750000000  0.5585050000000 1.0
C      1  0.6077660000000  0.5995890000000  0.4756910000000 1.0
C      1  0.4614100000000  0.4766100000000  0.4834770000000 1.0
C      1  0.5215640000000  0.5294210000000  0.5302620000000 1.0
C      1  0.5155750000000  0.4592710000000  0.4954260000000 1.0
C      1  0.5344540000000  0.5621540000000  0.5632870000000 1.0
C      1  0.5268810000000  0.6138120000000  0.4988930000000 1.0
C      1  0.4365480000000  0.5461210000000  0.5676860000000 1.0
C      1  0.4300950000000  0.5849000000000  0.4565520000000 1.0
C      1  0.5677050000000  0.4600550000000  0.4163420000000 1.0
C      1  0.4075250000000  0.5685660000000  0.4723210000000 1.0
C      1  0.4666450000000  0.6036860000000  0.5396130000000 1.0
C      1  0.4488270000000  0.4022320000000  0.4861440000000 1.0
C      1  0.4474880000000  0.4838210000000  0.4239610000000 1.0
C      1  0.5749020000000  0.5365560000000  0.4397250000000 1.0
C      1  0.5753090000000  0.4902850000000  0.5535210000000 1.0
C      1  0.5310080000000  0.4822760000000  0.5860080000000 1.0
C      1  0.5161180000000  0.4439570000000  0.5957480000000 1.0
C      1  0.4610430000000  0.5629190000000  0.5728240000000 1.0
C      1  0.5448460000000  0.6079250000000  0.5518900000000 1.0
C      1  0.5993330000000  0.5343970000000  0.4589500000000 1.0
C      1  0.5089230000000  0.4354460000000  0.5678830000000 1.0
C      1  0.5964660000000  0.5844600000000  0.4576740000000 1.0
C      1  0.4297960000000  0.5847160000000  0.5149330000000 1.0
C      1  0.5581510000000  0.5151740000000  0.5936960000000 1.0
C      1  0.4410660000000  0.4913730000000  0.5252200000000 1.0
C      1  0.6082830000000  0.5073760000000  0.5201200000000 1.0
C      1  0.6053120000000  0.5070320000000  0.4664420000000 1.0
C      1  0.5364640000000  0.6108930000000  0.5251860000000 1.0
C      1  0.5123520000000  0.5247840000000  0.3899390000000 1.0
C      1  0.4544700000000  0.5990050000000  0.4639470000000 1.0
C      1  0.5889450000000  0.4726920000000  0.5905370000000 1.0
C      1  0.4866150000000  0.5495240000000  0.5739520000000 1.0
C      1  0.5272560000000  0.4725930000000  0.3884310000000 1.0
C      1  0.5588960000000  0.5734650000000  0.5015000000000 1.0
C      1  0.5845770000000  0.5587820000000  0.4979960000000 1.0
C      1  0.5071490000000  0.4725900000000  0.5194050000000 1.0
C      1  0.5527560000000  0.4497720000000  0.4400180000000 1.0
C      1  0.5373940000000  0.5080580000000  0.5709000000000 1.0
C      1  0.5790540000000  0.4273580000000  0.4620940000000 1.0
C      1  0.4424200000000  0.5587750000000  0.4992490000000 1.0
C      1  0.4156550000000  0.4460560000000  0.5528760000000 1.0
C      1  0.3969070000000  0.4805630000000  0.4954460000000 1.0
C      1  0.5891320000000  0.4367640000000  0.5298230000000 1.0
C      1  0.5598360000000  0.5441010000000  0.5008880000000 1.0
C      1  0.5525000000000  0.4674930000000  0.5394470000000 1.0
C      1  0.5653660000000  0.5907180000000  0.5639030000000 1.0
C      1  0.6018450000000  0.5342930000000  0.5340370000000 1.0
C      1  0.5489880000000  0.5019010000000  0.4178500000000 1.0
C      1  0.5011470000000  0.4596590000000  0.3849490000000 1.0
C      1  0.4524710000000  0.4253070000000  0.4362490000000 1.0
C      1  0.5031190000000  0.5748300000000  0.5249150000000 1.0
C      1  0.4689890000000  0.4357990000000  0.5043750000000 1.0
C      1  0.4122480000000  0.5227900000000  0.4376420000000 1.0
C      1  0.3960060000000  0.5264300000000  0.5197370000000 1.0
C      1  0.4977970000000  0.6071810000000  0.4890720000000 1.0
C      1  0.4726310000000  0.5500250000000  0.3990920000000 1.0
C      1  0.4097380000000  0.5170120000000  0.5664360000000 1.0
C      1  0.4653240000000  0.5053110000000  0.5136630000000 1.0
C      1  0.5555750000000  0.5026800000000  0.5020260000000 1.0
C      1  0.4300870000000  0.4434510000000  0.4420880000000 1.0
C      1  0.4547630000000  0.4399280000000  0.5303630000000 1.0
C      1  0.4434220000000  0.5046780000000  0.4026460000000 1.0
C      1  0.3991910000000  0.5545970000000  0.5245820000000 1.0
C      1  0.4662900000000  0.5017930000000  0.3849170000000 1.0
C      1  0.5537790000000  0.4213390000000  0.5010140000000 1.0
C      1  0.5753050000000  0.5118510000000  0.4186730000000 1.0
C      1  0.5539630000000  0.4121980000000  0.4547310000000 1.0
C      1  0.4012530000000  0.4599260000000  0.5316780000000 1.0
C      1  0.4583130000000  0.3922180000000  0.5691750000000 1.0
C      1  0.4964430000000  0.5830570000000  0.4313100000000 1.0
C      1  0.3888000000000  0.4524750000000  0.5061860000000 1.0
C      1  0.4293750000000  0.5282450000000  0.4122740000000 1.0
C      1  0.5547680000000  0.4760100000000  0.5114800000000 1.0
END
