TITL C-883728-9229-240 18.6437128025601 125000 -22002.7396602863 0 0 149 (C1) n - 1
REM
REM in /home/nfs/bkarasulu/CARBON/AIRSS/Generating-Clusters/ReaxFF-fromJPCA2015/Units_Real/with-SteepDescent/Only-C1/SD-CG/Try1-3A/FIRE-CG
REM
REM
REM
REM
REM
REM ./C.cell (11c1c37f851c82e70ff6c80c92926a4b)
REM
REM compiler GCC version 9.2.1 20190827 (Red Hat 9.2.1-1)
REM options -cpp -mtune=generic -march=x86-64 -g -O0 -fpre-include=/usr/include/finclude/math-vector-fortran.h
REM seed -358393997 -483302173 -279073008 -2144371700 721688321 1769381925 767790645 -636625961 2010562429 1771217208 832485483 -978267096 -2050313749 1655031299 832830852 464747784 -629199350 -1461410558 -2089682977 240324426 1279759704 1893579804 274755751 -447587269 -1376568993 2017768713 -210694209 1414055456 -2088832413 -1516038559 1363477203 987979415 -170320280
REM
CELL 1.54180   50.00000   50.00000   50.00000   90.00000   90.00000   90.00000
LATT -1
SFAC C  
C      1  0.5713890000000  0.5520540000000  0.5233030000000 1.0
C      1  0.5443020000000  0.5194400000000  0.4538300000000 1.0
C      1  0.5786790000000  0.5338560000000  0.4371910000000 1.0
C      1  0.5161240000000  0.5225520000000  0.4509000000000 1.0
C      1  0.4958280000000  0.4235810000000  0.4630840000000 1.0
C      1  0.4775940000000  0.4361360000000  0.4409520000000 1.0
C      1  0.5592180000000  0.4573920000000  0.5555360000000 1.0
C      1  0.4791240000000  0.4140290000000  0.4920870000000 1.0
C      1  0.4793890000000  0.5376800000000  0.4189140000000 1.0
C      1  0.5331500000000  0.4185820000000  0.4261110000000 1.0
C      1  0.4223100000000  0.5027200000000  0.5758620000000 1.0
C      1  0.4039480000000  0.4800010000000  0.4948560000000 1.0
C      1  0.5311680000000  0.5304810000000  0.4066660000000 1.0
C      1  0.4882010000000  0.3925710000000  0.5245710000000 1.0
C      1  0.5479590000000  0.4922370000000  0.4639940000000 1.0
C      1  0.5872310000000  0.4599160000000  0.4616730000000 1.0
C      1  0.4751460000000  0.5685170000000  0.5393700000000 1.0
C      1  0.4889840000000  0.4697960000000  0.5478070000000 1.0
C      1  0.4691120000000  0.4996920000000  0.6011340000000 1.0
C      1  0.5062020000000  0.3922130000000  0.5492870000000 1.0
C      1  0.5724580000000  0.4385100000000  0.4488620000000 1.0
C      1  0.4403620000000  0.4230490000000  0.4668800000000 1.0
C      1  0.4641330000000  0.5280220000000  0.6061390000000 1.0
C      1  0.5795750000000  0.4878800000000  0.4528860000000 1.0
C      1  0.4665560000000  0.4027460000000  0.5427120000000 1.0
C      1  0.5261920000000  0.4947710000000  0.5494280000000 1.0
C      1  0.5430370000000  0.5857100000000  0.4630690000000 1.0
C      1  0.5353420000000  0.5180980000000  0.5477540000000 1.0
C      1  0.4409170000000  0.5238220000000  0.5651660000000 1.0
C      1  0.5069290000000  0.5457910000000  0.4098640000000 1.0
C      1  0.5150190000000  0.4452040000000  0.4617110000000 1.0
C      1  0.4634280000000  0.4824970000000  0.4163700000000 1.0
C      1  0.5428630000000  0.4432720000000  0.5046540000000 1.0
C      1  0.5156110000000  0.5702720000000  0.4237410000000 1.0
C      1  0.4692980000000  0.5560550000000  0.4392830000000 1.0
C      1  0.4771420000000  0.5511650000000  0.5956550000000 1.0
C      1  0.4162640000000  0.4702190000000  0.5401060000000 1.0
C      1  0.5651430000000  0.5225510000000  0.5345050000000 1.0
C      1  0.4000980000000  0.5175630000000  0.5340740000000 1.0
C      1  0.5125230000000  0.4480340000000  0.5824070000000 1.0
C      1  0.4652940000000  0.6011790000000  0.4775570000000 1.0
C      1  0.4856710000000  0.4076360000000  0.5639330000000 1.0
C      1  0.4448300000000  0.4872550000000  0.5010090000000 1.0
C      1  0.4905390000000  0.4913550000000  0.4772170000000 1.0
C      1  0.4145030000000  0.5527490000000  0.4874910000000 1.0
C      1  0.4933880000000  0.5922600000000  0.5448100000000 1.0
C      1  0.4811720000000  0.4596430000000  0.5135640000000 1.0
C      1  0.4704580000000  0.4537640000000  0.5663890000000 1.0
C      1  0.4081050000000  0.4908090000000  0.4674520000000 1.0
C      1  0.5394370000000  0.5699770000000  0.4387950000000 1.0
C      1  0.4165230000000  0.5476280000000  0.4586110000000 1.0
C      1  0.5686420000000  0.5260830000000  0.5933200000000 1.0
C      1  0.5692700000000  0.4357580000000  0.4952570000000 1.0
C      1  0.4497590000000  0.4156750000000  0.4932550000000 1.0
C      1  0.4542380000000  0.4614300000000  0.4966040000000 1.0
C      1  0.4537990000000  0.5768810000000  0.5208290000000 1.0
C      1  0.5223050000000  0.5032700000000  0.4062600000000 1.0
C      1  0.5218370000000  0.4249660000000  0.5122050000000 1.0
C      1  0.5914780000000  0.4545450000000  0.4898600000000 1.0
C      1  0.5155940000000  0.5220450000000  0.5979630000000 1.0
C      1  0.4441690000000  0.4925440000000  0.5906170000000 1.0
C      1  0.5173680000000  0.3981400000000  0.5230970000000 1.0
C      1  0.5302090000000  0.4711470000000  0.5061550000000 1.0
C      1  0.5765300000000  0.4766390000000  0.4020320000000 1.0
C      1  0.4051880000000  0.4944830000000  0.5529650000000 1.0
C      1  0.5061620000000  0.5489950000000  0.5933090000000 1.0
C      1  0.5017800000000  0.4957550000000  0.5581670000000 1.0
C      1  0.5547030000000  0.4586020000000  0.4025140000000 1.0
C      1  0.4529170000000  0.5409520000000  0.5849710000000 1.0
C      1  0.4394590000000  0.4517420000000  0.4734610000000 1.0
C      1  0.5207110000000  0.4059750000000  0.4502150000000 1.0
C      1  0.5788680000000  0.4837130000000  0.5165180000000 1.0
C      1  0.5663500000000  0.4196970000000  0.4704700000000 1.0
C      1  0.4344110000000  0.5314930000000  0.4907240000000 1.0
C      1  0.5440860000000  0.3997040000000  0.4674030000000 1.0
C      1  0.5170860000000  0.5898250000000  0.5620920000000 1.0
C      1  0.5637570000000  0.5056670000000  0.5111610000000 1.0
C      1  0.4312700000000  0.4329340000000  0.4204700000000 1.0
C      1  0.4537760000000  0.4416000000000  0.5559730000000 1.0
C      1  0.5406970000000  0.4985450000000  0.4954740000000 1.0
C      1  0.4969580000000  0.5673580000000  0.4770010000000 1.0
C      1  0.5163860000000  0.5216740000000  0.5006200000000 1.0
C      1  0.4930770000000  0.5942650000000  0.4643810000000 1.0
C      1  0.5226910000000  0.5712840000000  0.5828790000000 1.0
C      1  0.4931140000000  0.4323330000000  0.5091720000000 1.0
C      1  0.5215040000000  0.5997060000000  0.5028060000000 1.0
C      1  0.4609800000000  0.4984000000000  0.4779500000000 1.0
C      1  0.5011240000000  0.5220800000000  0.4755180000000 1.0
C      1  0.4214960000000  0.5048910000000  0.4295040000000 1.0
C      1  0.5752190000000  0.4553880000000  0.5717810000000 1.0
C      1  0.5351430000000  0.4673760000000  0.5408860000000 1.0
C      1  0.5001370000000  0.4803910000000  0.4460530000000 1.0
C      1  0.4182450000000  0.4658830000000  0.4571600000000 1.0
C      1  0.4566360000000  0.5047040000000  0.4510640000000 1.0
C      1  0.5611940000000  0.5807820000000  0.4863320000000 1.0
C      1  0.4534970000000  0.5056630000000  0.5458870000000 1.0
C      1  0.5269720000000  0.4694250000000  0.4553220000000 1.0
C      1  0.4516520000000  0.5326080000000  0.5130200000000 1.0
C      1  0.6031970000000  0.4743060000000  0.5079790000000 1.0
C      1  0.4681930000000  0.5983290000000  0.5069080000000 1.0
C      1  0.4943440000000  0.6037290000000  0.5186990000000 1.0
C      1  0.5014130000000  0.4749940000000  0.4991830000000 1.0
C      1  0.5826290000000  0.5047920000000  0.5780830000000 1.0
C      1  0.4392630000000  0.5638650000000  0.4482310000000 1.0
C      1  0.5588880000000  0.5752310000000  0.5334450000000 1.0
C      1  0.5511380000000  0.5914470000000  0.5105850000000 1.0
C      1  0.5209600000000  0.6021460000000  0.4730390000000 1.0
C      1  0.4517210000000  0.4218890000000  0.4393770000000 1.0
C      1  0.5549110000000  0.4385310000000  0.4245050000000 1.0
C      1  0.5776830000000  0.5565220000000  0.4950170000000 1.0
C      1  0.4203470000000  0.4597440000000  0.4278380000000 1.0
C      1  0.4401190000000  0.4852190000000  0.5303990000000 1.0
C      1  0.4813110000000  0.5451610000000  0.4702130000000 1.0
C      1  0.5516230000000  0.5414590000000  0.4294400000000 1.0
C      1  0.4879270000000  0.5823970000000  0.4338150000000 1.0
C      1  0.3995470000000  0.5002870000000  0.5120960000000 1.0
C      1  0.5127800000000  0.4533070000000  0.5538210000000 1.0
C      1  0.4927970000000  0.5452890000000  0.5394910000000 1.0
C      1  0.5151270000000  0.5681740000000  0.4971540000000 1.0
C      1  0.5177380000000  0.4728710000000  0.5966220000000 1.0
C      1  0.5263280000000  0.5457890000000  0.5109210000000 1.0
C      1  0.4947320000000  0.5225580000000  0.5219230000000 1.0
C      1  0.5390360000000  0.5686540000000  0.5570950000000 1.0
C      1  0.4994880000000  0.4970830000000  0.5893590000000 1.0
C      1  0.4795510000000  0.4629720000000  0.4312750000000 1.0
C      1  0.4115450000000  0.5177170000000  0.4522590000000 1.0
C      1  0.5110920000000  0.4637080000000  0.3787410000000 1.0
C      1  0.5291350000000  0.4748470000000  0.3927740000000 1.0
C      1  0.4160630000000  0.5419590000000  0.5279320000000 1.0
C      1  0.5868470000000  0.5365280000000  0.4771020000000 1.0
C      1  0.4866040000000  0.4335740000000  0.5793770000000 1.0
C      1  0.6003830000000  0.4867790000000  0.5348500000000 1.0
C      1  0.5800110000000  0.4835790000000  0.4236750000000 1.0
C      1  0.4688070000000  0.5121620000000  0.5223180000000 1.0
C      1  0.4165160000000  0.4557710000000  0.5146890000000 1.0
C      1  0.5238160000000  0.5443920000000  0.5404580000000 1.0
C      1  0.4267020000000  0.5640170000000  0.5136360000000 1.0
C      1  0.5924980000000  0.5184120000000  0.4566610000000 1.0
C      1  0.4671040000000  0.5113310000000  0.4251310000000 1.0
C      1  0.4316910000000  0.4307160000000  0.5139500000000 1.0
C      1  0.5708660000000  0.4781830000000  0.5889550000000 1.0
C      1  0.5875270000000  0.5076730000000  0.5495170000000 1.0
C      1  0.4599680000000  0.5442910000000  0.4887410000000 1.0
C      1  0.5439380000000  0.4839550000000  0.6004370000000 1.0
C      1  0.4434740000000  0.4222990000000  0.5396670000000 1.0
C      1  0.4482940000000  0.5844360000000  0.4637510000000 1.0
C      1  0.4336360000000  0.4831900000000  0.4152790000000 1.0
C      1  0.5425970000000  0.5135590000000  0.6031240000000 1.0
C      1  0.5077890000000  0.5042310000000  0.4305650000000 1.0
END
