TITL C-884141-4321-91 35.7867034806016 125000 -18264.5522706055 0 0 123 (C1) n - 1
REM
REM in /home/nfs/bkarasulu/CARBON/AIRSS/Generating-Clusters/ReaxFF-fromJPCA2015/Units_Real/with-SteepDescent/Only-C1/SD-CG/Try1-3A/FIRE-CG
REM
REM
REM
REM
REM
REM ./C.cell (11c1c37f851c82e70ff6c80c92926a4b)
REM
REM compiler GCC version 9.2.1 20190827 (Red Hat 9.2.1-1)
REM options -cpp -mtune=generic -march=x86-64 -g -O0 -fpre-include=/usr/include/finclude/math-vector-fortran.h
REM seed -1286515588 145991505 -623471510 -680246575 1990930313 402322264 -1828300679 200180865 -1065844498 -2009397275 -239752883 -142142643 1522731551 463680995 -1933413005 -1698953455 471954862 -146602889 1657209980 -471285997 -161312338 -1573120811 550548732 -1078705249 -1989725736 1276792669 -396576689 921075120 669201358 2059707594 -305883610 298166647 -2090412081
REM
CELL 1.54180   50.00000   50.00000   50.00000   90.00000   90.00000   90.00000
LATT -1
SFAC C  
C      1  0.4915680000000  0.5199980000000  0.5537780000000 1.0
C      1  0.5034290000000  0.5832060000000  0.5429950000000 1.0
C      1  0.5905190000000  0.5699250000000  0.5320150000000 1.0
C      1  0.4308030000000  0.4401860000000  0.4679390000000 1.0
C      1  0.5453360000000  0.4332570000000  0.5353720000000 1.0
C      1  0.4927380000000  0.5888970000000  0.4790960000000 1.0
C      1  0.5004400000000  0.4999500000000  0.4639250000000 1.0
C      1  0.5891690000000  0.4891410000000  0.5541220000000 1.0
C      1  0.5656130000000  0.5393860000000  0.4312410000000 1.0
C      1  0.4450550000000  0.4486050000000  0.4437610000000 1.0
C      1  0.5311380000000  0.4043530000000  0.4975610000000 1.0
C      1  0.5790540000000  0.4988840000000  0.4519900000000 1.0
C      1  0.4522700000000  0.5533500000000  0.4381200000000 1.0
C      1  0.4183020000000  0.5458010000000  0.4719450000000 1.0
C      1  0.4940900000000  0.4277980000000  0.4342010000000 1.0
C      1  0.4298440000000  0.5341030000000  0.5300230000000 1.0
C      1  0.4339070000000  0.4564280000000  0.5575040000000 1.0
C      1  0.5780630000000  0.5514090000000  0.4680800000000 1.0
C      1  0.4764630000000  0.4935840000000  0.5497050000000 1.0
C      1  0.5203500000000  0.5863500000000  0.5223670000000 1.0
C      1  0.5024590000000  0.4202040000000  0.4637460000000 1.0
C      1  0.5453390000000  0.5209830000000  0.4246510000000 1.0
C      1  0.5049500000000  0.4027980000000  0.5073670000000 1.0
C      1  0.4796330000000  0.4818640000000  0.5760630000000 1.0
C      1  0.4176540000000  0.4903220000000  0.4491510000000 1.0
C      1  0.4611440000000  0.4065310000000  0.4901920000000 1.0
C      1  0.5100450000000  0.4443060000000  0.5705880000000 1.0
C      1  0.4484540000000  0.5637650000000  0.5224860000000 1.0
C      1  0.4749300000000  0.4972380000000  0.4075950000000 1.0
C      1  0.4586800000000  0.4821070000000  0.4781170000000 1.0
C      1  0.6039720000000  0.5069300000000  0.5084270000000 1.0
C      1  0.5509110000000  0.4206340000000  0.5096310000000 1.0
C      1  0.5583980000000  0.5487360000000  0.5651550000000 1.0
C      1  0.4704220000000  0.4232050000000  0.5354720000000 1.0
C      1  0.4566070000000  0.5488480000000  0.5702410000000 1.0
C      1  0.4976980000000  0.4162440000000  0.5321140000000 1.0
C      1  0.4911040000000  0.4656370000000  0.5101950000000 1.0
C      1  0.5664950000000  0.4315890000000  0.4879750000000 1.0
C      1  0.4449690000000  0.5205410000000  0.5057570000000 1.0
C      1  0.4032680000000  0.4854330000000  0.4741350000000 1.0
C      1  0.5369720000000  0.5238000000000  0.5253350000000 1.0
C      1  0.4726190000000  0.5212430000000  0.4961380000000 1.0
C      1  0.4127590000000  0.4587880000000  0.4820120000000 1.0
C      1  0.4280310000000  0.5387640000000  0.4443530000000 1.0
C      1  0.5730390000000  0.4749020000000  0.4686690000000 1.0
C      1  0.5648850000000  0.4541990000000  0.5411690000000 1.0
C      1  0.4818730000000  0.4531020000000  0.5723160000000 1.0
C      1  0.4225080000000  0.4682720000000  0.5087660000000 1.0
C      1  0.4149220000000  0.4550540000000  0.5345510000000 1.0
C      1  0.4782490000000  0.4568590000000  0.4861200000000 1.0
C      1  0.4473980000000  0.5055680000000  0.4134480000000 1.0
C      1  0.5129570000000  0.5571620000000  0.4319190000000 1.0
C      1  0.4624800000000  0.5856840000000  0.4750070000000 1.0
C      1  0.4040500000000  0.5254520000000  0.5160590000000 1.0
C      1  0.4530830000000  0.4168260000000  0.5142980000000 1.0
C      1  0.5436260000000  0.4807370000000  0.4676440000000 1.0
C      1  0.5707620000000  0.5250100000000  0.5590340000000 1.0
C      1  0.4988150000000  0.4501820000000  0.4687380000000 1.0
C      1  0.5211940000000  0.5871350000000  0.4717420000000 1.0
C      1  0.5818500000000  0.5234620000000  0.4991360000000 1.0
C      1  0.5196090000000  0.5242170000000  0.5023870000000 1.0
C      1  0.4402750000000  0.5427090000000  0.4867530000000 1.0
C      1  0.4693730000000  0.4754310000000  0.5276900000000 1.0
C      1  0.4435160000000  0.4765910000000  0.4520220000000 1.0
C      1  0.4379120000000  0.5071910000000  0.5778050000000 1.0
C      1  0.4957950000000  0.5434520000000  0.4491330000000 1.0
C      1  0.5806440000000  0.4561380000000  0.4906610000000 1.0
C      1  0.5314380000000  0.5720230000000  0.4486740000000 1.0
C      1  0.4554480000000  0.5828890000000  0.4470110000000 1.0
C      1  0.5555900000000  0.4208120000000  0.4613200000000 1.0
C      1  0.4741980000000  0.5093240000000  0.4691450000000 1.0
C      1  0.4972430000000  0.5163370000000  0.4082490000000 1.0
C      1  0.5644210000000  0.5679800000000  0.5402420000000 1.0
C      1  0.4809570000000  0.5781620000000  0.5564240000000 1.0
C      1  0.5568250000000  0.5076310000000  0.5105990000000 1.0
C      1  0.5107260000000  0.4669970000000  0.4257840000000 1.0
C      1  0.5447430000000  0.4841220000000  0.5810630000000 1.0
C      1  0.5152290000000  0.5451270000000  0.4839240000000 1.0
C      1  0.5190710000000  0.4868900000000  0.5329660000000 1.0
C      1  0.4344580000000  0.4816250000000  0.5681820000000 1.0
C      1  0.5194910000000  0.5332330000000  0.4154930000000 1.0
C      1  0.4943150000000  0.5642220000000  0.4938540000000 1.0
C      1  0.5670120000000  0.4722930000000  0.5641330000000 1.0
C      1  0.4933720000000  0.5437130000000  0.5348370000000 1.0
C      1  0.4785420000000  0.5622540000000  0.5188780000000 1.0
C      1  0.5207630000000  0.4698250000000  0.5116330000000 1.0
C      1  0.4248450000000  0.5125610000000  0.4307540000000 1.0
C      1  0.5128120000000  0.5262270000000  0.4628570000000 1.0
C      1  0.5306670000000  0.4081330000000  0.4697920000000 1.0
C      1  0.6012530000000  0.4834620000000  0.5276130000000 1.0
C      1  0.4812130000000  0.5288940000000  0.5825320000000 1.0
C      1  0.5838650000000  0.4618310000000  0.5197550000000 1.0
C      1  0.5789540000000  0.5537270000000  0.4974260000000 1.0
C      1  0.5837670000000  0.5283360000000  0.4503440000000 1.0
C      1  0.4469190000000  0.4859410000000  0.5059230000000 1.0
C      1  0.5560160000000  0.5680100000000  0.5102660000000 1.0
C      1  0.4698390000000  0.5336260000000  0.4478900000000 1.0
C      1  0.5426980000000  0.4314970000000  0.4389320000000 1.0
C      1  0.5406350000000  0.4859010000000  0.4964130000000 1.0
C      1  0.3953370000000  0.5058310000000  0.4952500000000 1.0
C      1  0.4548150000000  0.5714640000000  0.5524370000000 1.0
C      1  0.4529910000000  0.4338190000000  0.4886510000000 1.0
C      1  0.5708220000000  0.5078020000000  0.5416480000000 1.0
C      1  0.5276060000000  0.4652930000000  0.5767090000000 1.0
C      1  0.3966850000000  0.5339910000000  0.4892280000000 1.0
C      1  0.4638080000000  0.4472640000000  0.5497520000000 1.0
C      1  0.5115200000000  0.5301110000000  0.5924510000000 1.0
C      1  0.4655540000000  0.5044060000000  0.5894750000000 1.0
C      1  0.5589540000000  0.5617310000000  0.4475560000000 1.0
C      1  0.5190720000000  0.4288400000000  0.5469610000000 1.0
C      1  0.5353670000000  0.5861660000000  0.4989370000000 1.0
C      1  0.5200870000000  0.4389140000000  0.4235130000000 1.0
C      1  0.4876760000000  0.4031550000000  0.4844990000000 1.0
C      1  0.4937980000000  0.5237640000000  0.5134490000000 1.0
C      1  0.4369690000000  0.5311750000000  0.5594240000000 1.0
C      1  0.4838800000000  0.4687040000000  0.4160870000000 1.0
C      1  0.5217110000000  0.5103730000000  0.5465720000000 1.0
C      1  0.4712630000000  0.4452340000000  0.4289510000000 1.0
C      1  0.4442470000000  0.5693630000000  0.4935950000000 1.0
C      1  0.5375840000000  0.5419170000000  0.5852170000000 1.0
C      1  0.5111260000000  0.4737610000000  0.4561660000000 1.0
C      1  0.5345660000000  0.5137390000000  0.5916420000000 1.0
C      1  0.5527630000000  0.4991150000000  0.4412190000000 1.0
END
