TITL C-883737-113-441 5.00465206161005 125000 -12373.9419432236 0 0 84 (C1) n - 1
REM
REM in /home/nfs/bkarasulu/CARBON/AIRSS/Generating-Clusters/ReaxFF-fromJPCA2015/Units_Real/with-SteepDescent/Only-C1/SD-CG/Try1-3A/FIRE-CG
REM
REM
REM
REM
REM
REM ./C.cell (11c1c37f851c82e70ff6c80c92926a4b)
REM
REM compiler GCC version 9.2.1 20190827 (Red Hat 9.2.1-1)
REM options -cpp -mtune=generic -march=x86-64 -g -O0 -fpre-include=/usr/include/finclude/math-vector-fortran.h
REM seed -910544106 2005428266 -1478975700 89901509 1476978064 284943472 1722708101 -373838516 -35142829 2007067149 -934655864 1489335967 -187387203 1960368817 -1493033464 1193695654 -1166422909 965879781 1852325373 1297398005 -762593746 137171803 -1984904851 908567709 1244523154 426401743 1879869133 1756635096 907156647 82236032 1528331177 976963135 1926218635
REM
CELL 1.54180   50.00000   50.00000   50.00000   90.00000   90.00000   90.00000
LATT -1
SFAC C  
C      1  0.4220610000000  0.5245130000000  0.5076910000000 1.0
C      1  0.4430240000000  0.5372330000000  0.4907980000000 1.0
C      1  0.5423730000000  0.4882350000000  0.4537920000000 1.0
C      1  0.4530060000000  0.4811320000000  0.4463040000000 1.0
C      1  0.5863080000000  0.5080990000000  0.4872920000000 1.0
C      1  0.4724520000000  0.4346680000000  0.4821110000000 1.0
C      1  0.5439460000000  0.4306090000000  0.5273710000000 1.0
C      1  0.4616450000000  0.5356430000000  0.4352400000000 1.0
C      1  0.5047450000000  0.5603890000000  0.4496160000000 1.0
C      1  0.4888250000000  0.5034000000000  0.5781680000000 1.0
C      1  0.5753710000000  0.5287020000000  0.5049180000000 1.0
C      1  0.5189890000000  0.4401420000000  0.4548020000000 1.0
C      1  0.5218060000000  0.5113580000000  0.4917770000000 1.0
C      1  0.5580720000000  0.4680540000000  0.4671430000000 1.0
C      1  0.5085120000000  0.5636790000000  0.4951850000000 1.0
C      1  0.4461800000000  0.4875180000000  0.5244210000000 1.0
C      1  0.4661850000000  0.4190630000000  0.5065740000000 1.0
C      1  0.4727950000000  0.5257660000000  0.5301480000000 1.0
C      1  0.5645480000000  0.4884350000000  0.5616120000000 1.0
C      1  0.5428140000000  0.4443610000000  0.4731370000000 1.0
C      1  0.4703860000000  0.4946850000000  0.4656110000000 1.0
C      1  0.4982780000000  0.4770440000000  0.5668460000000 1.0
C      1  0.5196180000000  0.5100000000000  0.5411770000000 1.0
C      1  0.4748610000000  0.5149140000000  0.4194110000000 1.0
C      1  0.4961900000000  0.4315070000000  0.4678840000000 1.0
C      1  0.4212850000000  0.4768440000000  0.4850370000000 1.0
C      1  0.4418210000000  0.4631650000000  0.5066660000000 1.0
C      1  0.5520270000000  0.5391230000000  0.5452320000000 1.0
C      1  0.5196920000000  0.4948070000000  0.4692640000000 1.0
C      1  0.4127120000000  0.5043870000000  0.4883180000000 1.0
C      1  0.4252410000000  0.4802410000000  0.4560960000000 1.0
C      1  0.5023600000000  0.4631610000000  0.4427980000000 1.0
C      1  0.5815850000000  0.4813730000000  0.4767610000000 1.0
C      1  0.4636740000000  0.5136510000000  0.4858860000000 1.0
C      1  0.4516730000000  0.5436060000000  0.5398570000000 1.0
C      1  0.5430310000000  0.5569110000000  0.5249620000000 1.0
C      1  0.4394600000000  0.4997950000000  0.5502170000000 1.0
C      1  0.4876330000000  0.4671990000000  0.5180340000000 1.0
C      1  0.5294300000000  0.5113480000000  0.4220680000000 1.0
C      1  0.4940360000000  0.4148010000000  0.5222090000000 1.0
C      1  0.4989350000000  0.5287420000000  0.5386210000000 1.0
C      1  0.4789810000000  0.4672650000000  0.5474500000000 1.0
C      1  0.5076060000000  0.5355580000000  0.4866110000000 1.0
C      1  0.4653040000000  0.5664320000000  0.5274310000000 1.0
C      1  0.4556640000000  0.5654620000000  0.4993330000000 1.0
C      1  0.5034790000000  0.5047520000000  0.4125590000000 1.0
C      1  0.4820910000000  0.4180430000000  0.5521670000000 1.0
C      1  0.4294890000000  0.5248080000000  0.5356480000000 1.0
C      1  0.4702910000000  0.4622270000000  0.4941440000000 1.0
C      1  0.5579020000000  0.5508710000000  0.4994990000000 1.0
C      1  0.5782550000000  0.4790110000000  0.5247720000000 1.0
C      1  0.5132780000000  0.5331840000000  0.4581440000000 1.0
C      1  0.4627000000000  0.5002400000000  0.5672560000000 1.0
C      1  0.4946660000000  0.5482330000000  0.5611360000000 1.0
C      1  0.4332590000000  0.5304930000000  0.4447620000000 1.0
C      1  0.5222060000000  0.5717270000000  0.4705400000000 1.0
C      1  0.5928990000000  0.4846050000000  0.5010560000000 1.0
C      1  0.4673160000000  0.5036410000000  0.5124080000000 1.0
C      1  0.4935100000000  0.4767900000000  0.4183800000000 1.0
C      1  0.5483920000000  0.4758690000000  0.5196420000000 1.0
C      1  0.5803560000000  0.4983090000000  0.5447270000000 1.0
C      1  0.4493380000000  0.4362520000000  0.5218280000000 1.0
C      1  0.4657310000000  0.4869800000000  0.4203850000000 1.0
C      1  0.4756280000000  0.5594330000000  0.4477100000000 1.0
C      1  0.4362630000000  0.5464900000000  0.4670140000000 1.0
C      1  0.5483060000000  0.5579540000000  0.4725260000000 1.0
C      1  0.5006280000000  0.4423040000000  0.5148000000000 1.0
C      1  0.5159300000000  0.5695590000000  0.5228810000000 1.0
C      1  0.5427520000000  0.5374370000000  0.4523500000000 1.0
C      1  0.5303300000000  0.4988020000000  0.5170190000000 1.0
C      1  0.5736050000000  0.5244640000000  0.5339830000000 1.0
C      1  0.5331510000000  0.5213600000000  0.5645490000000 1.0
C      1  0.4959680000000  0.4795470000000  0.4667470000000 1.0
C      1  0.5061010000000  0.5283030000000  0.5782700000000 1.0
C      1  0.5381940000000  0.4570390000000  0.5388830000000 1.0
C      1  0.4177590000000  0.5090700000000  0.4585240000000 1.0
C      1  0.4654390000000  0.5742150000000  0.4726750000000 1.0
C      1  0.5269120000000  0.4116600000000  0.5139110000000 1.0
C      1  0.5421080000000  0.4938400000000  0.5700830000000 1.0
C      1  0.5448710000000  0.4270210000000  0.4967630000000 1.0
C      1  0.5519220000000  0.5124930000000  0.4391950000000 1.0
C      1  0.5275110000000  0.4710320000000  0.5636810000000 1.0
C      1  0.4640790000000  0.4401110000000  0.5476790000000 1.0
C      1  0.4922460000000  0.5688050000000  0.5398230000000 1.0
END
