TITL C-883740-3686-255 223.84827257758 125000 -20228.5185171978 0 0 139 (C1) n - 1
REM
REM in /home/nfs/bkarasulu/CARBON/AIRSS/Generating-Clusters/ReaxFF-fromJPCA2015/Units_Real/with-SteepDescent/Only-C1/SD-CG/Try1-3A/FIRE-CG
REM
REM
REM
REM
REM
REM ./C.cell (11c1c37f851c82e70ff6c80c92926a4b)
REM
REM compiler GCC version 9.2.1 20190827 (Red Hat 9.2.1-1)
REM options -cpp -mtune=generic -march=x86-64 -g -O0 -fpre-include=/usr/include/finclude/math-vector-fortran.h
REM seed -1817503064 -1867420567 2123159262 -522912062 934155975 -1954933551 -1302215287 1397511728 1886471716 923403131 -1867865611 -905548000 1685057635 -2130841100 -6359839 -264057783 872027151 -1938085975 -1350090730 -1099937201 -6921759 -297659931 -1884533648 27671083 -258062071 807540695 -1600948605 199322316 -1362985156 1917807940 -202346290 868512343 -419891450
REM
CELL 1.54180   50.00000   50.00000   50.00000   90.00000   90.00000   90.00000
LATT -1
SFAC C  
C      1  0.4684260000000  0.5591570000000  0.4957540000000 1.0
C      1  0.4746720000000  0.4010180000000  0.5269740000000 1.0
C      1  0.4116780000000  0.5158660000000  0.5501340000000 1.0
C      1  0.5869440000000  0.4951770000000  0.5023110000000 1.0
C      1  0.4311760000000  0.4615850000000  0.5684360000000 1.0
C      1  0.4902570000000  0.5108410000000  0.5358640000000 1.0
C      1  0.4899930000000  0.3980340000000  0.5517590000000 1.0
C      1  0.5089490000000  0.4165780000000  0.5654150000000 1.0
C      1  0.5961360000000  0.4957780000000  0.5300690000000 1.0
C      1  0.4972340000000  0.4741000000000  0.4628500000000 1.0
C      1  0.4711670000000  0.4731660000000  0.5707060000000 1.0
C      1  0.5793210000000  0.5325320000000  0.5593820000000 1.0
C      1  0.4659130000000  0.5990170000000  0.4934530000000 1.0
C      1  0.4197750000000  0.4711410000000  0.4768340000000 1.0
C      1  0.5416910000000  0.4854250000000  0.5004990000000 1.0
C      1  0.4801820000000  0.6049440000000  0.5187270000000 1.0
C      1  0.4974540000000  0.5551870000000  0.5225670000000 1.0
C      1  0.5651580000000  0.5585890000000  0.5195030000000 1.0
C      1  0.4479810000000  0.5011610000000  0.5099140000000 1.0
C      1  0.4634840000000  0.5894660000000  0.5335210000000 1.0
C      1  0.4461440000000  0.5766480000000  0.4905520000000 1.0
C      1  0.4115460000000  0.4588630000000  0.5026000000000 1.0
C      1  0.5929970000000  0.4729930000000  0.4840200000000 1.0
C      1  0.5596000000000  0.5099940000000  0.4982960000000 1.0
C      1  0.5161450000000  0.5360750000000  0.4882600000000 1.0
C      1  0.5759580000000  0.4992080000000  0.4439560000000 1.0
C      1  0.4177570000000  0.5320560000000  0.4798360000000 1.0
C      1  0.4552050000000  0.5231930000000  0.5279460000000 1.0
C      1  0.4568040000000  0.5751270000000  0.5560420000000 1.0
C      1  0.5764740000000  0.4500300000000  0.5535020000000 1.0
C      1  0.4741060000000  0.4288680000000  0.5198390000000 1.0
C      1  0.5864530000000  0.5246180000000  0.4567660000000 1.0
C      1  0.4869550000000  0.4172320000000  0.4363110000000 1.0
C      1  0.5537720000000  0.4936190000000  0.4248100000000 1.0
C      1  0.5046200000000  0.4326160000000  0.4263270000000 1.0
C      1  0.4846590000000  0.5659620000000  0.4731340000000 1.0
C      1  0.4727860000000  0.5182300000000  0.5858250000000 1.0
C      1  0.4587640000000  0.5094500000000  0.4682750000000 1.0
C      1  0.4570100000000  0.4978630000000  0.4076270000000 1.0
C      1  0.5041710000000  0.4980980000000  0.4956960000000 1.0
C      1  0.5971380000000  0.5309210000000  0.4847770000000 1.0
C      1  0.4491450000000  0.4219420000000  0.4820150000000 1.0
C      1  0.5642750000000  0.5090410000000  0.5671740000000 1.0
C      1  0.4468090000000  0.4819710000000  0.4670800000000 1.0
C      1  0.5060480000000  0.4993180000000  0.4080270000000 1.0
C      1  0.4121030000000  0.4960350000000  0.4387320000000 1.0
C      1  0.5629060000000  0.4603140000000  0.5774950000000 1.0
C      1  0.4641500000000  0.4756940000000  0.5071240000000 1.0
C      1  0.4860370000000  0.5790480000000  0.4301640000000 1.0
C      1  0.5033420000000  0.5904870000000  0.5681580000000 1.0
C      1  0.5006580000000  0.5206830000000  0.5850020000000 1.0
C      1  0.5817480000000  0.4740670000000  0.4566520000000 1.0
C      1  0.5432170000000  0.5448450000000  0.5346790000000 1.0
C      1  0.5793190000000  0.4478210000000  0.4901930000000 1.0
C      1  0.4877520000000  0.5257640000000  0.4414610000000 1.0
C      1  0.4281250000000  0.4452840000000  0.4379670000000 1.0
C      1  0.4098780000000  0.5118100000000  0.4624040000000 1.0
C      1  0.4341300000000  0.5574250000000  0.4706990000000 1.0
C      1  0.5184070000000  0.3961490000000  0.5463160000000 1.0
C      1  0.5016930000000  0.5472090000000  0.5706880000000 1.0
C      1  0.5149300000000  0.5622880000000  0.5003770000000 1.0
C      1  0.5413770000000  0.5189260000000  0.5251160000000 1.0
C      1  0.4652360000000  0.5626650000000  0.4228500000000 1.0
C      1  0.5894910000000  0.5408360000000  0.5115850000000 1.0
C      1  0.4231670000000  0.5305290000000  0.5713000000000 1.0
C      1  0.4862390000000  0.5456120000000  0.4571050000000 1.0
C      1  0.5156220000000  0.5507420000000  0.5445490000000 1.0
C      1  0.5110930000000  0.4529370000000  0.5092250000000 1.0
C      1  0.5149780000000  0.5181990000000  0.5128620000000 1.0
C      1  0.5424250000000  0.4456940000000  0.4671600000000 1.0
C      1  0.4810680000000  0.5140210000000  0.4029050000000 1.0
C      1  0.5188550000000  0.4802070000000  0.5840500000000 1.0
C      1  0.5006580000000  0.4242770000000  0.4811660000000 1.0
C      1  0.5146720000000  0.4500150000000  0.4754980000000 1.0
C      1  0.4145470000000  0.4562980000000  0.5446030000000 1.0
C      1  0.5340870000000  0.4568410000000  0.5838590000000 1.0
C      1  0.4631590000000  0.3963340000000  0.4778750000000 1.0
C      1  0.5943870000000  0.5243290000000  0.5357980000000 1.0
C      1  0.5242720000000  0.5961540000000  0.5466630000000 1.0
C      1  0.5164590000000  0.4989280000000  0.5699090000000 1.0
C      1  0.5046710000000  0.5002400000000  0.4531240000000 1.0
C      1  0.5694090000000  0.5615070000000  0.5613620000000 1.0
C      1  0.5036810000000  0.5913690000000  0.4479790000000 1.0
C      1  0.5566160000000  0.5638680000000  0.4921120000000 1.0
C      1  0.5322630000000  0.5813560000000  0.4518950000000 1.0
C      1  0.5418360000000  0.5009900000000  0.5493320000000 1.0
C      1  0.5262080000000  0.4525100000000  0.5342660000000 1.0
C      1  0.4311990000000  0.5574900000000  0.5591610000000 1.0
C      1  0.4367310000000  0.5448080000000  0.5353130000000 1.0
C      1  0.4829170000000  0.5702770000000  0.5726590000000 1.0
C      1  0.5097450000000  0.4009340000000  0.4964370000000 1.0
C      1  0.5198920000000  0.4537390000000  0.4166960000000 1.0
C      1  0.5912460000000  0.4757700000000  0.5511650000000 1.0
C      1  0.4455520000000  0.5139190000000  0.5857090000000 1.0
C      1  0.4811730000000  0.5150630000000  0.4863470000000 1.0
C      1  0.4835910000000  0.5403730000000  0.4151850000000 1.0
C      1  0.5524470000000  0.4602020000000  0.4892210000000 1.0
C      1  0.5507810000000  0.5817070000000  0.5508210000000 1.0
C      1  0.5108700000000  0.6035370000000  0.5223480000000 1.0
C      1  0.4907710000000  0.5973640000000  0.4752840000000 1.0
C      1  0.5179840000000  0.4441270000000  0.5625540000000 1.0
C      1  0.4491560000000  0.4550390000000  0.4248860000000 1.0
C      1  0.5796690000000  0.4247420000000  0.5091210000000 1.0
C      1  0.5225220000000  0.5216580000000  0.4620940000000 1.0
C      1  0.4437310000000  0.5551650000000  0.4436800000000 1.0
C      1  0.4751910000000  0.5364640000000  0.5088760000000 1.0
C      1  0.4463800000000  0.4845500000000  0.5819850000000 1.0
C      1  0.4980160000000  0.4726210000000  0.4153090000000 1.0
C      1  0.4822480000000  0.3911960000000  0.4998510000000 1.0
C      1  0.4355860000000  0.5083320000000  0.4244900000000 1.0
C      1  0.4105880000000  0.4682480000000  0.4495140000000 1.0
C      1  0.4004500000000  0.4741310000000  0.5256210000000 1.0
C      1  0.5655320000000  0.5451980000000  0.4555170000000 1.0
C      1  0.4460930000000  0.5262630000000  0.4457830000000 1.0
C      1  0.4559600000000  0.4493180000000  0.5280350000000 1.0
C      1  0.4751140000000  0.4326830000000  0.4919160000000 1.0
C      1  0.5396000000000  0.4772900000000  0.5289890000000 1.0
C      1  0.4272390000000  0.4430780000000  0.5217980000000 1.0
C      1  0.5317230000000  0.5112380000000  0.4169890000000 1.0
C      1  0.5753100000000  0.4253680000000  0.5378630000000 1.0
C      1  0.5297180000000  0.5337200000000  0.4359930000000 1.0
C      1  0.4221130000000  0.5116440000000  0.5016090000000 1.0
C      1  0.4651290000000  0.4039400000000  0.4481880000000 1.0
C      1  0.4921070000000  0.4879540000000  0.5535070000000 1.0
C      1  0.5174410000000  0.5949500000000  0.4947020000000 1.0
C      1  0.4935750000000  0.4758820000000  0.5114830000000 1.0
C      1  0.4430750000000  0.4239840000000  0.4531230000000 1.0
C      1  0.4564700000000  0.4514530000000  0.5584690000000 1.0
C      1  0.5566510000000  0.5370640000000  0.4814420000000 1.0
C      1  0.5570150000000  0.4094880000000  0.5201760000000 1.0
C      1  0.4673940000000  0.4700470000000  0.4113810000000 1.0
C      1  0.4048110000000  0.5037250000000  0.5261200000000 1.0
C      1  0.5605410000000  0.4548510000000  0.4467230000000 1.0
C      1  0.5449840000000  0.5585100000000  0.4388330000000 1.0
C      1  0.5418960000000  0.5860950000000  0.4788230000000 1.0
C      1  0.5469360000000  0.4652560000000  0.4238560000000 1.0
C      1  0.5767860000000  0.4853410000000  0.5740050000000 1.0
C      1  0.5289730000000  0.4011170000000  0.5191290000000 1.0
C      1  0.4715760000000  0.4700870000000  0.4755940000000 1.0
END
