TITL C-883729-9652-440 -5.30743088584133 125000 -6603.88077641154 0 0 45 (C1) n - 1
REM
REM in /home/nfs/bkarasulu/CARBON/AIRSS/Generating-Clusters/ReaxFF-fromJPCA2015/Units_Real/with-SteepDescent/Only-C1/SD-CG/Try1-3A/FIRE-CG
REM
REM
REM
REM
REM
REM ./C.cell (11c1c37f851c82e70ff6c80c92926a4b)
REM
REM compiler GCC version 9.2.1 20190827 (Red Hat 9.2.1-1)
REM options -cpp -mtune=generic -march=x86-64 -g -O0 -fpre-include=/usr/include/finclude/math-vector-fortran.h
REM seed 149939782 878304862 -1236502756 -30180725 790062224 -130889190 -1674413333 -819284605 -1207581529 953389725 61104494 2010338339 -1790947821 1427056165 588538934 797639744 1625542083 -426834790 492288581 -1284340843 1447180399 -1822503214 1460812159 -413395805 816630352 1802172450 1536487811 1080988670 1524469151 -935846901 -245399842 2078757366 -1924151307
REM
CELL 1.54180   50.00000   50.00000   50.00000   90.00000   90.00000   90.00000
LATT -1
SFAC C  
C      1  0.4879180000000  0.4430240000000  0.5272740000000 1.0
C      1  0.5108080000000  0.5017720000000  0.5696480000000 1.0
C      1  0.4940270000000  0.4973260000000  0.5043230000000 1.0
C      1  0.5106750000000  0.4624420000000  0.4599890000000 1.0
C      1  0.5258940000000  0.4784650000000  0.5618650000000 1.0
C      1  0.4874530000000  0.5451750000000  0.5149530000000 1.0
C      1  0.4478160000000  0.4701620000000  0.5040670000000 1.0
C      1  0.5219960000000  0.5489640000000  0.4630330000000 1.0
C      1  0.5328850000000  0.4638160000000  0.5045580000000 1.0
C      1  0.5125670000000  0.5112060000000  0.4392570000000 1.0
C      1  0.5612340000000  0.4737520000000  0.5038570000000 1.0
C      1  0.5627080000000  0.5034770000000  0.5075840000000 1.0
C      1  0.5064120000000  0.5252240000000  0.5049870000000 1.0
C      1  0.5092390000000  0.4772270000000  0.5188000000000 1.0
C      1  0.5610950000000  0.5214030000000  0.4579750000000 1.0
C      1  0.4990880000000  0.5345360000000  0.4520290000000 1.0
C      1  0.4681620000000  0.4884080000000  0.4933120000000 1.0
C      1  0.4718670000000  0.4886000000000  0.4458130000000 1.0
C      1  0.4876710000000  0.5353660000000  0.5420540000000 1.0
C      1  0.5415570000000  0.5158370000000  0.4365330000000 1.0
C      1  0.4313350000000  0.5023250000000  0.4714040000000 1.0
C      1  0.4272940000000  0.5120020000000  0.5004870000000 1.0
C      1  0.4727230000000  0.5338860000000  0.4648270000000 1.0
C      1  0.5454590000000  0.5431020000000  0.4460950000000 1.0
C      1  0.5285990000000  0.5358090000000  0.4884270000000 1.0
C      1  0.4444050000000  0.5334620000000  0.4970750000000 1.0
C      1  0.4379010000000  0.4917360000000  0.5204760000000 1.0
C      1  0.4694830000000  0.4708570000000  0.4693180000000 1.0
C      1  0.5125950000000  0.5285610000000  0.5557760000000 1.0
C      1  0.4878120000000  0.4494600000000  0.4751490000000 1.0
C      1  0.4755680000000  0.4481970000000  0.5023630000000 1.0
C      1  0.5526360000000  0.4831440000000  0.5500750000000 1.0
C      1  0.4699170000000  0.5109920000000  0.5518310000000 1.0
C      1  0.4674980000000  0.5472870000000  0.4920650000000 1.0
C      1  0.5565080000000  0.5098520000000  0.5355180000000 1.0
C      1  0.4567060000000  0.5112910000000  0.4563250000000 1.0
C      1  0.5004580000000  0.4852490000000  0.4423280000000 1.0
C      1  0.5402020000000  0.5328410000000  0.5446970000000 1.0
C      1  0.5678760000000  0.4647830000000  0.5322980000000 1.0
C      1  0.4277500000000  0.4746070000000  0.4793020000000 1.0
C      1  0.4540360000000  0.5004380000000  0.5386200000000 1.0
C      1  0.5008940000000  0.4680880000000  0.5463790000000 1.0
C      1  0.5543080000000  0.5218230000000  0.4864700000000 1.0
C      1  0.5313210000000  0.4647130000000  0.4780020000000 1.0
C      1  0.4856430000000  0.4893080000000  0.5627800000000 1.0
END
