TITL C-883737-113-33 2537464.59811395 125000 -24153.8551691429 0 0 162 (C1) n - 1
REM
REM in /home/nfs/bkarasulu/CARBON/AIRSS/Generating-Clusters/ReaxFF-fromJPCA2015/Units_Real/with-SteepDescent/Only-C1/SD-CG/Try1-3A/FIRE-CG
REM
REM
REM
REM
REM
REM ./C.cell (11c1c37f851c82e70ff6c80c92926a4b)
REM
REM compiler GCC version 9.2.1 20190827 (Red Hat 9.2.1-1)
REM options -cpp -mtune=generic -march=x86-64 -g -O0 -fpre-include=/usr/include/finclude/math-vector-fortran.h
REM seed 1250262779 -1583913184 -1358583578 353953108 -339555972 -554337999 215353681 -356718416 334856314 -1947177735 -725469982 -1245915983 1580307883 1151581706 1949729941 817575031 -332265427 -1759258022 -33679204 507317137 -1086262752 1591960402 -1993497681 -1347074689 -104040541 -291808123 658990474 -717406672 949808106 1991162273 1749127276 192093365 1736600799
REM
CELL 1.54180   50.00000   50.00000   50.00000   90.00000   90.00000   90.00000
LATT -1
SFAC C  
C      1  0.5372960000000  0.4347290000000  0.5216980000000 1.0
C      1  0.5867080000000  0.5402120000000  0.4673200000000 1.0
C      1  0.4890530000000  0.4615990000000  0.6033270000000 1.0
C      1  0.5429040000000  0.4585730000000  0.4803340000000 1.0
C      1  0.4287830000000  0.5211870000000  0.5438420000000 1.0
C      1  0.4596840000000  0.4639460000000  0.6024000000000 1.0
C      1  0.4813330000000  0.5748410000000  0.5615860000000 1.0
C      1  0.5544500000000  0.5953470000000  0.4398460000000 1.0
C      1  0.5559180000000  0.4395140000000  0.4986880000000 1.0
C      1  0.4333820000000  0.4759040000000  0.5368360000000 1.0
C      1  0.5035450000000  0.5354820000000  0.4528870000000 1.0
C      1  0.5991670000000  0.5119410000000  0.5038760000000 1.0
C      1  0.4320280000000  0.4322340000000  0.4657730000000 1.0
C      1  0.4839220000000  0.5491000000000  0.5461920000000 1.0
C      1  0.4867510000000  0.5866090000000  0.4422220000000 1.0
C      1  0.5380370000000  0.4365210000000  0.5700950000000 1.0
C      1  0.4699740000000  0.5431860000000  0.4134470000000 1.0
C      1  0.5560980000000  0.5391550000000  0.4055510000000 1.0
C      1  0.4799720000000  0.5388520000000  0.4716720000000 1.0
C      1  0.4488540000000  0.5202670000000  0.6001500000000 1.0
C      1  0.5537590000000  0.5804270000000  0.4843450000000 1.0
C      1  0.4910780000000  0.5480110000000  0.4983510000000 1.0
C      1  0.5166190000000  0.5804660000000  0.4457100000000 1.0
C      1  0.4104370000000  0.5320740000000  0.4662580000000 1.0
C      1  0.3716720000000  0.4883580000000  0.5097380000000 1.0
C      1  0.5819030000000  0.4463680000000  0.5105170000000 1.0
C      1  0.5670110000000  0.4734950000000  0.5895800000000 1.0
C      1  0.4893370000000  0.4993780000000  0.4242780000000 1.0
C      1  0.3986150000000  0.4765080000000  0.4249650000000 1.0
C      1  0.4607180000000  0.4247130000000  0.5663870000000 1.0
C      1  0.5141280000000  0.4532340000000  0.4023290000000 1.0
C      1  0.4995620000000  0.4085180000000  0.5490250000000 1.0
C      1  0.3999860000000  0.4659050000000  0.4739500000000 1.0
C      1  0.4694690000000  0.4311620000000  0.4281680000000 1.0
C      1  0.5286090000000  0.5490700000000  0.4123710000000 1.0
C      1  0.5420090000000  0.5056400000000  0.4858050000000 1.0
C      1  0.4541360000000  0.5658390000000  0.5742570000000 1.0
C      1  0.5079830000000  0.4103950000000  0.4825380000000 1.0
C      1  0.5412910000000  0.5280760000000  0.5034910000000 1.0
C      1  0.5052840000000  0.5674920000000  0.5817730000000 1.0
C      1  0.5229890000000  0.4531980000000  0.4588480000000 1.0
C      1  0.4454590000000  0.5834630000000  0.5052970000000 1.0
C      1  0.4310530000000  0.5711090000000  0.5568840000000 1.0
C      1  0.4219770000000  0.4811950000000  0.4862500000000 1.0
C      1  0.5321600000000  0.5687810000000  0.5715930000000 1.0
C      1  0.4305400000000  0.5350640000000  0.4458090000000 1.0
C      1  0.4729380000000  0.5467820000000  0.5202140000000 1.0
C      1  0.4235170000000  0.5444590000000  0.5568310000000 1.0
C      1  0.4179930000000  0.5109530000000  0.4855150000000 1.0
C      1  0.5974970000000  0.4841210000000  0.5073790000000 1.0
C      1  0.4850320000000  0.4038200000000  0.4999200000000 1.0
C      1  0.3798700000000  0.4763090000000  0.4890570000000 1.0
C      1  0.5136570000000  0.4544550000000  0.5291290000000 1.0
C      1  0.5867340000000  0.4928330000000  0.4527970000000 1.0
C      1  0.5356470000000  0.4038660000000  0.5141780000000 1.0
C      1  0.4631060000000  0.5450600000000  0.5924710000000 1.0
C      1  0.5142390000000  0.4008300000000  0.4330840000000 1.0
C      1  0.4457740000000  0.4430740000000  0.5843280000000 1.0
C      1  0.4776080000000  0.4885220000000  0.5513360000000 1.0
C      1  0.5503680000000  0.4974080000000  0.5412390000000 1.0
C      1  0.4848980000000  0.5265730000000  0.3927120000000 1.0
C      1  0.5378990000000  0.4435270000000  0.4172240000000 1.0
C      1  0.5091550000000  0.5245600000000  0.6062100000000 1.0
C      1  0.5562420000000  0.4651850000000  0.4215790000000 1.0
C      1  0.4452060000000  0.4645690000000  0.4189130000000 1.0
C      1  0.4279900000000  0.5733230000000  0.5263770000000 1.0
C      1  0.5259130000000  0.4821970000000  0.5363870000000 1.0
C      1  0.5880200000000  0.5387490000000  0.4382980000000 1.0
C      1  0.5181050000000  0.4804780000000  0.3953780000000 1.0
C      1  0.5377970000000  0.5941930000000  0.4624610000000 1.0
C      1  0.5578510000000  0.5523920000000  0.5736950000000 1.0
C      1  0.4357800000000  0.4202710000000  0.4916780000000 1.0
C      1  0.5190710000000  0.5537290000000  0.4399070000000 1.0
C      1  0.5749030000000  0.4402080000000  0.4595720000000 1.0
C      1  0.4547980000000  0.4159620000000  0.5385000000000 1.0
C      1  0.5616960000000  0.5277550000000  0.5908220000000 1.0
C      1  0.5537950000000  0.4193320000000  0.4636520000000 1.0
C      1  0.4898540000000  0.4930880000000  0.3956940000000 1.0
C      1  0.5151440000000  0.5088410000000  0.4545780000000 1.0
C      1  0.4620870000000  0.4893090000000  0.4674490000000 1.0
C      1  0.5844530000000  0.4822930000000  0.5674070000000 1.0
C      1  0.5769580000000  0.5563080000000  0.4170720000000 1.0
C      1  0.5119560000000  0.5974610000000  0.5351580000000 1.0
C      1  0.4263890000000  0.4869920000000  0.4189690000000 1.0
C      1  0.5860920000000  0.4338060000000  0.5377920000000 1.0
C      1  0.5052340000000  0.5310440000000  0.5508200000000 1.0
C      1  0.5516660000000  0.3961400000000  0.5374030000000 1.0
C      1  0.4977090000000  0.5085640000000  0.5033660000000 1.0
C      1  0.5762890000000  0.5009810000000  0.5882410000000 1.0
C      1  0.5546080000000  0.4810700000000  0.4907820000000 1.0
C      1  0.4881060000000  0.6069190000000  0.4934760000000 1.0
C      1  0.5737990000000  0.4839120000000  0.5404910000000 1.0
C      1  0.5563860000000  0.5227350000000  0.5284070000000 1.0
C      1  0.5876040000000  0.5571660000000  0.5127740000000 1.0
C      1  0.5887470000000  0.5788670000000  0.5362860000000 1.0
C      1  0.4638680000000  0.5147120000000  0.4805310000000 1.0
C      1  0.4877340000000  0.4597780000000  0.5154300000000 1.0
C      1  0.4697750000000  0.5970610000000  0.5145700000000 1.0
C      1  0.4038040000000  0.4549710000000  0.4450380000000 1.0
C      1  0.5750090000000  0.4660440000000  0.4454890000000 1.0
C      1  0.4215640000000  0.4474640000000  0.5370730000000 1.0
C      1  0.5783710000000  0.5615250000000  0.4856610000000 1.0
C      1  0.4676790000000  0.5652780000000  0.4328930000000 1.0
C      1  0.4377960000000  0.5722900000000  0.4782620000000 1.0
C      1  0.5369610000000  0.5884900000000  0.5040730000000 1.0
C      1  0.4687410000000  0.4504490000000  0.4963030000000 1.0
C      1  0.4256850000000  0.4465500000000  0.5650730000000 1.0
C      1  0.5158590000000  0.4723840000000  0.5980260000000 1.0
C      1  0.5613340000000  0.5112800000000  0.4101500000000 1.0
C      1  0.4523760000000  0.5558330000000  0.4564850000000 1.0
C      1  0.5761200000000  0.5589780000000  0.5525900000000 1.0
C      1  0.5553170000000  0.4251840000000  0.5487580000000 1.0
C      1  0.4685090000000  0.4683750000000  0.4025520000000 1.0
C      1  0.4664910000000  0.5181620000000  0.4296110000000 1.0
C      1  0.5056570000000  0.4834040000000  0.4432710000000 1.0
C      1  0.4841990000000  0.5942550000000  0.5391020000000 1.0
C      1  0.5151360000000  0.5018930000000  0.5222410000000 1.0
C      1  0.4923360000000  0.5482180000000  0.5980710000000 1.0
C      1  0.4329640000000  0.5299130000000  0.5013900000000 1.0
C      1  0.5150560000000  0.6052450000000  0.5080480000000 1.0
C      1  0.5001010000000  0.5045440000000  0.5612790000000 1.0
C      1  0.5016860000000  0.4359590000000  0.4679100000000 1.0
C      1  0.5920060000000  0.5119000000000  0.4754050000000 1.0
C      1  0.5082890000000  0.5376920000000  0.3985260000000 1.0
C      1  0.4527230000000  0.5255710000000  0.5216730000000 1.0
C      1  0.5847020000000  0.5300270000000  0.5233090000000 1.0
C      1  0.5183020000000  0.5450290000000  0.5071050000000 1.0
C      1  0.5360210000000  0.5279340000000  0.6008240000000 1.0
C      1  0.5248780000000  0.5472940000000  0.5356680000000 1.0
C      1  0.4123840000000  0.4969460000000  0.5400480000000 1.0
C      1  0.4710020000000  0.4803460000000  0.5253040000000 1.0
C      1  0.4776160000000  0.4439590000000  0.4541020000000 1.0
C      1  0.4492770000000  0.4699290000000  0.4848480000000 1.0
C      1  0.5446170000000  0.4874470000000  0.4066590000000 1.0
C      1  0.4310930000000  0.4436700000000  0.4399100000000 1.0
C      1  0.4893300000000  0.4106620000000  0.4286500000000 1.0
C      1  0.4858780000000  0.5975840000000  0.4674190000000 1.0
C      1  0.4507530000000  0.4863190000000  0.5592080000000 1.0
C      1  0.5140900000000  0.5002830000000  0.4817070000000 1.0
C      1  0.4688330000000  0.5043690000000  0.5081370000000 1.0
C      1  0.4846950000000  0.4459940000000  0.4054960000000 1.0
C      1  0.5409830000000  0.4590200000000  0.5871440000000 1.0
C      1  0.5063100000000  0.4994040000000  0.5893730000000 1.0
C      1  0.3883530000000  0.4941060000000  0.5254510000000 1.0
C      1  0.4382990000000  0.4994980000000  0.5827590000000 1.0
C      1  0.4494360000000  0.4911770000000  0.6080410000000 1.0
C      1  0.5763210000000  0.4734440000000  0.5126770000000 1.0
C      1  0.5364030000000  0.4050510000000  0.4844930000000 1.0
C      1  0.5337770000000  0.4269650000000  0.4415580000000 1.0
C      1  0.4125460000000  0.5583980000000  0.4801410000000 1.0
C      1  0.5829320000000  0.5110960000000  0.4308330000000 1.0
C      1  0.4796640000000  0.4038680000000  0.5286040000000 1.0
C      1  0.4651270000000  0.4222020000000  0.4886910000000 1.0
C      1  0.4880160000000  0.4209940000000  0.5701770000000 1.0
C      1  0.4152270000000  0.5532080000000  0.5090000000000 1.0
C      1  0.5299160000000  0.5759580000000  0.5435140000000 1.0
C      1  0.6083560000000  0.4288780000000  0.5491490000000 1.0
C      1  0.4817470000000  0.4723460000000  0.4555990000000 1.0
C      1  0.5096350000000  0.4356720000000  0.5582110000000 1.0
C      1  0.4337210000000  0.4254060000000  0.5215560000000 1.0
C      1  0.4372930000000  0.5129820000000  0.4290460000000 1.0
C      1  0.5674980000000  0.5809970000000  0.4268350000000 1.0
END
