TITL C-883735-9890-338 -0.352973154577682 125000 -23778.6097378009 0 0 159 (C1) n - 1
REM
REM in /home/nfs/bkarasulu/CARBON/AIRSS/Generating-Clusters/ReaxFF-fromJPCA2015/Units_Real/with-SteepDescent/Only-C1/SD-CG/Try1-3A/FIRE-CG
REM
REM
REM
REM
REM
REM ./C.cell (11c1c37f851c82e70ff6c80c92926a4b)
REM
REM compiler GCC version 9.2.1 20190827 (Red Hat 9.2.1-1)
REM options -cpp -mtune=generic -march=x86-64 -g -O0 -fpre-include=/usr/include/finclude/math-vector-fortran.h
REM seed 1414222027 -1646347800 1282359028 -1911324016 -1844663540 -1906631785 -1459873789 -447344055 70506657 -518594984 1525354972 780152831 1115242442 275898920 1299236316 1687859507 -1979593960 1238526948 -143464284 1653365564 -1950051273 -1638210484 -1027057845 -1051134178 697940792 461164706 -1150656200 1741252724 -549853455 -860017800 291772581 -525814671 1960725692
REM
CELL 1.54180   50.00000   50.00000   50.00000   90.00000   90.00000   90.00000
LATT -1
SFAC C  
C      1  0.5014940000000  0.4824090000000  0.3914600000000 1.0
C      1  0.5549200000000  0.4961380000000  0.4765740000000 1.0
C      1  0.4137510000000  0.5453620000000  0.4896560000000 1.0
C      1  0.5064480000000  0.4939010000000  0.4837370000000 1.0
C      1  0.4599500000000  0.4829380000000  0.5284460000000 1.0
C      1  0.5896610000000  0.4604360000000  0.5467010000000 1.0
C      1  0.3957850000000  0.5011840000000  0.5012760000000 1.0
C      1  0.5757150000000  0.4403930000000  0.4534920000000 1.0
C      1  0.5531840000000  0.4899120000000  0.5601260000000 1.0
C      1  0.5530700000000  0.5183310000000  0.5422460000000 1.0
C      1  0.5357200000000  0.4017170000000  0.5095380000000 1.0
C      1  0.5035740000000  0.4659800000000  0.4878280000000 1.0
C      1  0.5437050000000  0.5373280000000  0.5625580000000 1.0
C      1  0.5257910000000  0.5087530000000  0.4142800000000 1.0
C      1  0.5300260000000  0.4690800000000  0.5888780000000 1.0
C      1  0.5718570000000  0.4172780000000  0.5224080000000 1.0
C      1  0.4263160000000  0.5523560000000  0.4643810000000 1.0
C      1  0.4777640000000  0.4949270000000  0.4765810000000 1.0
C      1  0.5102090000000  0.6044270000000  0.5339720000000 1.0
C      1  0.5520190000000  0.6029670000000  0.5037810000000 1.0
C      1  0.4291010000000  0.5325660000000  0.5661520000000 1.0
C      1  0.4417760000000  0.5048280000000  0.5304490000000 1.0
C      1  0.5332770000000  0.6117550000000  0.4855680000000 1.0
C      1  0.4831180000000  0.5831200000000  0.5692160000000 1.0
C      1  0.5060760000000  0.5107590000000  0.3905100000000 1.0
C      1  0.5366950000000  0.4431940000000  0.4139460000000 1.0
C      1  0.4492740000000  0.5541420000000  0.5642030000000 1.0
C      1  0.4507260000000  0.5041580000000  0.4064120000000 1.0
C      1  0.4093770000000  0.5177740000000  0.4823310000000 1.0
C      1  0.5267390000000  0.4691840000000  0.3991130000000 1.0
C      1  0.4903460000000  0.6088870000000  0.4913180000000 1.0
C      1  0.4927400000000  0.4175350000000  0.4300580000000 1.0
C      1  0.4841650000000  0.4850230000000  0.4293080000000 1.0
C      1  0.4725880000000  0.4677080000000  0.5508530000000 1.0
C      1  0.4338610000000  0.5353560000000  0.4399670000000 1.0
C      1  0.5526880000000  0.4848390000000  0.4502340000000 1.0
C      1  0.4832660000000  0.4966320000000  0.6036450000000 1.0
C      1  0.4968670000000  0.4605110000000  0.5168170000000 1.0
C      1  0.5118470000000  0.4218060000000  0.4711600000000 1.0
C      1  0.4493150000000  0.4849760000000  0.4870490000000 1.0
C      1  0.5135860000000  0.6179100000000  0.5069300000000 1.0
C      1  0.5670750000000  0.5625750000000  0.4433700000000 1.0
C      1  0.4515940000000  0.4051960000000  0.5000160000000 1.0
C      1  0.5604080000000  0.4096900000000  0.4960230000000 1.0
C      1  0.4248990000000  0.4522040000000  0.5187590000000 1.0
C      1  0.4965720000000  0.5819910000000  0.4784940000000 1.0
C      1  0.4959080000000  0.5570660000000  0.5605220000000 1.0
C      1  0.5230420000000  0.4208390000000  0.4277590000000 1.0
C      1  0.4863270000000  0.4872120000000  0.5184480000000 1.0
C      1  0.5309780000000  0.5113640000000  0.4839600000000 1.0
C      1  0.4918570000000  0.5317430000000  0.5729700000000 1.0
C      1  0.4180820000000  0.5550600000000  0.5192950000000 1.0
C      1  0.4789780000000  0.4737970000000  0.4544160000000 1.0
C      1  0.4834980000000  0.4006930000000  0.5265410000000 1.0
C      1  0.4899750000000  0.3919620000000  0.4995600000000 1.0
C      1  0.5019560000000  0.5127580000000  0.5236760000000 1.0
C      1  0.5689310000000  0.4570940000000  0.5061710000000 1.0
C      1  0.4756820000000  0.4398310000000  0.5439460000000 1.0
C      1  0.4922290000000  0.5248010000000  0.6024890000000 1.0
C      1  0.4553500000000  0.4041550000000  0.5276210000000 1.0
C      1  0.5908620000000  0.4637650000000  0.4657060000000 1.0
C      1  0.4577090000000  0.4166910000000  0.5800040000000 1.0
C      1  0.4448710000000  0.5734760000000  0.4728820000000 1.0
C      1  0.4487630000000  0.4251060000000  0.5515200000000 1.0
C      1  0.4892340000000  0.5344380000000  0.3924150000000 1.0
C      1  0.4679390000000  0.4379550000000  0.5969900000000 1.0
C      1  0.5575200000000  0.5616440000000  0.5113840000000 1.0
C      1  0.5022310000000  0.4771980000000  0.5908320000000 1.0
C      1  0.5212870000000  0.5805170000000  0.4362180000000 1.0
C      1  0.5837510000000  0.5249270000000  0.5470350000000 1.0
C      1  0.4675090000000  0.5889470000000  0.4628580000000 1.0
C      1  0.4511860000000  0.4626540000000  0.5952210000000 1.0
C      1  0.5566930000000  0.5873880000000  0.5266510000000 1.0
C      1  0.5690270000000  0.5543130000000  0.4852820000000 1.0
C      1  0.4336510000000  0.5796320000000  0.5262090000000 1.0
C      1  0.4235070000000  0.4412880000000  0.5586940000000 1.0
C      1  0.5599870000000  0.4189870000000  0.4674620000000 1.0
C      1  0.4826500000000  0.5533630000000  0.4343740000000 1.0
C      1  0.5268750000000  0.4701860000000  0.4484800000000 1.0
C      1  0.4696380000000  0.4014810000000  0.4791000000000 1.0
C      1  0.4250430000000  0.4814510000000  0.4444070000000 1.0
C      1  0.4341300000000  0.5076690000000  0.5816690000000 1.0
C      1  0.4557860000000  0.5354310000000  0.4948600000000 1.0
C      1  0.4716530000000  0.5706060000000  0.5159740000000 1.0
C      1  0.5320190000000  0.5878840000000  0.5431570000000 1.0
C      1  0.4713170000000  0.4805460000000  0.4024870000000 1.0
C      1  0.5350690000000  0.4129350000000  0.4532290000000 1.0
C      1  0.5972770000000  0.4885570000000  0.4548810000000 1.0
C      1  0.5515800000000  0.4926500000000  0.5896750000000 1.0
C      1  0.4613450000000  0.5301100000000  0.4000910000000 1.0
C      1  0.5957420000000  0.5169030000000  0.4552590000000 1.0
C      1  0.6031280000000  0.4838290000000  0.5353890000000 1.0
C      1  0.5361060000000  0.5353980000000  0.4292000000000 1.0
C      1  0.5832790000000  0.5168360000000  0.4286860000000 1.0
C      1  0.5674020000000  0.4918530000000  0.4250710000000 1.0
C      1  0.4444760000000  0.4561210000000  0.4361890000000 1.0
C      1  0.5587500000000  0.4429220000000  0.4312450000000 1.0
C      1  0.5981540000000  0.4943930000000  0.5088550000000 1.0
C      1  0.4799350000000  0.4210550000000  0.4577970000000 1.0
C      1  0.4593420000000  0.5947670000000  0.5285640000000 1.0
C      1  0.5483790000000  0.4600590000000  0.5243870000000 1.0
C      1  0.4690090000000  0.6173620000000  0.4703350000000 1.0
C      1  0.5662590000000  0.5411050000000  0.4253140000000 1.0
C      1  0.4746970000000  0.4335970000000  0.4166160000000 1.0
C      1  0.5470480000000  0.5616690000000  0.4642450000000 1.0
C      1  0.3899370000000  0.4772990000000  0.4860720000000 1.0
C      1  0.4955810000000  0.5340120000000  0.5014990000000 1.0
C      1  0.4567760000000  0.4537310000000  0.4099310000000 1.0
C      1  0.5780290000000  0.4787840000000  0.4907200000000 1.0
C      1  0.5868970000000  0.4424360000000  0.5235700000000 1.0
C      1  0.5113330000000  0.4086640000000  0.4980360000000 1.0
C      1  0.5256740000000  0.5593970000000  0.5506100000000 1.0
C      1  0.4068450000000  0.4568590000000  0.5401750000000 1.0
C      1  0.4856750000000  0.4197610000000  0.5813640000000 1.0
C      1  0.4141130000000  0.5347560000000  0.5405930000000 1.0
C      1  0.4019190000000  0.4846730000000  0.5498030000000 1.0
C      1  0.5237350000000  0.5890830000000  0.4633940000000 1.0
C      1  0.5781080000000  0.4867470000000  0.5766430000000 1.0
C      1  0.5236770000000  0.4602780000000  0.5219460000000 1.0
C      1  0.4001690000000  0.4709190000000  0.4588040000000 1.0
C      1  0.4314910000000  0.4989090000000  0.4694910000000 1.0
C      1  0.5111900000000  0.4894990000000  0.4342810000000 1.0
C      1  0.5965590000000  0.5003840000000  0.5590300000000 1.0
C      1  0.4577580000000  0.5278250000000  0.5231650000000 1.0
C      1  0.4084250000000  0.5059390000000  0.5300320000000 1.0
C      1  0.4968860000000  0.4203540000000  0.5526540000000 1.0
C      1  0.4532000000000  0.5622270000000  0.4967970000000 1.0
C      1  0.4574370000000  0.5763440000000  0.5831390000000 1.0
C      1  0.4557510000000  0.4918840000000  0.5955750000000 1.0
C      1  0.5197680000000  0.5277910000000  0.6023180000000 1.0
C      1  0.4680350000000  0.5497330000000  0.5407890000000 1.0
C      1  0.5256000000000  0.5620620000000  0.4160530000000 1.0
C      1  0.5583800000000  0.4621830000000  0.5514360000000 1.0
C      1  0.5381100000000  0.4477430000000  0.5709680000000 1.0
C      1  0.5890770000000  0.5339020000000  0.4796610000000 1.0
C      1  0.4942160000000  0.4836150000000  0.5629550000000 1.0
C      1  0.6009030000000  0.5400180000000  0.5289220000000 1.0
C      1  0.4976110000000  0.5579870000000  0.4090880000000 1.0
C      1  0.4641320000000  0.4484270000000  0.4560430000000 1.0
C      1  0.6014870000000  0.5221770000000  0.5034060000000 1.0
C      1  0.5435920000000  0.5242540000000  0.5885900000000 1.0
C      1  0.5276890000000  0.4257390000000  0.5551620000000 1.0
C      1  0.4261370000000  0.4596440000000  0.5811330000000 1.0
C      1  0.5325410000000  0.5211540000000  0.5166910000000 1.0
C      1  0.5195390000000  0.4512450000000  0.4697930000000 1.0
C      1  0.5018870000000  0.5620270000000  0.5023020000000 1.0
C      1  0.4321610000000  0.5081630000000  0.4281090000000 1.0
C      1  0.5469590000000  0.4893070000000  0.4043430000000 1.0
C      1  0.5253670000000  0.5355950000000  0.4588110000000 1.0
C      1  0.4086310000000  0.4544880000000  0.4810320000000 1.0
C      1  0.4969140000000  0.5402760000000  0.4560090000000 1.0
C      1  0.5449420000000  0.4124890000000  0.5354750000000 1.0
C      1  0.4831970000000  0.6006990000000  0.5455930000000 1.0
C      1  0.4150180000000  0.4867260000000  0.5752530000000 1.0
C      1  0.4787670000000  0.5268290000000  0.4781410000000 1.0
C      1  0.4966950000000  0.5109350000000  0.5541580000000 1.0
C      1  0.5302990000000  0.5505870000000  0.5180130000000 1.0
C      1  0.4554470000000  0.5463710000000  0.4243800000000 1.0
C      1  0.4361880000000  0.4588950000000  0.4939460000000 1.0
END
