TITL C-884127-5181-53 4725880.62138851 125000 -17777.3315974825 0 0 119 (C1) n - 1
REM
REM in /home/nfs/bkarasulu/CARBON/AIRSS/Generating-Clusters/ReaxFF-fromJPCA2015/Units_Real/with-SteepDescent/Only-C1/SD-CG/Try1-3A/FIRE-CG
REM
REM
REM
REM
REM
REM ./C.cell (11c1c37f851c82e70ff6c80c92926a4b)
REM
REM compiler GCC version 9.2.1 20190827 (Red Hat 9.2.1-1)
REM options -cpp -mtune=generic -march=x86-64 -g -O0 -fpre-include=/usr/include/finclude/math-vector-fortran.h
REM seed -1562190322 -937529226 -464936271 502207287 787982367 -1940791107 -571505287 531500094 1814131521 -1754530377 -680246329 -437444145 -356247494 2086945056 -649240271 -1303302681 220299784 -140843230 -896369848 -613067613 874456881 126285773 269142867 608674875 468009556 1824487496 1528110681 1763716590 101242072 1413898238 -924691581 -1942639754 1247596348
REM
CELL 1.54180   50.00000   50.00000   50.00000   90.00000   90.00000   90.00000
LATT -1
SFAC C  
C      1  0.4935070000000  0.4990410000000  0.4525090000000 1.0
C      1  0.5239470000000  0.5820580000000  0.4893500000000 1.0
C      1  0.5942290000000  0.5056090000000  0.4899040000000 1.0
C      1  0.5085290000000  0.4716320000000  0.4986590000000 1.0
C      1  0.5405090000000  0.4527060000000  0.4254220000000 1.0
C      1  0.5372740000000  0.5502330000000  0.4308690000000 1.0
C      1  0.4844320000000  0.5668940000000  0.4460580000000 1.0
C      1  0.4941530000000  0.5057580000000  0.4210800000000 1.0
C      1  0.5817700000000  0.5220030000000  0.4690660000000 1.0
C      1  0.4696660000000  0.5419150000000  0.5849370000000 1.0
C      1  0.5195230000000  0.4344310000000  0.5552600000000 1.0
C      1  0.5152930000000  0.5675930000000  0.5439240000000 1.0
C      1  0.4790920000000  0.4268610000000  0.5452300000000 1.0
C      1  0.5874930000000  0.5138050000000  0.5177810000000 1.0
C      1  0.5734460000000  0.4690080000000  0.4697440000000 1.0
C      1  0.5482950000000  0.5225760000000  0.4278450000000 1.0
C      1  0.4350550000000  0.4170240000000  0.4917480000000 1.0
C      1  0.4453230000000  0.4552160000000  0.5587360000000 1.0
C      1  0.4274100000000  0.4344760000000  0.4711070000000 1.0
C      1  0.5729020000000  0.4396870000000  0.5195060000000 1.0
C      1  0.4096660000000  0.4850940000000  0.5008020000000 1.0
C      1  0.4320080000000  0.5647500000000  0.4953610000000 1.0
C      1  0.4955520000000  0.4467550000000  0.4972660000000 1.0
C      1  0.5777320000000  0.4882340000000  0.5365210000000 1.0
C      1  0.5148670000000  0.5537190000000  0.4843610000000 1.0
C      1  0.4665970000000  0.4695220000000  0.4251770000000 1.0
C      1  0.4662780000000  0.4913600000000  0.5800540000000 1.0
C      1  0.4820420000000  0.5714900000000  0.5168010000000 1.0
C      1  0.5075590000000  0.4111750000000  0.4800250000000 1.0
C      1  0.4118050000000  0.5232170000000  0.5410900000000 1.0
C      1  0.4934260000000  0.5875360000000  0.4948860000000 1.0
C      1  0.5608690000000  0.5432740000000  0.4768530000000 1.0
C      1  0.4341280000000  0.5425830000000  0.4740620000000 1.0
C      1  0.4288220000000  0.4840560000000  0.4374840000000 1.0
C      1  0.5341980000000  0.5344710000000  0.4906610000000 1.0
C      1  0.4924280000000  0.4307520000000  0.4372370000000 1.0
C      1  0.5206300000000  0.5387480000000  0.5409830000000 1.0
C      1  0.4141760000000  0.4964020000000  0.4750880000000 1.0
C      1  0.4805300000000  0.4244890000000  0.4825170000000 1.0
C      1  0.5152940000000  0.4256280000000  0.5051810000000 1.0
C      1  0.5876630000000  0.4648510000000  0.5182980000000 1.0
C      1  0.4371990000000  0.4939160000000  0.5710420000000 1.0
C      1  0.4954790000000  0.5528750000000  0.5780780000000 1.0
C      1  0.4864460000000  0.4669950000000  0.5821580000000 1.0
C      1  0.5697600000000  0.4267730000000  0.5457810000000 1.0
C      1  0.4447930000000  0.5456430000000  0.5691600000000 1.0
C      1  0.5033600000000  0.4988330000000  0.5151710000000 1.0
C      1  0.5724060000000  0.5121620000000  0.4436990000000 1.0
C      1  0.4425250000000  0.4350320000000  0.4458510000000 1.0
C      1  0.4821620000000  0.5155990000000  0.5075630000000 1.0
C      1  0.5535160000000  0.4922830000000  0.4796640000000 1.0
C      1  0.5172410000000  0.4604960000000  0.4110490000000 1.0
C      1  0.4816300000000  0.5230110000000  0.4647400000000 1.0
C      1  0.4916430000000  0.5749510000000  0.5601230000000 1.0
C      1  0.4571830000000  0.4776790000000  0.4762310000000 1.0
C      1  0.5483800000000  0.4382010000000  0.5013190000000 1.0
C      1  0.5364640000000  0.4790520000000  0.5670240000000 1.0
C      1  0.5555640000000  0.4440890000000  0.4734570000000 1.0
C      1  0.4095730000000  0.5120580000000  0.5145760000000 1.0
C      1  0.4696750000000  0.4813170000000  0.4516070000000 1.0
C      1  0.4447140000000  0.4809930000000  0.5466560000000 1.0
C      1  0.4272740000000  0.5217640000000  0.5652520000000 1.0
C      1  0.5077410000000  0.5101690000000  0.5868930000000 1.0
C      1  0.4400970000000  0.4578430000000  0.4866850000000 1.0
C      1  0.4587700000000  0.5027530000000  0.4963640000000 1.0
C      1  0.4765010000000  0.5855060000000  0.4713210000000 1.0
C      1  0.5560620000000  0.5048480000000  0.5062980000000 1.0
C      1  0.5526070000000  0.4839520000000  0.5224300000000 1.0
C      1  0.4916030000000  0.4541210000000  0.4186540000000 1.0
C      1  0.5566390000000  0.4764400000000  0.4219390000000 1.0
C      1  0.4507560000000  0.5343650000000  0.5238020000000 1.0
C      1  0.5668320000000  0.5466350000000  0.5478140000000 1.0
C      1  0.5575160000000  0.4974980000000  0.5599050000000 1.0
C      1  0.5205670000000  0.5319090000000  0.5699830000000 1.0
C      1  0.5751900000000  0.4836100000000  0.4423330000000 1.0
C      1  0.4290890000000  0.4654320000000  0.5134940000000 1.0
C      1  0.5289720000000  0.4888570000000  0.4686300000000 1.0
C      1  0.4724410000000  0.4903180000000  0.5498990000000 1.0
C      1  0.5051560000000  0.4208180000000  0.5345890000000 1.0
C      1  0.5128850000000  0.4882450000000  0.4070610000000 1.0
C      1  0.5123500000000  0.4813480000000  0.5838180000000 1.0
C      1  0.4689970000000  0.4269320000000  0.4526700000000 1.0
C      1  0.5461880000000  0.4242940000000  0.5640490000000 1.0
C      1  0.5399160000000  0.4372510000000  0.4505130000000 1.0
C      1  0.4392400000000  0.4592490000000  0.4280500000000 1.0
C      1  0.5399140000000  0.4994830000000  0.4133140000000 1.0
C      1  0.5712400000000  0.5597460000000  0.5011390000000 1.0
C      1  0.5065370000000  0.4752690000000  0.4698450000000 1.0
C      1  0.4437460000000  0.5660320000000  0.5483660000000 1.0
C      1  0.5284000000000  0.5215170000000  0.5158100000000 1.0
C      1  0.5144510000000  0.5697640000000  0.4374160000000 1.0
C      1  0.4372520000000  0.5384300000000  0.4454310000000 1.0
C      1  0.4300930000000  0.5558380000000  0.5242160000000 1.0
C      1  0.4568610000000  0.5236680000000  0.4772040000000 1.0
C      1  0.5521510000000  0.5626480000000  0.4525220000000 1.0
C      1  0.5928080000000  0.4766040000000  0.4926160000000 1.0
C      1  0.5532950000000  0.5259950000000  0.5632420000000 1.0
C      1  0.5340020000000  0.4633370000000  0.5160460000000 1.0
C      1  0.4946830000000  0.5473690000000  0.4656890000000 1.0
C      1  0.4802960000000  0.5159220000000  0.5925810000000 1.0
C      1  0.4766900000000  0.5283310000000  0.4145670000000 1.0
C      1  0.4391250000000  0.5113210000000  0.5145120000000 1.0
C      1  0.4690690000000  0.5795170000000  0.5418370000000 1.0
C      1  0.4972140000000  0.4836630000000  0.5388480000000 1.0
C      1  0.5359310000000  0.5883660000000  0.5532600000000 1.0
C      1  0.4781380000000  0.5421340000000  0.5175990000000 1.0
C      1  0.5505440000000  0.5773100000000  0.5085130000000 1.0
C      1  0.5814570000000  0.5423690000000  0.5238620000000 1.0
C      1  0.5309840000000  0.5816930000000  0.4580880000000 1.0
C      1  0.5151890000000  0.4219180000000  0.4539760000000 1.0
C      1  0.4228220000000  0.5083000000000  0.4503270000000 1.0
C      1  0.5576030000000  0.5757520000000  0.5373650000000 1.0
C      1  0.4728900000000  0.4468550000000  0.5670720000000 1.0
C      1  0.5202450000000  0.4646690000000  0.5453990000000 1.0
C      1  0.4622430000000  0.5472270000000  0.4329800000000 1.0
C      1  0.4546760000000  0.4224650000000  0.5282890000000 1.0
C      1  0.4351480000000  0.4443390000000  0.5336960000000 1.0
C      1  0.4595950000000  0.4103020000000  0.5024140000000 1.0
C      1  0.4534870000000  0.5790960000000  0.4851180000000 1.0
END
