TITL C-884139-6216-302 4.87089566045775 125000 -1963.96530751902 0 0 15 (C1) n - 1
REM
REM in /home/nfs/bkarasulu/CARBON/AIRSS/Generating-Clusters/ReaxFF-fromJPCA2015/Units_Real/with-SteepDescent/Only-C1/SD-CG/Try1-3A/FIRE-CG
REM
REM
REM
REM
REM
REM ./C.cell (11c1c37f851c82e70ff6c80c92926a4b)
REM
REM compiler GCC version 9.2.1 20190827 (Red Hat 9.2.1-1)
REM options -cpp -mtune=generic -march=x86-64 -g -O0 -fpre-include=/usr/include/finclude/math-vector-fortran.h
REM seed 803498422 868808639 -273073733 -1209132571 380515683 434845974 -1621936391 -1378714482 218638873 697255027 1349264634 2089583160 1537232966 726601828 -1372792064 1151530058 2109756141 -728131999 -131957875 1579322497 -1470394456 397700952 1602901363 1250661149 -1775207743 1237218851 1699273901 -721875967 -281972774 1008729930 1016098027 1730268693 -1792961177
REM
CELL 1.54180   50.00000   50.00000   50.00000   90.00000   90.00000   90.00000
LATT -1
SFAC C  
C      1  0.5452570000000  0.4882830000000  0.4713620000000 1.0
C      1  0.5291340000000  0.5275530000000  0.4684640000000 1.0
C      1  0.4743550000000  0.5468760000000  0.5186850000000 1.0
C      1  0.4871820000000  0.5111300000000  0.5371490000000 1.0
C      1  0.4793330000000  0.5462140000000  0.4909740000000 1.0
C      1  0.5102600000000  0.4667640000000  0.5293690000000 1.0
C      1  0.5298360000000  0.4713840000000  0.4849420000000 1.0
C      1  0.4867370000000  0.5382560000000  0.5467360000000 1.0
C      1  0.4847720000000  0.4515960000000  0.4890140000000 1.0
C      1  0.5545800000000  0.5181620000000  0.4612920000000 1.0
C      1  0.4453770000000  0.4830420000000  0.4957070000000 1.0
C      1  0.5120820000000  0.4553780000000  0.5002140000000 1.0
C      1  0.5047420000000  0.5365540000000  0.4753380000000 1.0
C      1  0.4876120000000  0.4849280000000  0.5278870000000 1.0
C      1  0.4687410000000  0.4738810000000  0.5028660000000 1.0
END
