TITL C-883741-3679-411 3.15112418151332 125000 -7190.95306110076 0 0 49 (C1) n - 1
REM
REM in /home/nfs/bkarasulu/CARBON/AIRSS/Generating-Clusters/ReaxFF-fromJPCA2015/Units_Real/with-SteepDescent/Only-C1/SD-CG/Try1-3A/FIRE-CG
REM
REM
REM
REM
REM
REM ./C.cell (11c1c37f851c82e70ff6c80c92926a4b)
REM
REM compiler GCC version 9.2.1 20190827 (Red Hat 9.2.1-1)
REM options -cpp -mtune=generic -march=x86-64 -g -O0 -fpre-include=/usr/include/finclude/math-vector-fortran.h
REM seed 2108704941 736990021 1278106174 -1082791726 1528417033 -1892022028 1165066912 103660791 511460609 1642390315 -758470250 -154056268 1724414738 1012779550 859183813 -1363157199 -1227652998 -667708796 -779451935 -707416381 -1207317727 646011060 -1225721273 -1790237376 1407520229 727105812 524766935 789512629 844284213 -1595857917 -660478181 -945255509 1110928918
REM
CELL 1.54180   50.00000   50.00000   50.00000   90.00000   90.00000   90.00000
LATT -1
SFAC C  
C      1  0.4898050000000  0.5160900000000  0.5413330000000 1.0
C      1  0.4609510000000  0.5238390000000  0.5476110000000 1.0
C      1  0.5051690000000  0.4189820000000  0.5062080000000 1.0
C      1  0.4970070000000  0.4276100000000  0.4845980000000 1.0
C      1  0.4228280000000  0.4958460000000  0.5143520000000 1.0
C      1  0.4686620000000  0.5026540000000  0.4481460000000 1.0
C      1  0.5407050000000  0.5517040000000  0.5050400000000 1.0
C      1  0.5602510000000  0.4660780000000  0.4773600000000 1.0
C      1  0.4309560000000  0.4945630000000  0.4637530000000 1.0
C      1  0.4599870000000  0.4554970000000  0.4653400000000 1.0
C      1  0.4796920000000  0.5580350000000  0.4730800000000 1.0
C      1  0.4566120000000  0.5398600000000  0.4778920000000 1.0
C      1  0.5363470000000  0.5037650000000  0.5402580000000 1.0
C      1  0.5124850000000  0.4605160000000  0.4625610000000 1.0
C      1  0.4511350000000  0.4783590000000  0.4494870000000 1.0
C      1  0.5332140000000  0.4511190000000  0.5356040000000 1.0
C      1  0.4595960000000  0.5325950000000  0.5059030000000 1.0
C      1  0.5179910000000  0.4327480000000  0.5207460000000 1.0
C      1  0.4269310000000  0.4802790000000  0.4900940000000 1.0
C      1  0.5587300000000  0.5289890000000  0.5023130000000 1.0
C      1  0.5215580000000  0.5498550000000  0.5269250000000 1.0
C      1  0.5381920000000  0.5060570000000  0.4611920000000 1.0
C      1  0.5619710000000  0.5106290000000  0.5256550000000 1.0
C      1  0.4925570000000  0.5045770000000  0.4654210000000 1.0
C      1  0.4732170000000  0.4579810000000  0.5417400000000 1.0
C      1  0.5306940000000  0.5635640000000  0.4790680000000 1.0
C      1  0.5827440000000  0.4922720000000  0.5152650000000 1.0
C      1  0.5605900000000  0.4536870000000  0.5021110000000 1.0
C      1  0.4972580000000  0.5650360000000  0.5201500000000 1.0
C      1  0.5356940000000  0.4756360000000  0.4620050000000 1.0
C      1  0.5762990000000  0.4893100000000  0.4853910000000 1.0
C      1  0.5226880000000  0.4779560000000  0.5408270000000 1.0
C      1  0.5638840000000  0.4449250000000  0.5292590000000 1.0
C      1  0.5145740000000  0.5219720000000  0.4570660000000 1.0
C      1  0.4670620000000  0.4590920000000  0.5122110000000 1.0
C      1  0.4925450000000  0.5038920000000  0.4950120000000 1.0
C      1  0.4871390000000  0.5683010000000  0.4970870000000 1.0
C      1  0.5083710000000  0.5507970000000  0.4646100000000 1.0
C      1  0.4890090000000  0.4451910000000  0.4631430000000 1.0
C      1  0.4468400000000  0.4572560000000  0.4906020000000 1.0
C      1  0.4604980000000  0.5521200000000  0.5484120000000 1.0
C      1  0.4930840000000  0.4813800000000  0.5430980000000 1.0
C      1  0.5610660000000  0.5134910000000  0.4775910000000 1.0
C      1  0.4759840000000  0.4875580000000  0.5133060000000 1.0
C      1  0.4468180000000  0.5192990000000  0.4591000000000 1.0
C      1  0.4743160000000  0.5672590000000  0.5344510000000 1.0
C      1  0.4501140000000  0.5086660000000  0.5225550000000 1.0
C      1  0.4878400000000  0.5270260000000  0.5123890000000 1.0
C      1  0.5183440000000  0.5260880000000  0.5426800000000 1.0
END
