TITL C-883733-4178-256 35.7030535241251 125000 -27466.4694941899 0 0 182 (C1) n - 1
REM
REM in /home/nfs/bkarasulu/CARBON/AIRSS/Generating-Clusters/ReaxFF-fromJPCA2015/Units_Real/with-SteepDescent/Only-C1/SD-CG/Try1-3A/FIRE-CG
REM
REM
REM
REM
REM
REM ./C.cell (11c1c37f851c82e70ff6c80c92926a4b)
REM
REM compiler GCC version 9.2.1 20190827 (Red Hat 9.2.1-1)
REM options -cpp -mtune=generic -march=x86-64 -g -O0 -fpre-include=/usr/include/finclude/math-vector-fortran.h
REM seed -1632241309 -1460595059 462710902 1411666559 1389044299 376702603 1601146569 -575377814 -1879844655 1483807944 -1153357269 1319903927 966096470 1277514665 2012371071 2142036110 -731611491 -1809800301 -1496484503 524580109 -495118159 395283447 714032104 969471591 -2015734621 606610433 -1973937236 -44473290 1731082607 -1532199955 2022723420 1523540355 1365934332
REM
CELL 1.54180   50.00000   50.00000   50.00000   90.00000   90.00000   90.00000
LATT -1
SFAC C  
C      1  0.4523620000000  0.4374490000000  0.4043690000000 1.0
C      1  0.5886880000000  0.4383490000000  0.4904140000000 1.0
C      1  0.4850240000000  0.4463660000000  0.4912580000000 1.0
C      1  0.4630520000000  0.6035710000000  0.4849340000000 1.0
C      1  0.4646960000000  0.5427920000000  0.4041780000000 1.0
C      1  0.5118210000000  0.4793370000000  0.5078000000000 1.0
C      1  0.4304510000000  0.4343450000000  0.4484430000000 1.0
C      1  0.4534210000000  0.4996730000000  0.5422440000000 1.0
C      1  0.4038850000000  0.5084400000000  0.5904490000000 1.0
C      1  0.3892070000000  0.4852970000000  0.4500940000000 1.0
C      1  0.5095140000000  0.4739770000000  0.5556810000000 1.0
C      1  0.6041930000000  0.4677630000000  0.4490020000000 1.0
C      1  0.5130290000000  0.3914890000000  0.4678030000000 1.0
C      1  0.4409490000000  0.4267860000000  0.5491130000000 1.0
C      1  0.5256140000000  0.4900990000000  0.5930590000000 1.0
C      1  0.4885370000000  0.6066000000000  0.4756170000000 1.0
C      1  0.5024350000000  0.4074750000000  0.4462800000000 1.0
C      1  0.5260500000000  0.4233620000000  0.4395510000000 1.0
C      1  0.4995050000000  0.6084540000000  0.5303590000000 1.0
C      1  0.4987110000000  0.5636620000000  0.4134410000000 1.0
C      1  0.5690310000000  0.5711040000000  0.4811480000000 1.0
C      1  0.4793970000000  0.5018590000000  0.6074900000000 1.0
C      1  0.5577960000000  0.4606820000000  0.5709300000000 1.0
C      1  0.5421390000000  0.4022490000000  0.5248530000000 1.0
C      1  0.5262320000000  0.4623720000000  0.6045830000000 1.0
C      1  0.5452130000000  0.5291300000000  0.4558740000000 1.0
C      1  0.5810430000000  0.5535330000000  0.5657550000000 1.0
C      1  0.4851250000000  0.5502900000000  0.5985840000000 1.0
C      1  0.5947410000000  0.4487260000000  0.5396240000000 1.0
C      1  0.4045780000000  0.5289200000000  0.5433950000000 1.0
C      1  0.4071900000000  0.5038860000000  0.5225950000000 1.0
C      1  0.5019410000000  0.4213640000000  0.5727920000000 1.0
C      1  0.4600440000000  0.4934050000000  0.5004860000000 1.0
C      1  0.4673460000000  0.5505470000000  0.5264900000000 1.0
C      1  0.4412180000000  0.4437180000000  0.5733500000000 1.0
C      1  0.6079290000000  0.4948640000000  0.4594830000000 1.0
C      1  0.5487360000000  0.4151670000000  0.5508370000000 1.0
C      1  0.4911320000000  0.5191370000000  0.5578580000000 1.0
C      1  0.4809970000000  0.4331590000000  0.4106600000000 1.0
C      1  0.4141500000000  0.4944160000000  0.4360040000000 1.0
C      1  0.3817540000000  0.4892810000000  0.4785810000000 1.0
C      1  0.3915280000000  0.4635520000000  0.4687400000000 1.0
C      1  0.4887150000000  0.4293000000000  0.5478550000000 1.0
C      1  0.5741420000000  0.5325350000000  0.4629760000000 1.0
C      1  0.4950510000000  0.3844030000000  0.4871340000000 1.0
C      1  0.5693600000000  0.4553780000000  0.4185220000000 1.0
C      1  0.5495690000000  0.4723070000000  0.4040330000000 1.0
C      1  0.6042180000000  0.4507740000000  0.5126550000000 1.0
C      1  0.4999650000000  0.4904500000000  0.3979020000000 1.0
C      1  0.5286380000000  0.5058500000000  0.4634420000000 1.0
C      1  0.4591980000000  0.4697440000000  0.4554230000000 1.0
C      1  0.5918140000000  0.4445810000000  0.4618480000000 1.0
C      1  0.4152280000000  0.4584650000000  0.5704700000000 1.0
C      1  0.4984770000000  0.5365800000000  0.4649710000000 1.0
C      1  0.4087180000000  0.5317250000000  0.5714170000000 1.0
C      1  0.5844420000000  0.5464460000000  0.4881310000000 1.0
C      1  0.4623250000000  0.5153580000000  0.4498500000000 1.0
C      1  0.5867900000000  0.5256390000000  0.5639310000000 1.0
C      1  0.5652720000000  0.4396790000000  0.5450470000000 1.0
C      1  0.4193420000000  0.4513840000000  0.4713010000000 1.0
C      1  0.4870550000000  0.4583610000000  0.5443930000000 1.0
C      1  0.5197560000000  0.4816360000000  0.4467150000000 1.0
C      1  0.4218550000000  0.4335900000000  0.5271530000000 1.0
C      1  0.5231880000000  0.4530120000000  0.4357510000000 1.0
C      1  0.5075130000000  0.5135280000000  0.4824960000000 1.0
C      1  0.5601970000000  0.4408700000000  0.4971150000000 1.0
C      1  0.5051420000000  0.5441730000000  0.3928320000000 1.0
C      1  0.5403670000000  0.5625260000000  0.4834760000000 1.0
C      1  0.4651500000000  0.4028240000000  0.5108950000000 1.0
C      1  0.5547740000000  0.5015530000000  0.4977210000000 1.0
C      1  0.5073350000000  0.5684520000000  0.5883420000000 1.0
C      1  0.5678300000000  0.5842600000000  0.5333260000000 1.0
C      1  0.5316130000000  0.4212480000000  0.5734960000000 1.0
C      1  0.3928120000000  0.5094800000000  0.4969200000000 1.0
C      1  0.4993410000000  0.4538830000000  0.6126960000000 1.0
C      1  0.4573570000000  0.5502670000000  0.5930660000000 1.0
C      1  0.4754140000000  0.5526700000000  0.4751920000000 1.0
C      1  0.5394980000000  0.5904710000000  0.4249300000000 1.0
C      1  0.5268020000000  0.5299740000000  0.6055850000000 1.0
C      1  0.5820770000000  0.4993530000000  0.4934260000000 1.0
C      1  0.4887260000000  0.5191360000000  0.4402040000000 1.0
C      1  0.4446730000000  0.5232120000000  0.4070280000000 1.0
C      1  0.4630750000000  0.4499420000000  0.5915700000000 1.0
C      1  0.5219900000000  0.4672760000000  0.3955200000000 1.0
C      1  0.5085760000000  0.6019960000000  0.5013830000000 1.0
C      1  0.4767230000000  0.4226380000000  0.4443550000000 1.0
C      1  0.5121860000000  0.4494190000000  0.5047200000000 1.0
C      1  0.5522640000000  0.4164190000000  0.4486120000000 1.0
C      1  0.5146810000000  0.5772140000000  0.4373330000000 1.0
C      1  0.4324390000000  0.4482360000000  0.4226480000000 1.0
C      1  0.5859860000000  0.5636720000000  0.5372580000000 1.0
C      1  0.4388380000000  0.5990830000000  0.4980740000000 1.0
C      1  0.5566450000000  0.4122780000000  0.4998500000000 1.0
C      1  0.5974080000000  0.5208250000000  0.5363080000000 1.0
C      1  0.5730070000000  0.5066540000000  0.5823890000000 1.0
C      1  0.5392740000000  0.6084400000000  0.5039680000000 1.0
C      1  0.4715540000000  0.4808150000000  0.3932800000000 1.0
C      1  0.5366090000000  0.4792770000000  0.4926470000000 1.0
C      1  0.4506130000000  0.4163190000000  0.4590190000000 1.0
C      1  0.5624250000000  0.5960250000000  0.4940810000000 1.0
C      1  0.5239010000000  0.4368130000000  0.4802840000000 1.0
C      1  0.4648350000000  0.4146410000000  0.5377570000000 1.0
C      1  0.4680880000000  0.5841090000000  0.4376160000000 1.0
C      1  0.4481200000000  0.4936580000000  0.4029970000000 1.0
C      1  0.5202560000000  0.5978750000000  0.5468360000000 1.0
C      1  0.5466920000000  0.5097590000000  0.5970370000000 1.0
C      1  0.5085460000000  0.4476940000000  0.4109580000000 1.0
C      1  0.5469090000000  0.6031860000000  0.5324250000000 1.0
C      1  0.5443520000000  0.5341690000000  0.5316950000000 1.0
C      1  0.5579500000000  0.5002660000000  0.4044050000000 1.0
C      1  0.5541610000000  0.5592740000000  0.5755870000000 1.0
C      1  0.4776010000000  0.4489990000000  0.4624130000000 1.0
C      1  0.4976500000000  0.5247140000000  0.6072360000000 1.0
C      1  0.4434820000000  0.5355860000000  0.5262880000000 1.0
C      1  0.4455020000000  0.5385170000000  0.4520960000000 1.0
C      1  0.4603270000000  0.5769710000000  0.5409210000000 1.0
C      1  0.4894570000000  0.3835080000000  0.5142650000000 1.0
C      1  0.4090330000000  0.5499340000000  0.4368980000000 1.0
C      1  0.4639050000000  0.5133650000000  0.5657100000000 1.0
C      1  0.4172810000000  0.4758200000000  0.5230500000000 1.0
C      1  0.4699300000000  0.4531810000000  0.3923000000000 1.0
C      1  0.5522440000000  0.4792990000000  0.5314290000000 1.0
C      1  0.4000630000000  0.5354190000000  0.4858970000000 1.0
C      1  0.4868390000000  0.4331070000000  0.5952810000000 1.0
C      1  0.4158120000000  0.5822190000000  0.4876510000000 1.0
C      1  0.4174060000000  0.5495790000000  0.5278170000000 1.0
C      1  0.5269810000000  0.5527140000000  0.4586360000000 1.0
C      1  0.5821440000000  0.5018400000000  0.4206340000000 1.0
C      1  0.6091830000000  0.4972210000000  0.4893940000000 1.0
C      1  0.4076920000000  0.4551800000000  0.5404240000000 1.0
C      1  0.5392750000000  0.5200810000000  0.3933330000000 1.0
C      1  0.4546430000000  0.4933720000000  0.4706120000000 1.0
C      1  0.6159930000000  0.4780860000000  0.5118350000000 1.0
C      1  0.4754820000000  0.5630680000000  0.5010860000000 1.0
C      1  0.4620820000000  0.4721720000000  0.5377670000000 1.0
C      1  0.4496590000000  0.4158010000000  0.4894960000000 1.0
C      1  0.5811010000000  0.4799430000000  0.5760890000000 1.0
C      1  0.4312550000000  0.5132010000000  0.6015440000000 1.0
C      1  0.5908100000000  0.4737960000000  0.4235380000000 1.0
C      1  0.4460260000000  0.5977230000000  0.5272950000000 1.0
C      1  0.5419900000000  0.4434930000000  0.5898570000000 1.0
C      1  0.4462570000000  0.4688750000000  0.5128680000000 1.0
C      1  0.4258600000000  0.5406430000000  0.4728240000000 1.0
C      1  0.4104330000000  0.4829880000000  0.5815310000000 1.0
C      1  0.4774090000000  0.4726120000000  0.6073920000000 1.0
C      1  0.5114610000000  0.5155330000000  0.3897460000000 1.0
C      1  0.5386710000000  0.4793800000000  0.5553050000000 1.0
C      1  0.5025410000000  0.4964820000000  0.4296810000000 1.0
C      1  0.5358520000000  0.5498660000000  0.5551690000000 1.0
C      1  0.4334790000000  0.4381920000000  0.4997470000000 1.0
C      1  0.4923500000000  0.5948910000000  0.4492330000000 1.0
C      1  0.4050600000000  0.5600040000000  0.5025510000000 1.0
C      1  0.4160210000000  0.5662250000000  0.4629620000000 1.0
C      1  0.4579260000000  0.5647320000000  0.4562620000000 1.0
C      1  0.5014610000000  0.5727510000000  0.5043820000000 1.0
C      1  0.4285160000000  0.4770600000000  0.4169850000000 1.0
C      1  0.5496230000000  0.4520300000000  0.5219930000000 1.0
C      1  0.5331490000000  0.5581390000000  0.5971180000000 1.0
C      1  0.5090530000000  0.5504870000000  0.5197300000000 1.0
C      1  0.5356560000000  0.5490170000000  0.3914870000000 1.0
C      1  0.4707090000000  0.5699060000000  0.4110680000000 1.0
C      1  0.5399670000000  0.4086580000000  0.4757260000000 1.0
C      1  0.5057240000000  0.4976750000000  0.5717420000000 1.0
C      1  0.5899750000000  0.5141730000000  0.4461860000000 1.0
C      1  0.4922810000000  0.5271460000000  0.5293140000000 1.0
C      1  0.5417360000000  0.4581240000000  0.4733610000000 1.0
C      1  0.5450070000000  0.5060540000000  0.5253210000000 1.0
C      1  0.4190520000000  0.5256090000000  0.4251150000000 1.0
C      1  0.4567820000000  0.5038570000000  0.5913870000000 1.0
C      1  0.4725020000000  0.6033200000000  0.5403130000000 1.0
C      1  0.4424770000000  0.5096390000000  0.5180070000000 1.0
C      1  0.4323200000000  0.4763910000000  0.4602300000000 1.0
C      1  0.4923780000000  0.5021370000000  0.5055960000000 1.0
C      1  0.5161440000000  0.3918940000000  0.5215430000000 1.0
C      1  0.5346330000000  0.5476220000000  0.5081320000000 1.0
C      1  0.5500160000000  0.5715640000000  0.4047150000000 1.0
C      1  0.5153880000000  0.5719360000000  0.5604860000000 1.0
C      1  0.5998630000000  0.4730390000000  0.5547800000000 1.0
C      1  0.5918040000000  0.5420100000000  0.5162890000000 1.0
C      1  0.5716850000000  0.4366600000000  0.4418090000000 1.0
C      1  0.4308130000000  0.5414390000000  0.5913150000000 1.0
C      1  0.6088710000000  0.4936400000000  0.5353350000000 1.0
END
