TITL C-883740-3686-402 10.1519173880243 125000 -19942.3925637837 0 0 133 (C1) n - 1
REM
REM in /home/nfs/bkarasulu/CARBON/AIRSS/Generating-Clusters/ReaxFF-fromJPCA2015/Units_Real/with-SteepDescent/Only-C1/SD-CG/Try1-3A/FIRE-CG
REM
REM
REM
REM
REM
REM ./C.cell (11c1c37f851c82e70ff6c80c92926a4b)
REM
REM compiler GCC version 9.2.1 20190827 (Red Hat 9.2.1-1)
REM options -cpp -mtune=generic -march=x86-64 -g -O0 -fpre-include=/usr/include/finclude/math-vector-fortran.h
REM seed -1246851626 27510947 1521517987 1874226335 -1700373619 -258643883 -1176204182 1119606606 -1342822445 465404605 -970155894 -2052486179 -412221372 932470480 761876961 -748066150 1915549493 -624741056 2071444477 110638359 -667793905 -1274204144 1722814881 929951365 -1785935023 -524628111 -685166210 1755136819 -997204366 2062770270 -1101509416 -1752947401 1506010766
REM
CELL 1.54180   50.00000   50.00000   50.00000   90.00000   90.00000   90.00000
LATT -1
SFAC C  
C      1  0.4684090000000  0.4244990000000  0.4943840000000 1.0
C      1  0.5010510000000  0.4571690000000  0.4675610000000 1.0
C      1  0.4544040000000  0.5790790000000  0.5377060000000 1.0
C      1  0.5715270000000  0.4564820000000  0.5439320000000 1.0
C      1  0.4960140000000  0.5629900000000  0.5010140000000 1.0
C      1  0.4502860000000  0.5629690000000  0.4368190000000 1.0
C      1  0.4935830000000  0.5022810000000  0.6107890000000 1.0
C      1  0.4444700000000  0.5336660000000  0.4269880000000 1.0
C      1  0.4963270000000  0.4368370000000  0.4940410000000 1.0
C      1  0.5018800000000  0.4658390000000  0.4159630000000 1.0
C      1  0.4773350000000  0.4915800000000  0.4489630000000 1.0
C      1  0.5109240000000  0.4947740000000  0.4949380000000 1.0
C      1  0.4647690000000  0.5040570000000  0.5645140000000 1.0
C      1  0.4614790000000  0.4405360000000  0.4475460000000 1.0
C      1  0.4738520000000  0.5489430000000  0.5142390000000 1.0
C      1  0.5880160000000  0.4592480000000  0.4982130000000 1.0
C      1  0.4575380000000  0.4815550000000  0.5434050000000 1.0
C      1  0.5384690000000  0.4263670000000  0.5259480000000 1.0
C      1  0.4816450000000  0.5215420000000  0.5212610000000 1.0
C      1  0.5786260000000  0.4414500000000  0.5194120000000 1.0
C      1  0.5317960000000  0.5053100000000  0.5865590000000 1.0
C      1  0.4683950000000  0.4649950000000  0.5930750000000 1.0
C      1  0.4726010000000  0.5219980000000  0.6066660000000 1.0
C      1  0.5399790000000  0.4948410000000  0.4565680000000 1.0
C      1  0.4436730000000  0.5754570000000  0.4890040000000 1.0
C      1  0.5320670000000  0.5410450000000  0.4660780000000 1.0
C      1  0.4658330000000  0.4150550000000  0.5474630000000 1.0
C      1  0.4235670000000  0.4465860000000  0.5343970000000 1.0
C      1  0.4993500000000  0.6013980000000  0.5196570000000 1.0
C      1  0.4789160000000  0.5421480000000  0.4676870000000 1.0
C      1  0.5463470000000  0.4598790000000  0.4873190000000 1.0
C      1  0.4937670000000  0.5150940000000  0.4096470000000 1.0
C      1  0.5619710000000  0.5587900000000  0.5232750000000 1.0
C      1  0.5448910000000  0.5759620000000  0.5397360000000 1.0
C      1  0.5560280000000  0.4601430000000  0.4288310000000 1.0
C      1  0.4948450000000  0.4784320000000  0.5935160000000 1.0
C      1  0.5268490000000  0.5757290000000  0.4272600000000 1.0
C      1  0.5881500000000  0.4865630000000  0.5108320000000 1.0
C      1  0.5377640000000  0.4535510000000  0.5136470000000 1.0
C      1  0.5487800000000  0.5438580000000  0.5722970000000 1.0
C      1  0.4589190000000  0.4116160000000  0.5190500000000 1.0
C      1  0.5834730000000  0.4468710000000  0.4712890000000 1.0
C      1  0.5532700000000  0.4363440000000  0.4689460000000 1.0
C      1  0.4761490000000  0.4789800000000  0.4208760000000 1.0
C      1  0.4774810000000  0.4583420000000  0.5403360000000 1.0
C      1  0.4864050000000  0.4244690000000  0.4386200000000 1.0
C      1  0.4696390000000  0.6017120000000  0.5248020000000 1.0
C      1  0.4505680000000  0.5107070000000  0.5900320000000 1.0
C      1  0.4977940000000  0.4042880000000  0.4526180000000 1.0
C      1  0.4029450000000  0.4536950000000  0.4659820000000 1.0
C      1  0.4960690000000  0.4563160000000  0.5182620000000 1.0
C      1  0.4540540000000  0.5986670000000  0.5013200000000 1.0
C      1  0.5562410000000  0.5451280000000  0.4494100000000 1.0
C      1  0.4539300000000  0.4594000000000  0.4245720000000 1.0
C      1  0.5129980000000  0.3964380000000  0.4707850000000 1.0
C      1  0.5057110000000  0.5410040000000  0.4098750000000 1.0
C      1  0.4494590000000  0.4298560000000  0.4734670000000 1.0
C      1  0.4071530000000  0.4996230000000  0.4919900000000 1.0
C      1  0.5576350000000  0.4846820000000  0.4759740000000 1.0
C      1  0.4457190000000  0.5098580000000  0.4809650000000 1.0
C      1  0.4155070000000  0.4979110000000  0.5474570000000 1.0
C      1  0.5853190000000  0.4864710000000  0.4603370000000 1.0
C      1  0.5150210000000  0.4899550000000  0.4104500000000 1.0
C      1  0.4220440000000  0.5194960000000  0.4401350000000 1.0
C      1  0.4196790000000  0.5133120000000  0.4693470000000 1.0
C      1  0.4838020000000  0.4356650000000  0.5580070000000 1.0
C      1  0.4180560000000  0.4997800000000  0.4190700000000 1.0
C      1  0.5838180000000  0.5383460000000  0.4875560000000 1.0
C      1  0.5563160000000  0.5177390000000  0.5749340000000 1.0
C      1  0.5238350000000  0.4980940000000  0.5374650000000 1.0
C      1  0.5680720000000  0.5625410000000  0.4955390000000 1.0
C      1  0.4673820000000  0.5158160000000  0.4614370000000 1.0
C      1  0.4385660000000  0.4218170000000  0.5378970000000 1.0
C      1  0.5142580000000  0.5208890000000  0.6029840000000 1.0
C      1  0.5268050000000  0.4581780000000  0.5767130000000 1.0
C      1  0.5815250000000  0.4611540000000  0.4462840000000 1.0
C      1  0.4204320000000  0.5017820000000  0.5186560000000 1.0
C      1  0.5172200000000  0.4127320000000  0.4920510000000 1.0
C      1  0.5327880000000  0.5526860000000  0.4092010000000 1.0
C      1  0.4139610000000  0.4494650000000  0.5075010000000 1.0
C      1  0.3997280000000  0.4705990000000  0.4909170000000 1.0
C      1  0.5402270000000  0.5867740000000  0.4508870000000 1.0
C      1  0.5115730000000  0.4341900000000  0.5684990000000 1.0
C      1  0.4217550000000  0.4354200000000  0.4819210000000 1.0
C      1  0.5461940000000  0.4118020000000  0.4879340000000 1.0
C      1  0.4247450000000  0.5211410000000  0.5604290000000 1.0
C      1  0.5358550000000  0.4238520000000  0.5553020000000 1.0
C      1  0.5174180000000  0.5888730000000  0.5392220000000 1.0
C      1  0.4281480000000  0.4697900000000  0.5542430000000 1.0
C      1  0.5397040000000  0.4411500000000  0.4411540000000 1.0
C      1  0.5435570000000  0.4845560000000  0.4159280000000 1.0
C      1  0.4410250000000  0.5422270000000  0.5647370000000 1.0
C      1  0.5029280000000  0.5181660000000  0.5403860000000 1.0
C      1  0.4471910000000  0.5610360000000  0.5153690000000 1.0
C      1  0.4611220000000  0.4874420000000  0.4927060000000 1.0
C      1  0.4734150000000  0.4680270000000  0.4655310000000 1.0
C      1  0.4319470000000  0.4737670000000  0.4138660000000 1.0
C      1  0.4708040000000  0.5787770000000  0.4251950000000 1.0
C      1  0.5294910000000  0.5959450000000  0.4775390000000 1.0
C      1  0.5325460000000  0.5062480000000  0.5106960000000 1.0
C      1  0.4848340000000  0.5005500000000  0.5024090000000 1.0
C      1  0.4916350000000  0.5386860000000  0.5901540000000 1.0
C      1  0.4461350000000  0.4825260000000  0.6005290000000 1.0
C      1  0.5099020000000  0.4442630000000  0.4370970000000 1.0
C      1  0.5838960000000  0.5098030000000  0.4438530000000 1.0
C      1  0.4860470000000  0.5196560000000  0.5637860000000 1.0
C      1  0.5791370000000  0.4844380000000  0.5383000000000 1.0
C      1  0.5366320000000  0.5315240000000  0.4951740000000 1.0
C      1  0.5164450000000  0.4842660000000  0.5749910000000 1.0
C      1  0.5569570000000  0.5080020000000  0.4289160000000 1.0
C      1  0.5409100000000  0.5692900000000  0.5686780000000 1.0
C      1  0.5192790000000  0.4707110000000  0.5276240000000 1.0
C      1  0.5538570000000  0.5375900000000  0.4215690000000 1.0
C      1  0.4461340000000  0.4897450000000  0.5167400000000 1.0
C      1  0.5099360000000  0.5774060000000  0.5649280000000 1.0
C      1  0.5139650000000  0.5424420000000  0.5049470000000 1.0
C      1  0.5710160000000  0.5107010000000  0.5491730000000 1.0
C      1  0.4412800000000  0.4624060000000  0.5810220000000 1.0
C      1  0.5164310000000  0.4834420000000  0.4687620000000 1.0
C      1  0.5823440000000  0.5346530000000  0.4585150000000 1.0
C      1  0.5622720000000  0.4176360000000  0.5120220000000 1.0
C      1  0.4569460000000  0.5620710000000  0.4659560000000 1.0
C      1  0.4631180000000  0.5181480000000  0.4101270000000 1.0
C      1  0.4863440000000  0.5649660000000  0.5748260000000 1.0
C      1  0.4592300000000  0.5647360000000  0.5630760000000 1.0
C      1  0.5748130000000  0.5311040000000  0.5291590000000 1.0
C      1  0.5053410000000  0.5909580000000  0.4934980000000 1.0
C      1  0.5549390000000  0.5820360000000  0.4769030000000 1.0
C      1  0.5055750000000  0.5488900000000  0.4579630000000 1.0
C      1  0.4992400000000  0.5640390000000  0.4316190000000 1.0
C      1  0.4417220000000  0.4996270000000  0.4014590000000 1.0
C      1  0.5516580000000  0.4471590000000  0.5634810000000 1.0
C      1  0.5864650000000  0.5162280000000  0.5069370000000 1.0
END
