TITL C-883733-4178-201 -6.92926493183157 125000 -7112.41534389946 0 0 49 (C1) n - 1
REM
REM in /home/nfs/bkarasulu/CARBON/AIRSS/Generating-Clusters/ReaxFF-fromJPCA2015/Units_Real/with-SteepDescent/Only-C1/SD-CG/Try1-3A/FIRE-CG
REM
REM
REM
REM
REM
REM ./C.cell (11c1c37f851c82e70ff6c80c92926a4b)
REM
REM compiler GCC version 9.2.1 20190827 (Red Hat 9.2.1-1)
REM options -cpp -mtune=generic -march=x86-64 -g -O0 -fpre-include=/usr/include/finclude/math-vector-fortran.h
REM seed 16246534 -696332811 -1477863897 2080740409 -466721626 214008709 -869397259 -508069914 1023119263 -1840631709 -1533448359 696005934 1729018020 -1564797378 -2138209242 1254539933 -800417990 649669585 -1825165723 -1255774737 1271249225 569063109 1061169612 -1397296430 1481640040 13665508 10638583 1267073163 844046081 -898879505 1445611064 -228836777 -1318354659
REM
CELL 1.54180   50.00000   50.00000   50.00000   90.00000   90.00000   90.00000
LATT -1
SFAC C  
C      1  0.4709050000000  0.5527970000000  0.4845600000000 1.0
C      1  0.5326520000000  0.4567940000000  0.4829910000000 1.0
C      1  0.4814380000000  0.5735610000000  0.5025170000000 1.0
C      1  0.4599200000000  0.4849750000000  0.5210820000000 1.0
C      1  0.5642380000000  0.4990370000000  0.5005260000000 1.0
C      1  0.5285410000000  0.5393630000000  0.4427270000000 1.0
C      1  0.5247670000000  0.5093480000000  0.5323480000000 1.0
C      1  0.4835900000000  0.5252340000000  0.4429880000000 1.0
C      1  0.4802070000000  0.4617390000000  0.5611410000000 1.0
C      1  0.5454560000000  0.4928790000000  0.4481840000000 1.0
C      1  0.5211710000000  0.5447720000000  0.4690430000000 1.0
C      1  0.4726740000000  0.5157550000000  0.5537100000000 1.0
C      1  0.4647100000000  0.4834470000000  0.5496600000000 1.0
C      1  0.5388690000000  0.5302000000000  0.5576860000000 1.0
C      1  0.5689480000000  0.4720410000000  0.5148330000000 1.0
C      1  0.4426320000000  0.5136480000000  0.4687820000000 1.0
C      1  0.5285860000000  0.4573360000000  0.5447250000000 1.0
C      1  0.5027260000000  0.4426650000000  0.5518110000000 1.0
C      1  0.5365020000000  0.5433660000000  0.4938630000000 1.0
C      1  0.4743240000000  0.4292400000000  0.5063150000000 1.0
C      1  0.5363260000000  0.5492030000000  0.5394810000000 1.0
C      1  0.5573480000000  0.4981270000000  0.4731620000000 1.0
C      1  0.4450550000000  0.5378200000000  0.5140690000000 1.0
C      1  0.5078660000000  0.5815970000000  0.5134650000000 1.0
C      1  0.4600000000000  0.4550840000000  0.4621200000000 1.0
C      1  0.4956800000000  0.5155510000000  0.5310980000000 1.0
C      1  0.5563350000000  0.4509700000000  0.5002170000000 1.0
C      1  0.4417390000000  0.4701490000000  0.5025900000000 1.0
C      1  0.5314100000000  0.5631450000000  0.5155240000000 1.0
C      1  0.5120790000000  0.4657030000000  0.5028100000000 1.0
C      1  0.5262180000000  0.4727550000000  0.4591810000000 1.0
C      1  0.4801170000000  0.5233830000000  0.5797390000000 1.0
C      1  0.5347470000000  0.5151570000000  0.4314790000000 1.0
C      1  0.4934280000000  0.5345040000000  0.4704730000000 1.0
C      1  0.5535750000000  0.4521030000000  0.5297660000000 1.0
C      1  0.4822530000000  0.5025830000000  0.5092150000000 1.0
C      1  0.4990250000000  0.4844710000000  0.4630670000000 1.0
C      1  0.4949180000000  0.4448090000000  0.4951030000000 1.0
C      1  0.5079440000000  0.5255270000000  0.4279440000000 1.0
C      1  0.4729910000000  0.4786210000000  0.4493550000000 1.0
C      1  0.4535380000000  0.4455390000000  0.4891450000000 1.0
C      1  0.4851590000000  0.4314080000000  0.5327990000000 1.0
C      1  0.5175700000000  0.4792220000000  0.5296060000000 1.0
C      1  0.4939700000000  0.5051180000000  0.4828710000000 1.0
C      1  0.4459430000000  0.5388290000000  0.4863680000000 1.0
C      1  0.4622630000000  0.5062090000000  0.4472320000000 1.0
C      1  0.4471800000000  0.5345680000000  0.5400750000000 1.0
C      1  0.4395010000000  0.4914580000000  0.4851530000000 1.0
C      1  0.5429680000000  0.5181890000000  0.5074010000000 1.0
END
