TITL C-883740-3686-359 8.0896836784987 125000 -17528.4623155066 0 0 117 (C1) n - 1
REM
REM in /home/nfs/bkarasulu/CARBON/AIRSS/Generating-Clusters/ReaxFF-fromJPCA2015/Units_Real/with-SteepDescent/Only-C1/SD-CG/Try1-3A/FIRE-CG
REM
REM
REM
REM
REM
REM ./C.cell (11c1c37f851c82e70ff6c80c92926a4b)
REM
REM compiler GCC version 9.2.1 20190827 (Red Hat 9.2.1-1)
REM options -cpp -mtune=generic -march=x86-64 -g -O0 -fpre-include=/usr/include/finclude/math-vector-fortran.h
REM seed 411618564 231102592 349959630 -1085346357 868058204 1046257161 1450953530 -1848029401 1677355736 1305119875 1466982040 -620870563 1169714809 -856436820 -1320322412 -219175141 -1561323235 -1840236709 -1823585107 -1517049038 -2005008105 -1986482774 2049893831 1073462177 361957036 -40130162 2117396835 -483057754 1540465752 1531743670 1023400110 -609761241 309695216
REM
CELL 1.54180   50.00000   50.00000   50.00000   90.00000   90.00000   90.00000
LATT -1
SFAC C  
C      1  0.4970090000000  0.5037850000000  0.5552690000000 1.0
C      1  0.5556130000000  0.5069370000000  0.4433350000000 1.0
C      1  0.3958190000000  0.4758250000000  0.5011450000000 1.0
C      1  0.4718620000000  0.5228180000000  0.4867970000000 1.0
C      1  0.4103790000000  0.4909480000000  0.4531730000000 1.0
C      1  0.5075750000000  0.4562970000000  0.5790680000000 1.0
C      1  0.5256110000000  0.3993420000000  0.5131180000000 1.0
C      1  0.4919800000000  0.5777310000000  0.4445790000000 1.0
C      1  0.5273720000000  0.4741320000000  0.4770310000000 1.0
C      1  0.4733320000000  0.5127990000000  0.5398960000000 1.0
C      1  0.5864630000000  0.5131840000000  0.5283440000000 1.0
C      1  0.5820950000000  0.5566350000000  0.5071340000000 1.0
C      1  0.5039490000000  0.4427720000000  0.5100000000000 1.0
C      1  0.5637520000000  0.4965480000000  0.5593030000000 1.0
C      1  0.5743560000000  0.4964570000000  0.4882030000000 1.0
C      1  0.4525840000000  0.4218410000000  0.5059630000000 1.0
C      1  0.4705310000000  0.4938870000000  0.5863580000000 1.0
C      1  0.4134290000000  0.5129540000000  0.5401650000000 1.0
C      1  0.5310130000000  0.4669290000000  0.5327250000000 1.0
C      1  0.5387450000000  0.5598590000000  0.4420400000000 1.0
C      1  0.4412220000000  0.5772480000000  0.5118170000000 1.0
C      1  0.5765040000000  0.4608240000000  0.5190620000000 1.0
C      1  0.5410260000000  0.4287580000000  0.4566080000000 1.0
C      1  0.5460480000000  0.4362300000000  0.5754480000000 1.0
C      1  0.4429990000000  0.4727540000000  0.5539630000000 1.0
C      1  0.4865100000000  0.4292050000000  0.4364170000000 1.0
C      1  0.5235940000000  0.5864200000000  0.5343250000000 1.0
C      1  0.4898080000000  0.5718170000000  0.5075980000000 1.0
C      1  0.5509680000000  0.5887560000000  0.4929270000000 1.0
C      1  0.4726550000000  0.4137740000000  0.5257420000000 1.0
C      1  0.5069970000000  0.4643650000000  0.4591870000000 1.0
C      1  0.4613020000000  0.4322920000000  0.4506490000000 1.0
C      1  0.5078970000000  0.4844930000000  0.5372310000000 1.0
C      1  0.4291320000000  0.4389070000000  0.5119210000000 1.0
C      1  0.4721670000000  0.5856320000000  0.5556600000000 1.0
C      1  0.5823970000000  0.4498220000000  0.4675840000000 1.0
C      1  0.5810250000000  0.4682420000000  0.4915610000000 1.0
C      1  0.5112060000000  0.5922830000000  0.5085830000000 1.0
C      1  0.3944030000000  0.4904100000000  0.4768150000000 1.0
C      1  0.4673590000000  0.4676380000000  0.5746010000000 1.0
C      1  0.5013040000000  0.5472980000000  0.5151320000000 1.0
C      1  0.5052010000000  0.3986230000000  0.4948070000000 1.0
C      1  0.5100740000000  0.4342780000000  0.4577890000000 1.0
C      1  0.5329370000000  0.5132010000000  0.5206590000000 1.0
C      1  0.4968870000000  0.3965700000000  0.5209430000000 1.0
C      1  0.4220680000000  0.5553210000000  0.5075140000000 1.0
C      1  0.5382830000000  0.4992120000000  0.4656680000000 1.0
C      1  0.4512900000000  0.5137840000000  0.5753460000000 1.0
C      1  0.4432720000000  0.5328680000000  0.4357870000000 1.0
C      1  0.4092120000000  0.4986570000000  0.5146690000000 1.0
C      1  0.4136620000000  0.4553750000000  0.4889380000000 1.0
C      1  0.5622630000000  0.4352440000000  0.5245530000000 1.0
C      1  0.4269390000000  0.5126500000000  0.4443390000000 1.0
C      1  0.4350320000000  0.4982670000000  0.5023460000000 1.0
C      1  0.4997760000000  0.5330510000000  0.4586630000000 1.0
C      1  0.5673840000000  0.5658060000000  0.5290460000000 1.0
C      1  0.5640350000000  0.5537400000000  0.4545890000000 1.0
C      1  0.5569570000000  0.4158720000000  0.4783760000000 1.0
C      1  0.5647760000000  0.5639190000000  0.4838710000000 1.0
C      1  0.5504620000000  0.5879090000000  0.5222680000000 1.0
C      1  0.4723300000000  0.4888960000000  0.4154740000000 1.0
C      1  0.5435710000000  0.5384460000000  0.4899710000000 1.0
C      1  0.4947290000000  0.4436620000000  0.4128240000000 1.0
C      1  0.4216790000000  0.4624950000000  0.4621660000000 1.0
C      1  0.4977650000000  0.5057610000000  0.5840610000000 1.0
C      1  0.4542720000000  0.4781900000000  0.5063980000000 1.0
C      1  0.4802770000000  0.4765010000000  0.4624040000000 1.0
C      1  0.4260970000000  0.5420390000000  0.4816300000000 1.0
C      1  0.5868790000000  0.4210670000000  0.4738480000000 1.0
C      1  0.4460810000000  0.5794740000000  0.5409320000000 1.0
C      1  0.5546240000000  0.5144200000000  0.5020920000000 1.0
C      1  0.5247370000000  0.5248620000000  0.4724500000000 1.0
C      1  0.4713860000000  0.5289000000000  0.4221550000000 1.0
C      1  0.4963920000000  0.5454020000000  0.4314630000000 1.0
C      1  0.5480370000000  0.4875890000000  0.5830600000000 1.0
C      1  0.4293090000000  0.4497060000000  0.5379110000000 1.0
C      1  0.4872810000000  0.5608560000000  0.5602530000000 1.0
C      1  0.4819990000000  0.5087040000000  0.4075360000000 1.0
C      1  0.4298150000000  0.5012330000000  0.5609940000000 1.0
C      1  0.5253080000000  0.5413960000000  0.5321820000000 1.0
C      1  0.4630200000000  0.5374360000000  0.5600430000000 1.0
C      1  0.4662990000000  0.4332120000000  0.4814320000000 1.0
C      1  0.4640360000000  0.5779510000000  0.4940560000000 1.0
C      1  0.5791170000000  0.4853530000000  0.5362000000000 1.0
C      1  0.4992010000000  0.4726460000000  0.4049860000000 1.0
C      1  0.5437510000000  0.4430110000000  0.5460710000000 1.0
C      1  0.4438710000000  0.5194240000000  0.4880170000000 1.0
C      1  0.4981690000000  0.4243220000000  0.4849650000000 1.0
C      1  0.4684790000000  0.4638920000000  0.4857270000000 1.0
C      1  0.4445140000000  0.4550140000000  0.4448010000000 1.0
C      1  0.5335970000000  0.4603450000000  0.5889990000000 1.0
C      1  0.5151010000000  0.5638530000000  0.5516250000000 1.0
C      1  0.4620920000000  0.4783540000000  0.4396370000000 1.0
C      1  0.5360990000000  0.5128710000000  0.4214170000000 1.0
C      1  0.4868840000000  0.4493650000000  0.5639180000000 1.0
C      1  0.5252460000000  0.5404510000000  0.4257550000000 1.0
C      1  0.5082230000000  0.5012410000000  0.5141510000000 1.0
C      1  0.5193700000000  0.5803890000000  0.4556340000000 1.0
C      1  0.5258160000000  0.5021960000000  0.5956260000000 1.0
C      1  0.5595000000000  0.4487220000000  0.4462830000000 1.0
C      1  0.4901190000000  0.4353470000000  0.5344580000000 1.0
C      1  0.5189290000000  0.4917270000000  0.4123450000000 1.0
C      1  0.4796270000000  0.5458230000000  0.4730740000000 1.0
C      1  0.4591880000000  0.4878440000000  0.5330160000000 1.0
C      1  0.5255360000000  0.5934020000000  0.4822290000000 1.0
C      1  0.4381690000000  0.5525110000000  0.4572200000000 1.0
C      1  0.5749260000000  0.5268250000000  0.4536690000000 1.0
C      1  0.5527030000000  0.5477370000000  0.5442520000000 1.0
C      1  0.5487890000000  0.4160070000000  0.5067980000000 1.0
C      1  0.4625430000000  0.5695260000000  0.4654370000000 1.0
C      1  0.5903980000000  0.5181360000000  0.4775960000000 1.0
C      1  0.5927520000000  0.5300290000000  0.5046500000000 1.0
C      1  0.4194230000000  0.5410520000000  0.5332090000000 1.0
C      1  0.4877840000000  0.5222000000000  0.5115670000000 1.0
C      1  0.4392730000000  0.5531530000000  0.5506420000000 1.0
C      1  0.5695260000000  0.5241460000000  0.5496840000000 1.0
C      1  0.5248550000000  0.4616880000000  0.5043600000000 1.0
END
