TITL C-884131-4643-484 11.2505153989328 125000 -14719.3377733479 0 0 98 (C1) n - 1
REM
REM in /home/nfs/bkarasulu/CARBON/AIRSS/Generating-Clusters/ReaxFF-fromJPCA2015/Units_Real/with-SteepDescent/Only-C1/SD-CG/Try1-3A/FIRE-CG
REM
REM
REM
REM
REM
REM ./C.cell (11c1c37f851c82e70ff6c80c92926a4b)
REM
REM compiler GCC version 9.2.1 20190827 (Red Hat 9.2.1-1)
REM options -cpp -mtune=generic -march=x86-64 -g -O0 -fpre-include=/usr/include/finclude/math-vector-fortran.h
REM seed -329628825 -693385271 -1952743998 310591703 968380162 2050008946 -1326647425 -1424401518 1282994485 1661430853 -1150388310 588287256 1887369796 216702442 1668338123 301822702 -1076258324 -398638370 -2101955212 1868878632 -1843542502 -136157170 1200725834 -1662273766 442756030 -1251669416 -1676377012 1142448441 287782209 -440631008 956104924 -638865650 -1220581774
REM
CELL 1.54180   50.00000   50.00000   50.00000   90.00000   90.00000   90.00000
LATT -1
SFAC C  
C      1  0.5587590000000  0.4647470000000  0.5157560000000 1.0
C      1  0.5328430000000  0.4869900000000  0.4191150000000 1.0
C      1  0.5018130000000  0.5777360000000  0.4981530000000 1.0
C      1  0.5701990000000  0.5514750000000  0.4943190000000 1.0
C      1  0.5295840000000  0.5696000000000  0.5398220000000 1.0
C      1  0.4361230000000  0.4373440000000  0.4995570000000 1.0
C      1  0.5281460000000  0.5155290000000  0.4176800000000 1.0
C      1  0.5021850000000  0.4967760000000  0.4604720000000 1.0
C      1  0.4934470000000  0.4466780000000  0.4462870000000 1.0
C      1  0.4260510000000  0.5110550000000  0.5430980000000 1.0
C      1  0.5308040000000  0.4372290000000  0.5455810000000 1.0
C      1  0.5465810000000  0.5321350000000  0.4337430000000 1.0
C      1  0.5468910000000  0.5706530000000  0.4903580000000 1.0
C      1  0.4169150000000  0.5268030000000  0.5190140000000 1.0
C      1  0.5100620000000  0.4527750000000  0.4937530000000 1.0
C      1  0.5391390000000  0.4196080000000  0.4759160000000 1.0
C      1  0.4686820000000  0.4859030000000  0.4264880000000 1.0
C      1  0.4667600000000  0.5675430000000  0.5727270000000 1.0
C      1  0.5045980000000  0.5540760000000  0.4800140000000 1.0
C      1  0.4530580000000  0.5552110000000  0.4538140000000 1.0
C      1  0.5454490000000  0.4558550000000  0.4546100000000 1.0
C      1  0.4350490000000  0.5350310000000  0.4610460000000 1.0
C      1  0.5861520000000  0.4804050000000  0.4703050000000 1.0
C      1  0.5178910000000  0.4635150000000  0.4136220000000 1.0
C      1  0.4618080000000  0.4534450000000  0.4592230000000 1.0
C      1  0.5521400000000  0.4572380000000  0.5439290000000 1.0
C      1  0.4849590000000  0.4877500000000  0.5192480000000 1.0
C      1  0.5273380000000  0.4105930000000  0.5009430000000 1.0
C      1  0.4823510000000  0.5662290000000  0.5359480000000 1.0
C      1  0.4238450000000  0.4872680000000  0.4524660000000 1.0
C      1  0.4574970000000  0.5282170000000  0.5080730000000 1.0
C      1  0.5431880000000  0.4848530000000  0.4482120000000 1.0
C      1  0.5013850000000  0.4245590000000  0.5004700000000 1.0
C      1  0.5154220000000  0.5035210000000  0.5845140000000 1.0
C      1  0.5004720000000  0.5263380000000  0.4168320000000 1.0
C      1  0.4459080000000  0.5720550000000  0.4751370000000 1.0
C      1  0.4882960000000  0.5186760000000  0.5558810000000 1.0
C      1  0.5690800000000  0.5223610000000  0.4505950000000 1.0
C      1  0.4896730000000  0.5792590000000  0.5729520000000 1.0
C      1  0.4761630000000  0.5812900000000  0.5121450000000 1.0
C      1  0.5723960000000  0.4543310000000  0.4655300000000 1.0
C      1  0.4480600000000  0.5751210000000  0.5027530000000 1.0
C      1  0.5007820000000  0.4958510000000  0.5407430000000 1.0
C      1  0.5727370000000  0.4934800000000  0.4482610000000 1.0
C      1  0.5644810000000  0.4367360000000  0.5100580000000 1.0
C      1  0.5280990000000  0.5780210000000  0.5114950000000 1.0
C      1  0.5264900000000  0.5223010000000  0.5202970000000 1.0
C      1  0.5684270000000  0.5399680000000  0.5188150000000 1.0
C      1  0.4532810000000  0.4298550000000  0.4763370000000 1.0
C      1  0.4710090000000  0.5391990000000  0.5346480000000 1.0
C      1  0.5556040000000  0.4809250000000  0.5600290000000 1.0
C      1  0.5208010000000  0.4418490000000  0.4660480000000 1.0
C      1  0.4527320000000  0.4593530000000  0.5098400000000 1.0
C      1  0.5035440000000  0.5509680000000  0.4315050000000 1.0
C      1  0.4654220000000  0.4814120000000  0.5743600000000 1.0
C      1  0.5697150000000  0.5007140000000  0.5430670000000 1.0
C      1  0.5119020000000  0.5797810000000  0.5593650000000 1.0
C      1  0.4787990000000  0.4495810000000  0.5444460000000 1.0
C      1  0.4920050000000  0.4765140000000  0.4430340000000 1.0
C      1  0.4559260000000  0.4677500000000  0.5493910000000 1.0
C      1  0.5311000000000  0.5558600000000  0.4402350000000 1.0
C      1  0.5764380000000  0.4890660000000  0.5175020000000 1.0
C      1  0.4538740000000  0.4748170000000  0.4839720000000 1.0
C      1  0.5757260000000  0.5262360000000  0.4790720000000 1.0
C      1  0.4256810000000  0.4695390000000  0.4751540000000 1.0
C      1  0.5636240000000  0.5295590000000  0.5431880000000 1.0
C      1  0.4204730000000  0.5122130000000  0.4687420000000 1.0
C      1  0.4397500000000  0.5240870000000  0.5656120000000 1.0
C      1  0.4762300000000  0.5135720000000  0.4278980000000 1.0
C      1  0.5034240000000  0.4461410000000  0.4188060000000 1.0
C      1  0.5294330000000  0.5664840000000  0.4677410000000 1.0
C      1  0.5247920000000  0.4940750000000  0.5252480000000 1.0
C      1  0.4815270000000  0.4584930000000  0.5163410000000 1.0
C      1  0.5661020000000  0.4302930000000  0.4817770000000 1.0
C      1  0.4132190000000  0.5069090000000  0.4984280000000 1.0
C      1  0.5325870000000  0.5388980000000  0.5460850000000 1.0
C      1  0.4926010000000  0.4822250000000  0.5866720000000 1.0
C      1  0.4899640000000  0.5056010000000  0.4984600000000 1.0
C      1  0.5141550000000  0.5267900000000  0.5677560000000 1.0
C      1  0.4139590000000  0.4562280000000  0.4981460000000 1.0
C      1  0.4470780000000  0.4726660000000  0.4411100000000 1.0
C      1  0.4766630000000  0.4151060000000  0.4868160000000 1.0
C      1  0.4805550000000  0.5178040000000  0.4573110000000 1.0
C      1  0.5426130000000  0.4224210000000  0.5232430000000 1.0
C      1  0.4850820000000  0.5491610000000  0.4550520000000 1.0
C      1  0.5120250000000  0.4615450000000  0.5804720000000 1.0
C      1  0.5138210000000  0.5236660000000  0.4941790000000 1.0
C      1  0.4356530000000  0.5472330000000  0.5067710000000 1.0
C      1  0.5346320000000  0.4817030000000  0.5803240000000 1.0
C      1  0.5836170000000  0.5004030000000  0.4918490000000 1.0
C      1  0.4633470000000  0.5099530000000  0.5743870000000 1.0
C      1  0.4639100000000  0.5077530000000  0.4858710000000 1.0
C      1  0.4508700000000  0.5501860000000  0.5578080000000 1.0
C      1  0.4158220000000  0.4815920000000  0.5130210000000 1.0
C      1  0.5286060000000  0.4758110000000  0.5007040000000 1.0
C      1  0.5047960000000  0.4442990000000  0.5575810000000 1.0
C      1  0.4319250000000  0.4834180000000  0.5376270000000 1.0
C      1  0.5254070000000  0.4961600000000  0.4772020000000 1.0
END
