TITL C-883730-8503-257 77.4096863510639 125000 -27478.8289957532 0 0 186 (C1) n - 1
REM
REM in /home/nfs/bkarasulu/CARBON/AIRSS/Generating-Clusters/ReaxFF-fromJPCA2015/Units_Real/with-SteepDescent/Only-C1/SD-CG/Try1-3A/FIRE-CG
REM
REM
REM
REM
REM
REM ./C.cell (11c1c37f851c82e70ff6c80c92926a4b)
REM
REM compiler GCC version 9.2.1 20190827 (Red Hat 9.2.1-1)
REM options -cpp -mtune=generic -march=x86-64 -g -O0 -fpre-include=/usr/include/finclude/math-vector-fortran.h
REM seed 1876560348 2023019093 -1938967883 -1420345697 -1110637120 1419012363 -2079623978 -1094916408 1221288513 525493579 1416552540 706251968 -1380975866 -784771958 -1710839246 992019643 12534009 -1343457622 -1152891715 -294619284 -1834584390 1760615156 39426125 -217244917 -1339270354 1914821534 -1616454467 977494613 93058871 821752320 -1549294281 -1303544635 1777963662
REM
CELL 1.54180   50.00000   50.00000   50.00000   90.00000   90.00000   90.00000
LATT -1
SFAC C  
C      1  0.4753540000000  0.5021540000000  0.6153230000000 1.0
C      1  0.5267280000000  0.4496640000000  0.5260370000000 1.0
C      1  0.4337310000000  0.5651310000000  0.5248970000000 1.0
C      1  0.5501560000000  0.5150210000000  0.6010870000000 1.0
C      1  0.4060440000000  0.4704710000000  0.5222600000000 1.0
C      1  0.5259940000000  0.5297300000000  0.6069980000000 1.0
C      1  0.4219300000000  0.4530840000000  0.5638680000000 1.0
C      1  0.5657910000000  0.4449200000000  0.5669800000000 1.0
C      1  0.4933220000000  0.5971110000000  0.4461690000000 1.0
C      1  0.5462180000000  0.4547890000000  0.4807790000000 1.0
C      1  0.5117140000000  0.4550240000000  0.6043720000000 1.0
C      1  0.5792520000000  0.5729780000000  0.5073620000000 1.0
C      1  0.4054280000000  0.5592400000000  0.4830590000000 1.0
C      1  0.5419030000000  0.4294060000000  0.4187420000000 1.0
C      1  0.5786360000000  0.4547510000000  0.4872330000000 1.0
C      1  0.5176680000000  0.5503120000000  0.4410900000000 1.0
C      1  0.4735510000000  0.4263050000000  0.5803270000000 1.0
C      1  0.4698080000000  0.6060050000000  0.4905840000000 1.0
C      1  0.4973940000000  0.5576060000000  0.5830180000000 1.0
C      1  0.5095660000000  0.5269520000000  0.4877340000000 1.0
C      1  0.5732990000000  0.4686030000000  0.5802970000000 1.0
C      1  0.4267690000000  0.4705830000000  0.4123270000000 1.0
C      1  0.5239460000000  0.4690070000000  0.4887900000000 1.0
C      1  0.4085320000000  0.5264300000000  0.4304580000000 1.0
C      1  0.5533270000000  0.4940750000000  0.3884050000000 1.0
C      1  0.4568310000000  0.5129360000000  0.5247490000000 1.0
C      1  0.5929730000000  0.5533670000000  0.4901390000000 1.0
C      1  0.5468530000000  0.5670960000000  0.5794980000000 1.0
C      1  0.5394860000000  0.4323960000000  0.5713700000000 1.0
C      1  0.4464090000000  0.4656010000000  0.4903860000000 1.0
C      1  0.4892380000000  0.4926390000000  0.5164490000000 1.0
C      1  0.5539940000000  0.5126820000000  0.4871990000000 1.0
C      1  0.5206810000000  0.4974350000000  0.4207930000000 1.0
C      1  0.4816600000000  0.4057990000000  0.5325140000000 1.0
C      1  0.5219190000000  0.4099960000000  0.5623150000000 1.0
C      1  0.4304440000000  0.4795770000000  0.5107590000000 1.0
C      1  0.5236910000000  0.5576510000000  0.5968450000000 1.0
C      1  0.4711360000000  0.4479680000000  0.5032360000000 1.0
C      1  0.4083380000000  0.4152010000000  0.5045600000000 1.0
C      1  0.5287960000000  0.5084480000000  0.4727590000000 1.0
C      1  0.4318240000000  0.5572670000000  0.5530380000000 1.0
C      1  0.4545750000000  0.4033780000000  0.4610760000000 1.0
C      1  0.5201360000000  0.5540580000000  0.4897500000000 1.0
C      1  0.5082850000000  0.5208480000000  0.5450010000000 1.0
C      1  0.4391740000000  0.5223320000000  0.4802080000000 1.0
C      1  0.4879650000000  0.4388950000000  0.4825690000000 1.0
C      1  0.4506600000000  0.5118610000000  0.6038830000000 1.0
C      1  0.5406060000000  0.5972350000000  0.5453560000000 1.0
C      1  0.4558410000000  0.6033430000000  0.5153440000000 1.0
C      1  0.4985310000000  0.4808560000000  0.4910480000000 1.0
C      1  0.4982880000000  0.5756560000000  0.4880980000000 1.0
C      1  0.5343940000000  0.4786210000000  0.4019730000000 1.0
C      1  0.4796140000000  0.5299510000000  0.4209050000000 1.0
C      1  0.4869880000000  0.4765270000000  0.5400680000000 1.0
C      1  0.5969650000000  0.4835190000000  0.5683360000000 1.0
C      1  0.5966790000000  0.4680340000000  0.5233030000000 1.0
C      1  0.5285020000000  0.4185620000000  0.4437690000000 1.0
C      1  0.5649800000000  0.5511640000000  0.4451770000000 1.0
C      1  0.4763650000000  0.4077430000000  0.4412700000000 1.0
C      1  0.4324480000000  0.5103000000000  0.5101940000000 1.0
C      1  0.4535750000000  0.5720970000000  0.5638390000000 1.0
C      1  0.4655410000000  0.5290610000000  0.5669280000000 1.0
C      1  0.4633870000000  0.4818610000000  0.5543500000000 1.0
C      1  0.4294450000000  0.4477350000000  0.4715570000000 1.0
C      1  0.3875200000000  0.4916530000000  0.4819230000000 1.0
C      1  0.6059880000000  0.5053410000000  0.4806150000000 1.0
C      1  0.5450220000000  0.5219850000000  0.3896560000000 1.0
C      1  0.5285390000000  0.3884270000000  0.5411550000000 1.0
C      1  0.4819100000000  0.4952730000000  0.4715200000000 1.0
C      1  0.4295000000000  0.4119230000000  0.5238500000000 1.0
C      1  0.5616240000000  0.5826470000000  0.5590210000000 1.0
C      1  0.4929380000000  0.4069930000000  0.4798020000000 1.0
C      1  0.5796770000000  0.5691390000000  0.5376660000000 1.0
C      1  0.4546580000000  0.4010430000000  0.5146760000000 1.0
C      1  0.4747280000000  0.4905750000000  0.3934660000000 1.0
C      1  0.5661030000000  0.5239170000000  0.4329190000000 1.0
C      1  0.5320500000000  0.4441580000000  0.4569950000000 1.0
C      1  0.5831930000000  0.4541090000000  0.4602130000000 1.0
C      1  0.4006140000000  0.4541530000000  0.4703050000000 1.0
C      1  0.5632410000000  0.4467900000000  0.4247270000000 1.0
C      1  0.4095490000000  0.5261550000000  0.5254030000000 1.0
C      1  0.5274450000000  0.4498000000000  0.4018610000000 1.0
C      1  0.6122030000000  0.5385980000000  0.4482220000000 1.0
C      1  0.5526340000000  0.3848750000000  0.5261710000000 1.0
C      1  0.4591020000000  0.5101730000000  0.3867600000000 1.0
C      1  0.4742480000000  0.4518520000000  0.4100590000000 1.0
C      1  0.5551370000000  0.4904000000000  0.5237350000000 1.0
C      1  0.5101680000000  0.5954070000000  0.4704620000000 1.0
C      1  0.5023400000000  0.4552120000000  0.4153560000000 1.0
C      1  0.5787850000000  0.5005210000000  0.4011410000000 1.0
C      1  0.4662250000000  0.5934620000000  0.5434670000000 1.0
C      1  0.5729320000000  0.4955740000000  0.5011740000000 1.0
C      1  0.5627500000000  0.5884350000000  0.4102690000000 1.0
C      1  0.4579490000000  0.5355530000000  0.3871140000000 1.0
C      1  0.5365920000000  0.5568420000000  0.5133930000000 1.0
C      1  0.3938400000000  0.4260910000000  0.4810450000000 1.0
C      1  0.5918080000000  0.5444520000000  0.5366750000000 1.0
C      1  0.4544850000000  0.4708980000000  0.3998100000000 1.0
C      1  0.6026730000000  0.5201250000000  0.5286100000000 1.0
C      1  0.4686110000000  0.4380560000000  0.4385760000000 1.0
C      1  0.5284220000000  0.5723530000000  0.5360730000000 1.0
C      1  0.4727600000000  0.5340280000000  0.5207420000000 1.0
C      1  0.5874920000000  0.5083950000000  0.5746590000000 1.0
C      1  0.5351260000000  0.4657640000000  0.6171670000000 1.0
C      1  0.5153870000000  0.3941810000000  0.4954740000000 1.0
C      1  0.4679320000000  0.6005880000000  0.4623960000000 1.0
C      1  0.4851730000000  0.4720680000000  0.6030920000000 1.0
C      1  0.5022450000000  0.4908860000000  0.5874720000000 1.0
C      1  0.5517320000000  0.5690790000000  0.4206030000000 1.0
C      1  0.5510750000000  0.4841400000000  0.5972650000000 1.0
C      1  0.4516080000000  0.4219960000000  0.5644850000000 1.0
C      1  0.6041040000000  0.5273840000000  0.4998380000000 1.0
C      1  0.4073870000000  0.4743850000000  0.4347590000000 1.0
C      1  0.5196650000000  0.5339150000000  0.3979850000000 1.0
C      1  0.4507110000000  0.5111440000000  0.5509050000000 1.0
C      1  0.4343300000000  0.4736050000000  0.4377350000000 1.0
C      1  0.4973680000000  0.5207170000000  0.5176290000000 1.0
C      1  0.5478830000000  0.5284330000000  0.5530200000000 1.0
C      1  0.4949930000000  0.5361780000000  0.4434940000000 1.0
C      1  0.5022160000000  0.4513560000000  0.5424390000000 1.0
C      1  0.4387500000000  0.4639220000000  0.5855600000000 1.0
C      1  0.5833110000000  0.4992420000000  0.4321380000000 1.0
C      1  0.5164370000000  0.6135870000000  0.5552420000000 1.0
C      1  0.4195220000000  0.5265930000000  0.5534160000000 1.0
C      1  0.4650790000000  0.4534310000000  0.5906740000000 1.0
C      1  0.5330210000000  0.5537270000000  0.5578680000000 1.0
C      1  0.5414300000000  0.4071330000000  0.4934160000000 1.0
C      1  0.5219910000000  0.4925250000000  0.4489720000000 1.0
C      1  0.3957610000000  0.5022450000000  0.4371180000000 1.0
C      1  0.5397370000000  0.5884380000000  0.4704690000000 1.0
C      1  0.4325530000000  0.4925330000000  0.5890110000000 1.0
C      1  0.4118210000000  0.5331150000000  0.4707380000000 1.0
C      1  0.4990640000000  0.5139400000000  0.4057080000000 1.0
C      1  0.4526180000000  0.5390430000000  0.5912860000000 1.0
C      1  0.5758060000000  0.4475900000000  0.5362920000000 1.0
C      1  0.4636560000000  0.3970290000000  0.4880760000000 1.0
C      1  0.4930860000000  0.4122030000000  0.5620570000000 1.0
C      1  0.5910960000000  0.5554450000000  0.4610030000000 1.0
C      1  0.5380390000000  0.5594490000000  0.4611120000000 1.0
C      1  0.3899460000000  0.4686480000000  0.4957390000000 1.0
C      1  0.4901180000000  0.6030460000000  0.5490740000000 1.0
C      1  0.4420250000000  0.5703420000000  0.4328540000000 1.0
C      1  0.5298270000000  0.5039020000000  0.5522690000000 1.0
C      1  0.4926500000000  0.5362700000000  0.5637530000000 1.0
C      1  0.4868720000000  0.5244260000000  0.4692020000000 1.0
C      1  0.4015640000000  0.5472270000000  0.5087380000000 1.0
C      1  0.3890700000000  0.5135790000000  0.4646830000000 1.0
C      1  0.4419580000000  0.5857780000000  0.4572730000000 1.0
C      1  0.4864080000000  0.4520790000000  0.4574270000000 1.0
C      1  0.5806100000000  0.4660470000000  0.4349650000000 1.0
C      1  0.4630300000000  0.5607130000000  0.5180960000000 1.0
C      1  0.4963920000000  0.5815600000000  0.4217240000000 1.0
C      1  0.4678300000000  0.5766950000000  0.4186150000000 1.0
C      1  0.4510890000000  0.4950440000000  0.4450010000000 1.0
C      1  0.5062440000000  0.3903790000000  0.5221070000000 1.0
C      1  0.5263240000000  0.4841430000000  0.5747040000000 1.0
C      1  0.4704150000000  0.5650360000000  0.4892560000000 1.0
C      1  0.5015270000000  0.5118620000000  0.6064860000000 1.0
C      1  0.5497380000000  0.5337440000000  0.5223960000000 1.0
C      1  0.4074880000000  0.4753240000000  0.5517360000000 1.0
C      1  0.4310550000000  0.5900650000000  0.5076240000000 1.0
C      1  0.5948840000000  0.4776780000000  0.4958770000000 1.0
C      1  0.4687860000000  0.5635200000000  0.5882750000000 1.0
C      1  0.5677350000000  0.4227840000000  0.5219300000000 1.0
C      1  0.4423560000000  0.4288840000000  0.4536140000000 1.0
C      1  0.4242580000000  0.5824410000000  0.4802510000000 1.0
C      1  0.4621470000000  0.5400560000000  0.4771600000000 1.0
C      1  0.5105410000000  0.4615540000000  0.4461540000000 1.0
C      1  0.5034160000000  0.4047450000000  0.4503580000000 1.0
C      1  0.4153110000000  0.4997370000000  0.5669480000000 1.0
C      1  0.6019460000000  0.4907550000000  0.5397410000000 1.0
C      1  0.5691550000000  0.5269290000000  0.4055200000000 1.0
C      1  0.5504520000000  0.4633710000000  0.5312280000000 1.0
C      1  0.5674150000000  0.3980310000000  0.5056990000000 1.0
C      1  0.4535250000000  0.5206730000000  0.4300740000000 1.0
C      1  0.5214790000000  0.5607200000000  0.4132940000000 1.0
C      1  0.5186540000000  0.4530200000000  0.5748380000000 1.0
C      1  0.4800140000000  0.4361610000000  0.5283240000000 1.0
C      1  0.5404180000000  0.4267890000000  0.5154300000000 1.0
C      1  0.4546400000000  0.4931580000000  0.4724260000000 1.0
C      1  0.4282880000000  0.4261470000000  0.5515400000000 1.0
C      1  0.5375620000000  0.5101710000000  0.5113310000000 1.0
C      1  0.5666030000000  0.5256570000000  0.5796300000000 1.0
C      1  0.6056510000000  0.5094370000000  0.4521690000000 1.0
C      1  0.5591640000000  0.5889980000000  0.4920010000000 1.0
C      1  0.4329720000000  0.5412430000000  0.4284560000000 1.0
END
