TITL C-883726-8501-316 -3.52067249911378 125000 -5632.16929121551 0 0 39 (C1) n - 1
REM
REM in /home/nfs/bkarasulu/CARBON/AIRSS/Generating-Clusters/ReaxFF-fromJPCA2015/Units_Real/with-SteepDescent/Only-C1/SD-CG/Try1-3A/FIRE-CG
REM
REM
REM
REM
REM
REM ./C.cell (11c1c37f851c82e70ff6c80c92926a4b)
REM
REM compiler GCC version 9.2.1 20190827 (Red Hat 9.2.1-1)
REM options -cpp -mtune=generic -march=x86-64 -g -O0 -fpre-include=/usr/include/finclude/math-vector-fortran.h
REM seed 2123990395 1918273654 -493802610 1343214508 -2118113950 1949488655 -2099162552 -464069070 1078890985 -568338730 1190095809 1173474539 -1767804057 1500449191 -535053251 -502108583 -736534055 163847680 1433088677 1815085605 -868893417 367896992 1325278135 -963291571 -850327168 2107104836 -833187865 -54930156 -1441796147 867836886 256566354 -431990150 160207335
REM
CELL 1.54180   50.00000   50.00000   50.00000   90.00000   90.00000   90.00000
LATT -1
SFAC C  
C      1  0.5458310000000  0.5156590000000  0.5080260000000 1.0
C      1  0.5347180000000  0.4661650000000  0.5311550000000 1.0
C      1  0.4875170000000  0.5550780000000  0.4989540000000 1.0
C      1  0.4986250000000  0.4959910000000  0.4903840000000 1.0
C      1  0.5089570000000  0.5057920000000  0.5493800000000 1.0
C      1  0.4791090000000  0.4558850000000  0.4635900000000 1.0
C      1  0.4376620000000  0.4704530000000  0.5278520000000 1.0
C      1  0.5013100000000  0.5540240000000  0.5271530000000 1.0
C      1  0.5533830000000  0.5027880000000  0.5331830000000 1.0
C      1  0.4862240000000  0.4910270000000  0.5394740000000 1.0
C      1  0.5160550000000  0.5322590000000  0.5405910000000 1.0
C      1  0.4972350000000  0.4797640000000  0.4648250000000 1.0
C      1  0.4417560000000  0.4762970000000  0.4835420000000 1.0
C      1  0.5450500000000  0.5755460000000  0.4774180000000 1.0
C      1  0.4685850000000  0.4365540000000  0.5080120000000 1.0
C      1  0.5233530000000  0.4763670000000  0.4495320000000 1.0
C      1  0.4784610000000  0.4951430000000  0.5115030000000 1.0
C      1  0.4574780000000  0.5224600000000  0.4723930000000 1.0
C      1  0.5212590000000  0.4445590000000  0.5192590000000 1.0
C      1  0.5331870000000  0.4877770000000  0.5489970000000 1.0
C      1  0.5429620000000  0.5288170000000  0.5320500000000 1.0
C      1  0.4437510000000  0.4431680000000  0.5220330000000 1.0
C      1  0.4523200000000  0.4572310000000  0.5467720000000 1.0
C      1  0.4579550000000  0.4498990000000  0.4833160000000 1.0
C      1  0.5333470000000  0.4605650000000  0.4698870000000 1.0
C      1  0.5261730000000  0.5556190000000  0.4634730000000 1.0
C      1  0.5165540000000  0.5785980000000  0.5238300000000 1.0
C      1  0.5277810000000  0.5020290000000  0.4175830000000 1.0
C      1  0.5217350000000  0.5852830000000  0.4940570000000 1.0
C      1  0.5231150000000  0.5128720000000  0.4896980000000 1.0
C      1  0.4456870000000  0.5003590000000  0.4705270000000 1.0
C      1  0.5290660000000  0.5266480000000  0.4646880000000 1.0
C      1  0.4810240000000  0.4620950000000  0.5455740000000 1.0
C      1  0.4722200000000  0.5407040000000  0.4826040000000 1.0
C      1  0.5331230000000  0.4503200000000  0.4938910000000 1.0
C      1  0.5029210000000  0.5686180000000  0.4779330000000 1.0
C      1  0.4491780000000  0.4884900000000  0.5092890000000 1.0
C      1  0.5344670000000  0.5049220000000  0.4426270000000 1.0
C      1  0.4908690000000  0.4441750000000  0.5249460000000 1.0
END
