TITL C-883728-9229-422 11.8824178869803 125000 -14125.1226505388 0 0 95 (C1) n - 1
REM
REM in /home/nfs/bkarasulu/CARBON/AIRSS/Generating-Clusters/ReaxFF-fromJPCA2015/Units_Real/with-SteepDescent/Only-C1/SD-CG/Try1-3A/FIRE-CG
REM
REM
REM
REM
REM
REM ./C.cell (11c1c37f851c82e70ff6c80c92926a4b)
REM
REM compiler GCC version 9.2.1 20190827 (Red Hat 9.2.1-1)
REM options -cpp -mtune=generic -march=x86-64 -g -O0 -fpre-include=/usr/include/finclude/math-vector-fortran.h
REM seed -1687718852 500072610 -1304186059 1968235428 684161915 -2107537241 -1836689728 -1583540903 -498589751 -1843562651 -1488433750 -455839193 -867015374 -1970108982 1079403771 1606578919 -212619506 844912307 -1442468495 1068514947 -1072089788 -1255502595 24720229 -1778531292 2090391135 -1328148131 -458515634 985025608 -1725369264 -441034847 523338154 1098708717 -1320067948
REM
CELL 1.54180   50.00000   50.00000   50.00000   90.00000   90.00000   90.00000
LATT -1
SFAC C  
C      1  0.4286860000000  0.4747260000000  0.4876330000000 1.0
C      1  0.5801050000000  0.5407770000000  0.5048740000000 1.0
C      1  0.5639650000000  0.4537050000000  0.4780340000000 1.0
C      1  0.4850430000000  0.4145870000000  0.4582310000000 1.0
C      1  0.5083880000000  0.4983280000000  0.5317270000000 1.0
C      1  0.5435480000000  0.5355830000000  0.4370190000000 1.0
C      1  0.4940990000000  0.5442430000000  0.4644530000000 1.0
C      1  0.5398310000000  0.4404600000000  0.5112870000000 1.0
C      1  0.4501870000000  0.4439290000000  0.5499240000000 1.0
C      1  0.5494750000000  0.4806710000000  0.5423280000000 1.0
C      1  0.5208630000000  0.4611640000000  0.5047440000000 1.0
C      1  0.5597660000000  0.4711770000000  0.4534260000000 1.0
C      1  0.5735880000000  0.4950390000000  0.5068070000000 1.0
C      1  0.4455990000000  0.4739020000000  0.4446770000000 1.0
C      1  0.5715560000000  0.4661940000000  0.5039760000000 1.0
C      1  0.4685100000000  0.4161520000000  0.4842370000000 1.0
C      1  0.5669290000000  0.5431980000000  0.5439950000000 1.0
C      1  0.5044980000000  0.4603800000000  0.5710020000000 1.0
C      1  0.4395090000000  0.5402510000000  0.5359000000000 1.0
C      1  0.4838280000000  0.5174380000000  0.4568770000000 1.0
C      1  0.5252270000000  0.5532450000000  0.5622410000000 1.0
C      1  0.4520870000000  0.5747900000000  0.5153200000000 1.0
C      1  0.5472610000000  0.5087560000000  0.4483020000000 1.0
C      1  0.4958480000000  0.4358910000000  0.4414010000000 1.0
C      1  0.4858360000000  0.5592010000000  0.5514900000000 1.0
C      1  0.5252680000000  0.5030140000000  0.4710740000000 1.0
C      1  0.4933310000000  0.4238610000000  0.5246700000000 1.0
C      1  0.5092770000000  0.4102960000000  0.4747530000000 1.0
C      1  0.4867920000000  0.5453550000000  0.5086780000000 1.0
C      1  0.4925720000000  0.4082890000000  0.4990450000000 1.0
C      1  0.5730550000000  0.4976930000000  0.4526520000000 1.0
C      1  0.5140240000000  0.4862840000000  0.4259730000000 1.0
C      1  0.4389740000000  0.4650060000000  0.5642100000000 1.0
C      1  0.5185630000000  0.4521530000000  0.4570560000000 1.0
C      1  0.4326200000000  0.5615440000000  0.5004750000000 1.0
C      1  0.4246380000000  0.4934330000000  0.5367710000000 1.0
C      1  0.5486020000000  0.5684860000000  0.5051280000000 1.0
C      1  0.4354030000000  0.5006310000000  0.4486140000000 1.0
C      1  0.5329590000000  0.4274640000000  0.4687700000000 1.0
C      1  0.4502420000000  0.4370880000000  0.4937820000000 1.0
C      1  0.4785960000000  0.4513900000000  0.5568550000000 1.0
C      1  0.4790530000000  0.4778830000000  0.4865600000000 1.0
C      1  0.5068750000000  0.5814350000000  0.4919890000000 1.0
C      1  0.4732860000000  0.5201730000000  0.5057790000000 1.0
C      1  0.4183950000000  0.5225490000000  0.4935120000000 1.0
C      1  0.4858110000000  0.4910350000000  0.4194260000000 1.0
C      1  0.5606220000000  0.5451520000000  0.4595590000000 1.0
C      1  0.5792570000000  0.5236430000000  0.4677160000000 1.0
C      1  0.5696300000000  0.5550430000000  0.5218330000000 1.0
C      1  0.4554780000000  0.5009350000000  0.5709490000000 1.0
C      1  0.5586020000000  0.4552100000000  0.5281410000000 1.0
C      1  0.4457420000000  0.5466930000000  0.4568900000000 1.0
C      1  0.4238170000000  0.5470130000000  0.4783100000000 1.0
C      1  0.4770490000000  0.5715830000000  0.4941120000000 1.0
C      1  0.5343870000000  0.4687610000000  0.4377730000000 1.0
C      1  0.4573890000000  0.5614150000000  0.5414290000000 1.0
C      1  0.4220190000000  0.5001430000000  0.4753490000000 1.0
C      1  0.5142640000000  0.5359980000000  0.4310020000000 1.0
C      1  0.5485140000000  0.5659120000000  0.4759510000000 1.0
C      1  0.4360430000000  0.4724510000000  0.5171520000000 1.0
C      1  0.5213160000000  0.4735180000000  0.5318450000000 1.0
C      1  0.4515090000000  0.4616870000000  0.4745460000000 1.0
C      1  0.5259820000000  0.4498270000000  0.5536100000000 1.0
C      1  0.4325470000000  0.4895490000000  0.5632850000000 1.0
C      1  0.5118960000000  0.5703080000000  0.5428440000000 1.0
C      1  0.4845950000000  0.4524330000000  0.5281180000000 1.0
C      1  0.4740490000000  0.5100110000000  0.5597320000000 1.0
C      1  0.5101470000000  0.5612840000000  0.4441810000000 1.0
C      1  0.4242120000000  0.5201270000000  0.5237170000000 1.0
C      1  0.5129860000000  0.4876230000000  0.5776070000000 1.0
C      1  0.4682560000000  0.5598700000000  0.4677780000000 1.0
C      1  0.4414670000000  0.4431500000000  0.5211940000000 1.0
C      1  0.4946740000000  0.5118590000000  0.5767930000000 1.0
C      1  0.4798570000000  0.5013740000000  0.5293790000000 1.0
C      1  0.4745010000000  0.4479520000000  0.4342830000000 1.0
C      1  0.4499200000000  0.5238260000000  0.4382410000000 1.0
C      1  0.5511000000000  0.4311340000000  0.4881860000000 1.0
C      1  0.5410620000000  0.4916990000000  0.5714830000000 1.0
C      1  0.4743170000000  0.5052010000000  0.4817470000000 1.0
C      1  0.5155170000000  0.5286080000000  0.4810210000000 1.0
C      1  0.5219520000000  0.5755920000000  0.4675360000000 1.0
C      1  0.5854610000000  0.5176260000000  0.4939940000000 1.0
C      1  0.5152410000000  0.5366780000000  0.5072840000000 1.0
C      1  0.5004030000000  0.5393140000000  0.5673580000000 1.0
C      1  0.4715500000000  0.4750750000000  0.5149250000000 1.0
C      1  0.5519230000000  0.5441100000000  0.5652530000000 1.0
C      1  0.4769210000000  0.5183410000000  0.4267090000000 1.0
C      1  0.5108110000000  0.4268880000000  0.5465470000000 1.0
C      1  0.5535000000000  0.5030710000000  0.5255110000000 1.0
C      1  0.5279780000000  0.5162290000000  0.5243870000000 1.0
C      1  0.5103040000000  0.4733810000000  0.4808700000000 1.0
C      1  0.5087360000000  0.5087040000000  0.4463350000000 1.0
C      1  0.5515170000000  0.5170920000000  0.5701320000000 1.0
C      1  0.4655660000000  0.4703090000000  0.4261240000000 1.0
C      1  0.5228440000000  0.5777480000000  0.5156030000000 1.0
END
