TITL C-883726-8501-160 1.46346257713183 125000 -20231.0839321436 0 0 134 (C1) n - 1
REM
REM in /home/nfs/bkarasulu/CARBON/AIRSS/Generating-Clusters/ReaxFF-fromJPCA2015/Units_Real/with-SteepDescent/Only-C1/SD-CG/Try1-3A/FIRE-CG
REM
REM
REM
REM
REM
REM ./C.cell (11c1c37f851c82e70ff6c80c92926a4b)
REM
REM compiler GCC version 9.2.1 20190827 (Red Hat 9.2.1-1)
REM options -cpp -mtune=generic -march=x86-64 -g -O0 -fpre-include=/usr/include/finclude/math-vector-fortran.h
REM seed -474459104 1089660155 -1378707048 1598383471 1990255157 -1381112130 1762193297 -257234147 775723546 -1064790820 1168569809 -1003641756 136202101 -463791106 -706688927 -1039484479 -241643432 1885509468 -1385627006 -1119075329 1907514053 -1645458299 -174697546 2026438047 -394987675 -1542723267 1649573405 168625709 -632138586 -1624445124 -1581138054 -268016597 -1099482144
REM
CELL 1.54180   50.00000   50.00000   50.00000   90.00000   90.00000   90.00000
LATT -1
SFAC C  
C      1  0.5226440000000  0.4852590000000  0.5180040000000 1.0
C      1  0.5277670000000  0.5669230000000  0.4759320000000 1.0
C      1  0.5118100000000  0.5018520000000  0.4357770000000 1.0
C      1  0.5530180000000  0.5788670000000  0.5340630000000 1.0
C      1  0.4575030000000  0.5114370000000  0.5797620000000 1.0
C      1  0.4173420000000  0.4631520000000  0.5250070000000 1.0
C      1  0.5072870000000  0.5378280000000  0.4575990000000 1.0
C      1  0.4827660000000  0.4488510000000  0.5150590000000 1.0
C      1  0.5501860000000  0.4751360000000  0.5633950000000 1.0
C      1  0.5813500000000  0.5440730000000  0.5122840000000 1.0
C      1  0.5094820000000  0.5130190000000  0.4076050000000 1.0
C      1  0.5005360000000  0.3995930000000  0.4863560000000 1.0
C      1  0.5055280000000  0.5737060000000  0.5554790000000 1.0
C      1  0.5893950000000  0.5104180000000  0.4763240000000 1.0
C      1  0.4740880000000  0.5366420000000  0.4971260000000 1.0
C      1  0.5139880000000  0.4646480000000  0.5876930000000 1.0
C      1  0.5133560000000  0.4208680000000  0.5588920000000 1.0
C      1  0.4120600000000  0.5252710000000  0.4810110000000 1.0
C      1  0.5251610000000  0.5423220000000  0.4937380000000 1.0
C      1  0.4556380000000  0.4502600000000  0.5801190000000 1.0
C      1  0.5204430000000  0.4773290000000  0.5609400000000 1.0
C      1  0.5305550000000  0.6143870000000  0.5093420000000 1.0
C      1  0.4992760000000  0.5785800000000  0.4706810000000 1.0
C      1  0.5872180000000  0.5077630000000  0.5433000000000 1.0
C      1  0.5155840000000  0.5188410000000  0.4767360000000 1.0
C      1  0.5361250000000  0.4794410000000  0.4676520000000 1.0
C      1  0.4035250000000  0.4795100000000  0.5046330000000 1.0
C      1  0.4061180000000  0.4835070000000  0.4526640000000 1.0
C      1  0.5771140000000  0.5137880000000  0.5679290000000 1.0
C      1  0.4619790000000  0.4192390000000  0.4727140000000 1.0
C      1  0.5736860000000  0.5547330000000  0.4865150000000 1.0
C      1  0.5598500000000  0.5361210000000  0.5601350000000 1.0
C      1  0.4522140000000  0.4514400000000  0.4270250000000 1.0
C      1  0.5370850000000  0.5100940000000  0.5259630000000 1.0
C      1  0.5323900000000  0.4686180000000  0.4073650000000 1.0
C      1  0.5112850000000  0.4424190000000  0.4810740000000 1.0
C      1  0.4512850000000  0.5859810000000  0.5046750000000 1.0
C      1  0.5328450000000  0.5068000000000  0.5928070000000 1.0
C      1  0.5888610000000  0.4962370000000  0.5197680000000 1.0
C      1  0.4082930000000  0.5081900000000  0.5049620000000 1.0
C      1  0.4916880000000  0.4300810000000  0.4268730000000 1.0
C      1  0.5596720000000  0.5037450000000  0.4259020000000 1.0
C      1  0.5554500000000  0.5269720000000  0.4448500000000 1.0
C      1  0.3984890000000  0.4681670000000  0.4772950000000 1.0
C      1  0.5026050000000  0.5473200000000  0.5394300000000 1.0
C      1  0.4785020000000  0.4536140000000  0.5608120000000 1.0
C      1  0.4993720000000  0.5438560000000  0.4113260000000 1.0
C      1  0.4464360000000  0.4292540000000  0.5357770000000 1.0
C      1  0.4398040000000  0.5532430000000  0.4561290000000 1.0
C      1  0.5508550000000  0.4211320000000  0.4662710000000 1.0
C      1  0.5791960000000  0.4482440000000  0.5307160000000 1.0
C      1  0.4478250000000  0.5547860000000  0.5323470000000 1.0
C      1  0.5140920000000  0.6094480000000  0.5335940000000 1.0
C      1  0.4175250000000  0.5145250000000  0.5538670000000 1.0
C      1  0.4966430000000  0.4685220000000  0.4090120000000 1.0
C      1  0.5391450000000  0.4990620000000  0.4056460000000 1.0
C      1  0.4849380000000  0.6042730000000  0.5332750000000 1.0
C      1  0.4445680000000  0.4417500000000  0.4549170000000 1.0
C      1  0.5110690000000  0.4463650000000  0.5096480000000 1.0
C      1  0.4153220000000  0.4563590000000  0.4575680000000 1.0
C      1  0.4334120000000  0.5659570000000  0.5068220000000 1.0
C      1  0.4610560000000  0.5423530000000  0.5783500000000 1.0
C      1  0.4564500000000  0.5653100000000  0.5580810000000 1.0
C      1  0.4582190000000  0.4625510000000  0.5024740000000 1.0
C      1  0.5059610000000  0.5268040000000  0.5642700000000 1.0
C      1  0.5209900000000  0.5617920000000  0.4184050000000 1.0
C      1  0.5251160000000  0.4166080000000  0.4809560000000 1.0
C      1  0.4719090000000  0.6040890000000  0.5064050000000 1.0
C      1  0.5636680000000  0.4334880000000  0.5105860000000 1.0
C      1  0.5000430000000  0.4766900000000  0.4376670000000 1.0
C      1  0.4548040000000  0.4847340000000  0.4565640000000 1.0
C      1  0.5083740000000  0.4185590000000  0.4414030000000 1.0
C      1  0.5547850000000  0.5769820000000  0.4852870000000 1.0
C      1  0.4263930000000  0.5506610000000  0.4818650000000 1.0
C      1  0.4604990000000  0.5005990000000  0.4094630000000 1.0
C      1  0.5252080000000  0.5369280000000  0.5214130000000 1.0
C      1  0.4250470000000  0.4691880000000  0.5526620000000 1.0
C      1  0.4671000000000  0.5619460000000  0.4488670000000 1.0
C      1  0.4725800000000  0.4383600000000  0.5384660000000 1.0
C      1  0.5587980000000  0.5014760000000  0.5084330000000 1.0
C      1  0.5582670000000  0.4953250000000  0.5828470000000 1.0
C      1  0.4588160000000  0.5131800000000  0.4965800000000 1.0
C      1  0.4981760000000  0.4071720000000  0.5380790000000 1.0
C      1  0.4876540000000  0.5403620000000  0.5882950000000 1.0
C      1  0.4146030000000  0.5120800000000  0.4552270000000 1.0
C      1  0.4316570000000  0.5303500000000  0.4397100000000 1.0
C      1  0.5007850000000  0.4981700000000  0.5540540000000 1.0
C      1  0.4792400000000  0.4869980000000  0.5375160000000 1.0
C      1  0.5089650000000  0.4686650000000  0.4652260000000 1.0
C      1  0.5147000000000  0.6223220000000  0.4852070000000 1.0
C      1  0.4287060000000  0.5081890000000  0.5260330000000 1.0
C      1  0.4351810000000  0.4437680000000  0.5597250000000 1.0
C      1  0.5961000000000  0.5191420000000  0.5045590000000 1.0
C      1  0.5709510000000  0.4355650000000  0.4823550000000 1.0
C      1  0.5369170000000  0.4316850000000  0.4436280000000 1.0
C      1  0.4757380000000  0.4448000000000  0.4111980000000 1.0
C      1  0.5616920000000  0.4497350000000  0.5544860000000 1.0
C      1  0.5666840000000  0.5531410000000  0.5364760000000 1.0
C      1  0.4869440000000  0.4949900000000  0.3996890000000 1.0
C      1  0.4937230000000  0.4932600000000  0.4837710000000 1.0
C      1  0.5307910000000  0.5495910000000  0.4456190000000 1.0
C      1  0.4767760000000  0.4957370000000  0.5970910000000 1.0
C      1  0.4847600000000  0.4025970000000  0.5123420000000 1.0
C      1  0.5521290000000  0.5936360000000  0.5087160000000 1.0
C      1  0.5900970000000  0.4668670000000  0.5117260000000 1.0
C      1  0.5005310000000  0.4416850000000  0.5759090000000 1.0
C      1  0.5406150000000  0.4296910000000  0.5492470000000 1.0
C      1  0.4860950000000  0.5525400000000  0.4693640000000 1.0
C      1  0.5325150000000  0.5051910000000  0.4561850000000 1.0
C      1  0.5076140000000  0.4908170000000  0.5987050000000 1.0
C      1  0.4338150000000  0.4952940000000  0.5694570000000 1.0
C      1  0.5462040000000  0.4587300000000  0.4347090000000 1.0
C      1  0.5757720000000  0.5328640000000  0.4659840000000 1.0
C      1  0.5674600000000  0.4794560000000  0.4405890000000 1.0
C      1  0.4502860000000  0.4799060000000  0.4279940000000 1.0
C      1  0.4914130000000  0.6034980000000  0.4824550000000 1.0
C      1  0.4591710000000  0.4740250000000  0.5952020000000 1.0
C      1  0.4954650000000  0.4878410000000  0.5129870000000 1.0
C      1  0.4361020000000  0.4437250000000  0.5125260000000 1.0
C      1  0.4746070000000  0.5470390000000  0.5239130000000 1.0
C      1  0.4527510000000  0.5270700000000  0.4195960000000 1.0
C      1  0.4619390000000  0.4162720000000  0.5003750000000 1.0
C      1  0.4784830000000  0.5849770000000  0.5544680000000 1.0
C      1  0.5345770000000  0.5296330000000  0.5749560000000 1.0
C      1  0.5290870000000  0.5891080000000  0.5483130000000 1.0
C      1  0.5355990000000  0.4322480000000  0.5211250000000 1.0
C      1  0.4544990000000  0.4628790000000  0.4727310000000 1.0
C      1  0.5834220000000  0.4834880000000  0.4649570000000 1.0
C      1  0.5855560000000  0.4610270000000  0.4835480000000 1.0
C      1  0.4693780000000  0.5046570000000  0.4712130000000 1.0
C      1  0.4547820000000  0.4936910000000  0.5194860000000 1.0
C      1  0.4868300000000  0.4077360000000  0.4623690000000 1.0
C      1  0.4726170000000  0.5480400000000  0.4234470000000 1.0
C      1  0.5425180000000  0.4806070000000  0.4962410000000 1.0
END
