TITL C-884139-6216-3 2144906.87741582 125000 -29403.7863887068 0 0 197 (C1) n - 1
REM
REM in /home/nfs/bkarasulu/CARBON/AIRSS/Generating-Clusters/ReaxFF-fromJPCA2015/Units_Real/with-SteepDescent/Only-C1/SD-CG/Try1-3A/FIRE-CG
REM
REM
REM
REM
REM
REM ./C.cell (11c1c37f851c82e70ff6c80c92926a4b)
REM
REM compiler GCC version 9.2.1 20190827 (Red Hat 9.2.1-1)
REM options -cpp -mtune=generic -march=x86-64 -g -O0 -fpre-include=/usr/include/finclude/math-vector-fortran.h
REM seed -633620758 1577506123 1068426126 2107406149 -576739107 1904696637 835545689 -1141899926 138156419 469802772 1629196386 -8461591 -1188862483 427366341 1185169893 230726477 -306638258 741915518 -1291736436 -737400532 -317171583 941548965 676236158 134297205 -1102643894 -913398494 1628927577 844051542 -298289264 -1220709212 1437591015 580122747 -1592944376
REM
CELL 1.54180   50.00000   50.00000   50.00000   90.00000   90.00000   90.00000
LATT -1
SFAC C  
C      1  0.4467120000000  0.4017110000000  0.4898630000000 1.0
C      1  0.5624290000000  0.5011800000000  0.4801140000000 1.0
C      1  0.5175190000000  0.5938420000000  0.5696090000000 1.0
C      1  0.5589070000000  0.4067990000000  0.4648440000000 1.0
C      1  0.4596130000000  0.6029240000000  0.4957590000000 1.0
C      1  0.4835850000000  0.4211060000000  0.5925010000000 1.0
C      1  0.4589470000000  0.5313660000000  0.6047160000000 1.0
C      1  0.4699420000000  0.4756070000000  0.4835900000000 1.0
C      1  0.5199000000000  0.5354300000000  0.4795790000000 1.0
C      1  0.6045060000000  0.4718100000000  0.4976470000000 1.0
C      1  0.4687070000000  0.4842160000000  0.4560510000000 1.0
C      1  0.5379910000000  0.5737420000000  0.5771260000000 1.0
C      1  0.4077250000000  0.4526210000000  0.5165150000000 1.0
C      1  0.6255300000000  0.5049050000000  0.5239610000000 1.0
C      1  0.5209780000000  0.3891410000000  0.4990520000000 1.0
C      1  0.5896620000000  0.5312720000000  0.4983560000000 1.0
C      1  0.3957100000000  0.4808320000000  0.5037650000000 1.0
C      1  0.5772290000000  0.5244900000000  0.4373920000000 1.0
C      1  0.4275970000000  0.4554460000000  0.4135860000000 1.0
C      1  0.5213310000000  0.5235100000000  0.4352100000000 1.0
C      1  0.4319650000000  0.5677860000000  0.5662850000000 1.0
C      1  0.5101690000000  0.6010050000000  0.5199050000000 1.0
C      1  0.4459910000000  0.3988180000000  0.5384460000000 1.0
C      1  0.5553130000000  0.4518330000000  0.5884150000000 1.0
C      1  0.4180250000000  0.5627360000000  0.5411580000000 1.0
C      1  0.4942860000000  0.4695120000000  0.5618250000000 1.0
C      1  0.4069560000000  0.4656000000000  0.4292420000000 1.0
C      1  0.4619280000000  0.4679460000000  0.3774520000000 1.0
C      1  0.5383520000000  0.4084420000000  0.4475770000000 1.0
C      1  0.4454960000000  0.5783910000000  0.4527440000000 1.0
C      1  0.4625440000000  0.4982280000000  0.3803150000000 1.0
C      1  0.5636880000000  0.6030590000000  0.5199050000000 1.0
C      1  0.4317850000000  0.5598560000000  0.4346440000000 1.0
C      1  0.4173420000000  0.4883450000000  0.4636630000000 1.0
C      1  0.5566560000000  0.4589500000000  0.4290910000000 1.0
C      1  0.5603980000000  0.4167950000000  0.5125610000000 1.0
C      1  0.4087930000000  0.4389560000000  0.5428960000000 1.0
C      1  0.4566250000000  0.4241780000000  0.4151920000000 1.0
C      1  0.5128580000000  0.4622450000000  0.5152850000000 1.0
C      1  0.5892550000000  0.4874690000000  0.5708690000000 1.0
C      1  0.5145410000000  0.4425970000000  0.4938290000000 1.0
C      1  0.5769830000000  0.4777170000000  0.4899260000000 1.0
C      1  0.4713580000000  0.4863150000000  0.5496170000000 1.0
C      1  0.3965810000000  0.5217970000000  0.4271510000000 1.0
C      1  0.5530860000000  0.5210420000000  0.5589470000000 1.0
C      1  0.4205430000000  0.4070760000000  0.5076720000000 1.0
C      1  0.5442220000000  0.4382390000000  0.5037540000000 1.0
C      1  0.5710370000000  0.4308130000000  0.4551290000000 1.0
C      1  0.4343840000000  0.4067680000000  0.4597620000000 1.0
C      1  0.4396870000000  0.5063410000000  0.6002880000000 1.0
C      1  0.5514840000000  0.4980420000000  0.5983600000000 1.0
C      1  0.4516260000000  0.5279430000000  0.4703180000000 1.0
C      1  0.5795960000000  0.4784120000000  0.4263260000000 1.0
C      1  0.5248990000000  0.5100850000000  0.5183150000000 1.0
C      1  0.4079420000000  0.4294720000000  0.4953690000000 1.0
C      1  0.4614700000000  0.4087950000000  0.4409830000000 1.0
C      1  0.6108390000000  0.5019550000000  0.4524750000000 1.0
C      1  0.4537660000000  0.4420940000000  0.5385140000000 1.0
C      1  0.5508840000000  0.5874460000000  0.4426170000000 1.0
C      1  0.5516200000000  0.5072560000000  0.5277610000000 1.0
C      1  0.5363200000000  0.6128260000000  0.5155290000000 1.0
C      1  0.5315130000000  0.5148400000000  0.3893580000000 1.0
C      1  0.4284480000000  0.5406120000000  0.4848440000000 1.0
C      1  0.4009400000000  0.4947540000000  0.4394860000000 1.0
C      1  0.5433780000000  0.4620300000000  0.5505930000000 1.0
C      1  0.5674760000000  0.5749100000000  0.5288100000000 1.0
C      1  0.5414530000000  0.5778680000000  0.4168910000000 1.0
C      1  0.4880260000000  0.4304390000000  0.5026770000000 1.0
C      1  0.5275020000000  0.5582310000000  0.4647300000000 1.0
C      1  0.5546260000000  0.5236650000000  0.4044220000000 1.0
C      1  0.4980340000000  0.5572840000000  0.3991200000000 1.0
C      1  0.5966670000000  0.5571420000000  0.4872750000000 1.0
C      1  0.4911750000000  0.5254860000000  0.4364040000000 1.0
C      1  0.4268640000000  0.5670650000000  0.4932490000000 1.0
C      1  0.5819230000000  0.5180540000000  0.5738230000000 1.0
C      1  0.4144070000000  0.4588350000000  0.4571520000000 1.0
C      1  0.5375490000000  0.4884430000000  0.4693830000000 1.0
C      1  0.4413690000000  0.5000950000000  0.5159140000000 1.0
C      1  0.3762260000000  0.5034870000000  0.5040690000000 1.0
C      1  0.4039680000000  0.5263160000000  0.5694750000000 1.0
C      1  0.4711650000000  0.5550770000000  0.5915240000000 1.0
C      1  0.5353060000000  0.5445680000000  0.4415000000000 1.0
C      1  0.4207950000000  0.4817980000000  0.5630940000000 1.0
C      1  0.5990770000000  0.4435560000000  0.4937200000000 1.0
C      1  0.4502030000000  0.4990270000000  0.4023730000000 1.0
C      1  0.5045320000000  0.4742210000000  0.6081550000000 1.0
C      1  0.5941460000000  0.5419960000000  0.5594990000000 1.0
C      1  0.5147790000000  0.3914040000000  0.5256170000000 1.0
C      1  0.4630290000000  0.4431270000000  0.5910370000000 1.0
C      1  0.4729050000000  0.4307350000000  0.4585790000000 1.0
C      1  0.6052610000000  0.5307160000000  0.4447440000000 1.0
C      1  0.4946770000000  0.4445660000000  0.4479060000000 1.0
C      1  0.5074470000000  0.5320010000000  0.3857300000000 1.0
C      1  0.4552000000000  0.5929360000000  0.5233730000000 1.0
C      1  0.4423860000000  0.5139470000000  0.4234640000000 1.0
C      1  0.3985130000000  0.5192460000000  0.5191570000000 1.0
C      1  0.6141250000000  0.4804830000000  0.5252140000000 1.0
C      1  0.5433220000000  0.5606900000000  0.5339630000000 1.0
C      1  0.5714940000000  0.5193560000000  0.4636000000000 1.0
C      1  0.5319190000000  0.5049190000000  0.5734210000000 1.0
C      1  0.5150570000000  0.5325300000000  0.6119860000000 1.0
C      1  0.5985220000000  0.4709900000000  0.5490860000000 1.0
C      1  0.5148980000000  0.5784280000000  0.5944400000000 1.0
C      1  0.5134510000000  0.4007440000000  0.4487020000000 1.0
C      1  0.5040010000000  0.6056430000000  0.4592880000000 1.0
C      1  0.5153030000000  0.4535590000000  0.4647870000000 1.0
C      1  0.4937260000000  0.4636760000000  0.4124680000000 1.0
C      1  0.5009600000000  0.5763590000000  0.5053850000000 1.0
C      1  0.4465040000000  0.4443200000000  0.5661730000000 1.0
C      1  0.4992130000000  0.5993220000000  0.4305490000000 1.0
C      1  0.5567130000000  0.6133590000000  0.4930390000000 1.0
C      1  0.4599660000000  0.5737540000000  0.5707840000000 1.0
C      1  0.4390230000000  0.5874620000000  0.4797620000000 1.0
C      1  0.5928530000000  0.5604940000000  0.5379750000000 1.0
C      1  0.4146780000000  0.5023400000000  0.5824690000000 1.0
C      1  0.4486480000000  0.5246890000000  0.5587220000000 1.0
C      1  0.4740990000000  0.5709400000000  0.4564910000000 1.0
C      1  0.5393950000000  0.4645370000000  0.4541330000000 1.0
C      1  0.5062580000000  0.4662570000000  0.3876920000000 1.0
C      1  0.4202980000000  0.4540600000000  0.5635520000000 1.0
C      1  0.4166540000000  0.5006640000000  0.5019610000000 1.0
C      1  0.5182560000000  0.5330960000000  0.5066660000000 1.0
C      1  0.6079880000000  0.5486680000000  0.5135300000000 1.0
C      1  0.5424300000000  0.5353130000000  0.6097670000000 1.0
C      1  0.5982300000000  0.4761720000000  0.4483070000000 1.0
C      1  0.4974610000000  0.3897040000000  0.5457150000000 1.0
C      1  0.4542480000000  0.4833120000000  0.6026780000000 1.0
C      1  0.5243960000000  0.4735930000000  0.5685990000000 1.0
C      1  0.5732170000000  0.5060560000000  0.4177470000000 1.0
C      1  0.4693960000000  0.3873580000000  0.5296880000000 1.0
C      1  0.4295830000000  0.5395580000000  0.5751760000000 1.0
C      1  0.5480740000000  0.5491520000000  0.4187220000000 1.0
C      1  0.5006180000000  0.4529160000000  0.5380440000000 1.0
C      1  0.5789190000000  0.5790570000000  0.4566990000000 1.0
C      1  0.4990050000000  0.5977370000000  0.5470200000000 1.0
C      1  0.4422950000000  0.5023370000000  0.4528110000000 1.0
C      1  0.4759580000000  0.4663970000000  0.6061590000000 1.0
C      1  0.5122240000000  0.5803960000000  0.4116380000000 1.0
C      1  0.5483480000000  0.3985760000000  0.4929310000000 1.0
C      1  0.5530700000000  0.4781440000000  0.5295620000000 1.0
C      1  0.4065270000000  0.5456560000000  0.4418050000000 1.0
C      1  0.4791730000000  0.5246970000000  0.3808540000000 1.0
C      1  0.6353800000000  0.5298280000000  0.5208540000000 1.0
C      1  0.4863030000000  0.4601410000000  0.3638960000000 1.0
C      1  0.5861260000000  0.4445180000000  0.5440220000000 1.0
C      1  0.4477300000000  0.4454900000000  0.3981680000000 1.0
C      1  0.3827310000000  0.5207840000000  0.4820620000000 1.0
C      1  0.4435870000000  0.4958920000000  0.5494390000000 1.0
C      1  0.4830300000000  0.6116560000000  0.4801130000000 1.0
C      1  0.4021430000000  0.5374740000000  0.4708890000000 1.0
C      1  0.4308010000000  0.5770830000000  0.5189790000000 1.0
C      1  0.4889670000000  0.3929560000000  0.4551000000000 1.0
C      1  0.5709600000000  0.5941630000000  0.4783400000000 1.0
C      1  0.4776880000000  0.5146230000000  0.6167120000000 1.0
C      1  0.5621400000000  0.4427540000000  0.5615140000000 1.0
C      1  0.5455730000000  0.5503760000000  0.5606290000000 1.0
C      1  0.4885270000000  0.4974890000000  0.5656680000000 1.0
C      1  0.4916820000000  0.5006690000000  0.4508810000000 1.0
C      1  0.5858550000000  0.4316240000000  0.5176970000000 1.0
C      1  0.5988450000000  0.5562530000000  0.4592640000000 1.0
C      1  0.5106030000000  0.4086250000000  0.5623860000000 1.0
C      1  0.4376290000000  0.4540580000000  0.5174510000000 1.0
C      1  0.5057170000000  0.5183720000000  0.5636630000000 1.0
C      1  0.4549450000000  0.5275280000000  0.5139700000000 1.0
C      1  0.4789570000000  0.4629710000000  0.4346230000000 1.0
C      1  0.4672060000000  0.4248220000000  0.4853600000000 1.0
C      1  0.4469280000000  0.5424790000000  0.4162440000000 1.0
C      1  0.4805290000000  0.4348950000000  0.5296480000000 1.0
C      1  0.5286480000000  0.5875640000000  0.4618660000000 1.0
C      1  0.5120000000000  0.4259750000000  0.5839240000000 1.0
C      1  0.4738340000000  0.5422340000000  0.4525440000000 1.0
C      1  0.4721840000000  0.5223380000000  0.4920200000000 1.0
C      1  0.5313070000000  0.4852480000000  0.3871560000000 1.0
C      1  0.5088250000000  0.4898510000000  0.5097990000000 1.0
C      1  0.4679150000000  0.5354480000000  0.5397140000000 1.0
C      1  0.5658170000000  0.5225230000000  0.6024000000000 1.0
C      1  0.5134060000000  0.5538490000000  0.5248410000000 1.0
C      1  0.4882930000000  0.5701090000000  0.4818880000000 1.0
C      1  0.4168920000000  0.4320010000000  0.4685160000000 1.0
C      1  0.4696290000000  0.5473500000000  0.3971430000000 1.0
C      1  0.5705850000000  0.4769260000000  0.5907300000000 1.0
C      1  0.4862680000000  0.4970520000000  0.4932920000000 1.0
C      1  0.5182160000000  0.5086420000000  0.4616940000000 1.0
C      1  0.5586430000000  0.4633310000000  0.5068340000000 1.0
C      1  0.4931620000000  0.3861360000000  0.4827420000000 1.0
C      1  0.4025290000000  0.5374890000000  0.5419530000000 1.0
C      1  0.4698820000000  0.3849370000000  0.5001630000000 1.0
C      1  0.4962220000000  0.5378870000000  0.5455430000000 1.0
C      1  0.5909450000000  0.4481460000000  0.4647630000000 1.0
C      1  0.4493500000000  0.4756830000000  0.5027940000000 1.0
C      1  0.5029260000000  0.5019520000000  0.6154880000000 1.0
C      1  0.5654690000000  0.5177020000000  0.5039490000000 1.0
C      1  0.5439920000000  0.4693860000000  0.4059120000000 1.0
C      1  0.5251210000000  0.4552670000000  0.5922200000000 1.0
C      1  0.4709000000000  0.5893370000000  0.5479240000000 1.0
C      1  0.4983360000000  0.5553180000000  0.6017070000000 1.0
C      1  0.4208380000000  0.4117170000000  0.5366510000000 1.0
END
