TITL C-884139-6216-211 0.0917387418248454 125000 -3041.38622009663 0 0 22 (C1) n - 1
REM
REM in /home/nfs/bkarasulu/CARBON/AIRSS/Generating-Clusters/ReaxFF-fromJPCA2015/Units_Real/with-SteepDescent/Only-C1/SD-CG/Try1-3A/FIRE-CG
REM
REM
REM
REM
REM
REM ./C.cell (11c1c37f851c82e70ff6c80c92926a4b)
REM
REM compiler GCC version 9.2.1 20190827 (Red Hat 9.2.1-1)
REM options -cpp -mtune=generic -march=x86-64 -g -O0 -fpre-include=/usr/include/finclude/math-vector-fortran.h
REM seed 1292981090 -808518722 -28545324 -897323037 700885564 -1530229241 964869997 994700865 1038899535 -2001874867 -1407166499 2113831402 211311178 489329080 2066902660 1208359404 -229107957 -1614096395 4166425 1003857166 1172886566 2062630115 228509291 -1077508611 1358995743 2136398833 -1002915331 -1781222400 1934366050 -645959286 925233327 -1380686298 -1602984911
REM
CELL 1.54180   50.00000   50.00000   50.00000   90.00000   90.00000   90.00000
LATT -1
SFAC C  
C      1  0.5149670000000  0.4676830000000  0.5229350000000 1.0
C      1  0.5374760000000  0.5207800000000  0.4888440000000 1.0
C      1  0.4417290000000  0.5287460000000  0.4673200000000 1.0
C      1  0.4723900000000  0.4851560000000  0.5376540000000 1.0
C      1  0.5143710000000  0.4809480000000  0.4654370000000 1.0
C      1  0.5189020000000  0.4955130000000  0.5293130000000 1.0
C      1  0.5284940000000  0.4653300000000  0.4838500000000 1.0
C      1  0.4747420000000  0.4570160000000  0.4931720000000 1.0
C      1  0.4943480000000  0.5274840000000  0.4742410000000 1.0
C      1  0.4859300000000  0.4708420000000  0.4656380000000 1.0
C      1  0.4990190000000  0.5447060000000  0.4968080000000 1.0
C      1  0.4653960000000  0.5158440000000  0.4660190000000 1.0
C      1  0.4483010000000  0.4864540000000  0.5456810000000 1.0
C      1  0.4933590000000  0.5085230000000  0.5353260000000 1.0
C      1  0.5411100000000  0.5119480000000  0.5174510000000 1.0
C      1  0.5167150000000  0.5100980000000  0.4707010000000 1.0
C      1  0.4872030000000  0.5340890000000  0.5225760000000 1.0
C      1  0.5377900000000  0.4514560000000  0.5067980000000 1.0
C      1  0.5291510000000  0.5473080000000  0.4987610000000 1.0
C      1  0.5428810000000  0.5413070000000  0.5255740000000 1.0
C      1  0.4696700000000  0.4865450000000  0.4666520000000 1.0
C      1  0.4860560000000  0.4622230000000  0.5192490000000 1.0
END
