TITL C-884142-5251-311 20.879866245177 125000 -17917.503633455 0 0 121 (C1) n - 1
REM
REM in /home/nfs/bkarasulu/CARBON/AIRSS/Generating-Clusters/ReaxFF-fromJPCA2015/Units_Real/with-SteepDescent/Only-C1/SD-CG/Try1-3A/FIRE-CG
REM
REM
REM
REM
REM
REM ./C.cell (11c1c37f851c82e70ff6c80c92926a4b)
REM
REM compiler GCC version 9.2.1 20190827 (Red Hat 9.2.1-1)
REM options -cpp -mtune=generic -march=x86-64 -g -O0 -fpre-include=/usr/include/finclude/math-vector-fortran.h
REM seed 1192008114 -1096559016 -417250611 1293797277 1491004070 1326691040 -1562385229 -1399348787 -1721075510 -379092914 1868967526 1961291510 -663606754 1837831414 -859019907 1235457564 -1156584021 95877542 -1680007064 -1542961524 1700160151 -1593996366 1007217136 522351030 -2122637792 1106135307 -1751814980 899039266 2038612256 1483161773 -912309702 1292532177 -1687210678
REM
CELL 1.54180   50.00000   50.00000   50.00000   90.00000   90.00000   90.00000
LATT -1
SFAC C  
C      1  0.4666990000000  0.4750690000000  0.4296820000000 1.0
C      1  0.4916970000000  0.5524590000000  0.4198020000000 1.0
C      1  0.4765910000000  0.4803460000000  0.4773490000000 1.0
C      1  0.4248590000000  0.4345440000000  0.4964110000000 1.0
C      1  0.4988110000000  0.5739690000000  0.5719870000000 1.0
C      1  0.4442390000000  0.4366760000000  0.5378970000000 1.0
C      1  0.5910200000000  0.4907560000000  0.4825790000000 1.0
C      1  0.4628620000000  0.5440260000000  0.4230480000000 1.0
C      1  0.5196220000000  0.5503670000000  0.5070610000000 1.0
C      1  0.4239410000000  0.5472250000000  0.5227730000000 1.0
C      1  0.4953360000000  0.5948580000000  0.5047330000000 1.0
C      1  0.5391150000000  0.4307610000000  0.4777560000000 1.0
C      1  0.5061640000000  0.5184620000000  0.5387670000000 1.0
C      1  0.4626420000000  0.5349390000000  0.5741020000000 1.0
C      1  0.4289470000000  0.5072370000000  0.4413560000000 1.0
C      1  0.4924090000000  0.4705130000000  0.5330240000000 1.0
C      1  0.5104000000000  0.4885270000000  0.5767390000000 1.0
C      1  0.5566020000000  0.4767860000000  0.4501730000000 1.0
C      1  0.4806230000000  0.5872790000000  0.4822670000000 1.0
C      1  0.4847540000000  0.5779950000000  0.4322210000000 1.0
C      1  0.4583070000000  0.4728050000000  0.5719660000000 1.0
C      1  0.4894300000000  0.5413610000000  0.5367680000000 1.0
C      1  0.5977270000000  0.4964000000000  0.5107730000000 1.0
C      1  0.5074700000000  0.4647860000000  0.3963950000000 1.0
C      1  0.4212820000000  0.4495870000000  0.5250630000000 1.0
C      1  0.5435990000000  0.4474570000000  0.4126030000000 1.0
C      1  0.5628200000000  0.4443750000000  0.4864870000000 1.0
C      1  0.4810660000000  0.4891380000000  0.5832280000000 1.0
C      1  0.4038780000000  0.5059070000000  0.4841620000000 1.0
C      1  0.4562270000000  0.5712950000000  0.4336000000000 1.0
C      1  0.4678310000000  0.5309570000000  0.5196680000000 1.0
C      1  0.5164370000000  0.4399010000000  0.4115090000000 1.0
C      1  0.5182620000000  0.5558640000000  0.5829950000000 1.0
C      1  0.5428230000000  0.5054660000000  0.5111560000000 1.0
C      1  0.5400900000000  0.4221120000000  0.5349250000000 1.0
C      1  0.5175460000000  0.5418890000000  0.4295130000000 1.0
C      1  0.4261110000000  0.4938710000000  0.4720510000000 1.0
C      1  0.5540780000000  0.4426670000000  0.5170890000000 1.0
C      1  0.4189310000000  0.4793360000000  0.4317730000000 1.0
C      1  0.5094040000000  0.4907040000000  0.5474310000000 1.0
C      1  0.5096170000000  0.4974380000000  0.4501860000000 1.0
C      1  0.4690670000000  0.4881640000000  0.5302580000000 1.0
C      1  0.5590270000000  0.4639980000000  0.4245340000000 1.0
C      1  0.4535160000000  0.5309480000000  0.4942410000000 1.0
C      1  0.4986440000000  0.4966080000000  0.4932130000000 1.0
C      1  0.5586520000000  0.5582350000000  0.5185280000000 1.0
C      1  0.4762120000000  0.5590900000000  0.5576050000000 1.0
C      1  0.5784010000000  0.4502010000000  0.5344830000000 1.0
C      1  0.4974480000000  0.5751170000000  0.4579730000000 1.0
C      1  0.5685470000000  0.5166420000000  0.4467880000000 1.0
C      1  0.4805070000000  0.4250620000000  0.5592820000000 1.0
C      1  0.5494460000000  0.5754590000000  0.4937600000000 1.0
C      1  0.4328300000000  0.5117860000000  0.5656540000000 1.0
C      1  0.5503970000000  0.5593100000000  0.4699270000000 1.0
C      1  0.5279870000000  0.4615860000000  0.5132670000000 1.0
C      1  0.5043250000000  0.4270760000000  0.5741190000000 1.0
C      1  0.4848770000000  0.4803500000000  0.4036000000000 1.0
C      1  0.5391040000000  0.5327870000000  0.5155260000000 1.0
C      1  0.4640770000000  0.5349380000000  0.4685380000000 1.0
C      1  0.4823810000000  0.4872910000000  0.4502590000000 1.0
C      1  0.5050420000000  0.5934450000000  0.5517020000000 1.0
C      1  0.5159100000000  0.4122500000000  0.5222270000000 1.0
C      1  0.5860520000000  0.5175710000000  0.4672480000000 1.0
C      1  0.5870510000000  0.5186360000000  0.5270230000000 1.0
C      1  0.5097520000000  0.4941960000000  0.4026620000000 1.0
C      1  0.4252120000000  0.4524420000000  0.4440230000000 1.0
C      1  0.5738200000000  0.5121920000000  0.5540910000000 1.0
C      1  0.4208120000000  0.4438980000000  0.4707660000000 1.0
C      1  0.4193740000000  0.5192640000000  0.5260110000000 1.0
C      1  0.5269390000000  0.5584310000000  0.4515050000000 1.0
C      1  0.5239370000000  0.4097190000000  0.4926510000000 1.0
C      1  0.4527470000000  0.5792180000000  0.4880410000000 1.0
C      1  0.4486790000000  0.4840500000000  0.4880810000000 1.0
C      1  0.5292070000000  0.5105040000000  0.5841640000000 1.0
C      1  0.4523180000000  0.5269910000000  0.4438500000000 1.0
C      1  0.4862670000000  0.5077490000000  0.5171780000000 1.0
C      1  0.5568980000000  0.4867790000000  0.5275970000000 1.0
C      1  0.5054320000000  0.4066820000000  0.4719570000000 1.0
C      1  0.5275160000000  0.4289300000000  0.5740980000000 1.0
C      1  0.5241730000000  0.5825570000000  0.5087280000000 1.0
C      1  0.5751590000000  0.4678960000000  0.4742930000000 1.0
C      1  0.4881050000000  0.4153130000000  0.5312080000000 1.0
C      1  0.4247300000000  0.5291480000000  0.4986880000000 1.0
C      1  0.4434460000000  0.5755720000000  0.4608120000000 1.0
C      1  0.5285020000000  0.4767170000000  0.4630180000000 1.0
C      1  0.5075920000000  0.4328540000000  0.4385920000000 1.0
C      1  0.4906270000000  0.5484980000000  0.4651520000000 1.0
C      1  0.5691960000000  0.4567540000000  0.5606220000000 1.0
C      1  0.5085780000000  0.5143290000000  0.4744930000000 1.0
C      1  0.4427000000000  0.4901570000000  0.4226390000000 1.0
C      1  0.5169220000000  0.4486700000000  0.4637980000000 1.0
C      1  0.4328220000000  0.4840270000000  0.5610080000000 1.0
C      1  0.5617910000000  0.4851860000000  0.5568610000000 1.0
C      1  0.5807420000000  0.5404090000000  0.5089550000000 1.0
C      1  0.4886000000000  0.4150410000000  0.4513620000000 1.0
C      1  0.4831730000000  0.5955540000000  0.5311440000000 1.0
C      1  0.5520110000000  0.5243470000000  0.5699320000000 1.0
C      1  0.4627610000000  0.4207190000000  0.5182810000000 1.0
C      1  0.4905600000000  0.4519370000000  0.4820790000000 1.0
C      1  0.5501650000000  0.5701720000000  0.5467860000000 1.0
C      1  0.5538020000000  0.5030670000000  0.4287770000000 1.0
C      1  0.5091290000000  0.5292000000000  0.5921750000000 1.0
C      1  0.5006930000000  0.4534240000000  0.5101360000000 1.0
C      1  0.4536230000000  0.4488600000000  0.4452120000000 1.0
C      1  0.5097290000000  0.5397570000000  0.4829090000000 1.0
C      1  0.5517940000000  0.4320500000000  0.5607730000000 1.0
C      1  0.4516030000000  0.4233510000000  0.4919220000000 1.0
C      1  0.4607420000000  0.5781800000000  0.5367180000000 1.0
C      1  0.5738320000000  0.5406700000000  0.4800670000000 1.0
C      1  0.5272710000000  0.4857530000000  0.4956140000000 1.0
C      1  0.4466340000000  0.4830380000000  0.5151200000000 1.0
C      1  0.4588140000000  0.4456650000000  0.5621660000000 1.0
C      1  0.5305720000000  0.5888000000000  0.5387830000000 1.0
C      1  0.5444090000000  0.5529430000000  0.5692170000000 1.0
C      1  0.4429560000000  0.5687770000000  0.5167150000000 1.0
C      1  0.5812750000000  0.4735350000000  0.5181910000000 1.0
C      1  0.5241890000000  0.5116160000000  0.4236890000000 1.0
C      1  0.4674120000000  0.4334260000000  0.4665600000000 1.0
C      1  0.4813380000000  0.5176330000000  0.5892330000000 1.0
C      1  0.4547020000000  0.5202010000000  0.5501810000000 1.0
C      1  0.4244440000000  0.4904910000000  0.5318930000000 1.0
END
