TITL C-884141-4321-112 -9.15989318435272 125000 -8586.24924277276 0 0 58 (C1) n - 1
REM
REM in /home/nfs/bkarasulu/CARBON/AIRSS/Generating-Clusters/ReaxFF-fromJPCA2015/Units_Real/with-SteepDescent/Only-C1/SD-CG/Try1-3A/FIRE-CG
REM
REM
REM
REM
REM
REM ./C.cell (11c1c37f851c82e70ff6c80c92926a4b)
REM
REM compiler GCC version 9.2.1 20190827 (Red Hat 9.2.1-1)
REM options -cpp -mtune=generic -march=x86-64 -g -O0 -fpre-include=/usr/include/finclude/math-vector-fortran.h
REM seed -1386218711 1316489802 -54771746 -677400159 -104637937 1294073885 1762393600 346522062 -1405155289 1490681149 258954437 1969220475 -158109558 -1136687867 -1787376979 -1853245559 -1237090705 -773840943 -1311524428 297579136 1396171016 -2098041119 -1136895777 -1274073956 -848439627 -1611783540 1079005965 -2003954229 -382629998 2127974345 -563997004 -910322802 879203354
REM
CELL 1.54180   50.00000   50.00000   50.00000   90.00000   90.00000   90.00000
LATT -1
SFAC C  
C      1  0.4554880000000  0.5285500000000  0.4763440000000 1.0
C      1  0.5344390000000  0.5281570000000  0.5507960000000 1.0
C      1  0.4168050000000  0.5414840000000  0.4829330000000 1.0
C      1  0.5208900000000  0.5719980000000  0.5214690000000 1.0
C      1  0.5462450000000  0.5324150000000  0.4878790000000 1.0
C      1  0.5585360000000  0.4887290000000  0.4934550000000 1.0
C      1  0.4816100000000  0.5212300000000  0.4892640000000 1.0
C      1  0.4839860000000  0.4760880000000  0.5585730000000 1.0
C      1  0.5404260000000  0.4769330000000  0.5489060000000 1.0
C      1  0.5403720000000  0.4874780000000  0.4500280000000 1.0
C      1  0.5199210000000  0.5788870000000  0.4915150000000 1.0
C      1  0.5063570000000  0.4345720000000  0.4856650000000 1.0
C      1  0.4912460000000  0.5755880000000  0.5219100000000 1.0
C      1  0.4892790000000  0.4640700000000  0.4481020000000 1.0
C      1  0.4590040000000  0.4443860000000  0.4847250000000 1.0
C      1  0.5275090000000  0.4540890000000  0.4797960000000 1.0
C      1  0.4328890000000  0.5258060000000  0.4959840000000 1.0
C      1  0.5116520000000  0.4856610000000  0.5459450000000 1.0
C      1  0.4479450000000  0.4953590000000  0.5313100000000 1.0
C      1  0.5656320000000  0.5129590000000  0.5271960000000 1.0
C      1  0.5620040000000  0.4746180000000  0.4679860000000 1.0
C      1  0.4471850000000  0.4966540000000  0.4367030000000 1.0
C      1  0.5331110000000  0.5668930000000  0.4675450000000 1.0
C      1  0.5534270000000  0.5038820000000  0.5504590000000 1.0
C      1  0.4914540000000  0.5700380000000  0.4925490000000 1.0
C      1  0.5098500000000  0.5146340000000  0.5577630000000 1.0
C      1  0.5349620000000  0.4305140000000  0.5245100000000 1.0
C      1  0.5299530000000  0.4795950000000  0.4956520000000 1.0
C      1  0.5072820000000  0.4286330000000  0.5143550000000 1.0
C      1  0.5200160000000  0.5309760000000  0.5016230000000 1.0
C      1  0.5684960000000  0.5163950000000  0.4995750000000 1.0
C      1  0.4830460000000  0.5179930000000  0.4382680000000 1.0
C      1  0.5504640000000  0.4530490000000  0.5362500000000 1.0
C      1  0.5082740000000  0.4869750000000  0.5135340000000 1.0
C      1  0.5437840000000  0.5399650000000  0.4596800000000 1.0
C      1  0.5288430000000  0.5445850000000  0.5266300000000 1.0
C      1  0.4845710000000  0.4442210000000  0.4692730000000 1.0
C      1  0.4825850000000  0.4349420000000  0.5288870000000 1.0
C      1  0.4804770000000  0.4473740000000  0.5570960000000 1.0
C      1  0.5132050000000  0.4802700000000  0.4409210000000 1.0
C      1  0.4573540000000  0.4789840000000  0.5086540000000 1.0
C      1  0.4399580000000  0.5205780000000  0.5277820000000 1.0
C      1  0.5575580000000  0.4409240000000  0.5093680000000 1.0
C      1  0.4650300000000  0.4987070000000  0.5527540000000 1.0
C      1  0.4660450000000  0.5612830000000  0.5236480000000 1.0
C      1  0.5086090000000  0.5090090000000  0.4314930000000 1.0
C      1  0.4836620000000  0.4944200000000  0.5013610000000 1.0
C      1  0.4415620000000  0.4674770000000  0.4826920000000 1.0
C      1  0.5561020000000  0.4481460000000  0.4806920000000 1.0
C      1  0.4618740000000  0.4476740000000  0.5133950000000 1.0
C      1  0.4984800000000  0.5427540000000  0.4889830000000 1.0
C      1  0.4741110000000  0.5500380000000  0.5498120000000 1.0
C      1  0.4629350000000  0.4720310000000  0.4376250000000 1.0
C      1  0.5359080000000  0.5156320000000  0.4435770000000 1.0
C      1  0.4388050000000  0.4748340000000  0.4550250000000 1.0
C      1  0.4571890000000  0.5233820000000  0.4469200000000 1.0
C      1  0.4489820000000  0.5449880000000  0.5383910000000 1.0
C      1  0.4826170000000  0.5224950000000  0.5567730000000 1.0
END
