TITL C-883731-9874-109 25.2658244147156 125000 -29155.9095787684 0 0 194 (C1) n - 1
REM
REM in /home/nfs/bkarasulu/CARBON/AIRSS/Generating-Clusters/ReaxFF-fromJPCA2015/Units_Real/with-SteepDescent/Only-C1/SD-CG/Try1-3A/FIRE-CG
REM
REM
REM
REM
REM
REM ./C.cell (11c1c37f851c82e70ff6c80c92926a4b)
REM
REM compiler GCC version 9.2.1 20190827 (Red Hat 9.2.1-1)
REM options -cpp -mtune=generic -march=x86-64 -g -O0 -fpre-include=/usr/include/finclude/math-vector-fortran.h
REM seed 276206691 1929593929 -1594745906 1484578730 -1899561415 -2010380900 -1616003310 482761374 1662170710 1481925408 268652243 -1904209756 -926808574 1044202617 523587593 -830363518 -1278828421 1047199209 1659204531 1907194102 -274707335 280482439 1711693786 -838616987 1705290372 -63851534 -1315823601 1361911389 1168001816 159986189 -1854057507 962803565 1589007765
REM
CELL 1.54180   50.00000   50.00000   50.00000   90.00000   90.00000   90.00000
LATT -1
SFAC C  
C      1  0.5744770000000  0.4684830000000  0.5431230000000 1.0
C      1  0.4362570000000  0.5464750000000  0.5869090000000 1.0
C      1  0.5965870000000  0.5372030000000  0.4815190000000 1.0
C      1  0.5129070000000  0.5024560000000  0.5189570000000 1.0
C      1  0.4341690000000  0.4139280000000  0.4959000000000 1.0
C      1  0.4560920000000  0.5678470000000  0.4118430000000 1.0
C      1  0.5326680000000  0.4465620000000  0.5914270000000 1.0
C      1  0.4637490000000  0.5876290000000  0.5560790000000 1.0
C      1  0.5820480000000  0.4448600000000  0.5823920000000 1.0
C      1  0.5132030000000  0.4737260000000  0.3895320000000 1.0
C      1  0.4980720000000  0.4789320000000  0.5114360000000 1.0
C      1  0.5067870000000  0.5194780000000  0.4712980000000 1.0
C      1  0.3862570000000  0.5091870000000  0.5861170000000 1.0
C      1  0.6061900000000  0.4723430000000  0.4775800000000 1.0
C      1  0.4997860000000  0.4085400000000  0.5782810000000 1.0
C      1  0.5830780000000  0.5053340000000  0.4193970000000 1.0
C      1  0.5540400000000  0.4541620000000  0.4698450000000 1.0
C      1  0.4726890000000  0.4393030000000  0.4037820000000 1.0
C      1  0.5750480000000  0.5546610000000  0.4424680000000 1.0
C      1  0.4538360000000  0.5951180000000  0.4824190000000 1.0
C      1  0.4876700000000  0.4000460000000  0.5520400000000 1.0
C      1  0.4747430000000  0.5377240000000  0.5299150000000 1.0
C      1  0.4520930000000  0.4047790000000  0.4752110000000 1.0
C      1  0.4561090000000  0.4946680000000  0.5267860000000 1.0
C      1  0.4058480000000  0.5248030000000  0.5027700000000 1.0
C      1  0.5168510000000  0.5782590000000  0.4343680000000 1.0
C      1  0.5831000000000  0.4597210000000  0.4885890000000 1.0
C      1  0.3734710000000  0.5079130000000  0.5332790000000 1.0
C      1  0.4510550000000  0.4783970000000  0.3873660000000 1.0
C      1  0.5261910000000  0.5269310000000  0.4520390000000 1.0
C      1  0.5199550000000  0.3992680000000  0.4447300000000 1.0
C      1  0.4822350000000  0.4857980000000  0.5760070000000 1.0
C      1  0.4197770000000  0.5814030000000  0.5195470000000 1.0
C      1  0.6113050000000  0.4300480000000  0.5246150000000 1.0
C      1  0.4587280000000  0.4216490000000  0.4265530000000 1.0
C      1  0.4170670000000  0.5692980000000  0.5465010000000 1.0
C      1  0.5384000000000  0.4723320000000  0.4025660000000 1.0
C      1  0.4038160000000  0.5450840000000  0.5514450000000 1.0
C      1  0.4174520000000  0.4332420000000  0.4857130000000 1.0
C      1  0.5004790000000  0.5517140000000  0.3898490000000 1.0
C      1  0.6016740000000  0.5112020000000  0.4401350000000 1.0
C      1  0.4400080000000  0.4192490000000  0.5288280000000 1.0
C      1  0.4791360000000  0.5788830000000  0.4972900000000 1.0
C      1  0.5541160000000  0.5318780000000  0.5313760000000 1.0
C      1  0.5352360000000  0.4094340000000  0.5318560000000 1.0
C      1  0.5965590000000  0.5387980000000  0.4524140000000 1.0
C      1  0.5496920000000  0.4860480000000  0.4306820000000 1.0
C      1  0.5273090000000  0.4168910000000  0.5812240000000 1.0
C      1  0.4368520000000  0.4521800000000  0.5637750000000 1.0
C      1  0.5510250000000  0.4837050000000  0.5496680000000 1.0
C      1  0.4391690000000  0.6022410000000  0.5110870000000 1.0
C      1  0.5330290000000  0.4419920000000  0.5212840000000 1.0
C      1  0.6197020000000  0.4900240000000  0.5267150000000 1.0
C      1  0.5801500000000  0.4764970000000  0.4298770000000 1.0
C      1  0.4828220000000  0.5733300000000  0.4013280000000 1.0
C      1  0.4203630000000  0.5384230000000  0.4355550000000 1.0
C      1  0.5444060000000  0.5393560000000  0.5953420000000 1.0
C      1  0.4532450000000  0.4274830000000  0.5718060000000 1.0
C      1  0.5959370000000  0.5513120000000  0.5319310000000 1.0
C      1  0.6000090000000  0.4841570000000  0.4514790000000 1.0
C      1  0.5031610000000  0.5826330000000  0.4592400000000 1.0
C      1  0.4942720000000  0.5849580000000  0.5625070000000 1.0
C      1  0.4816260000000  0.4320910000000  0.5128570000000 1.0
C      1  0.5740150000000  0.4199050000000  0.5658090000000 1.0
C      1  0.4931610000000  0.5260840000000  0.4260450000000 1.0
C      1  0.5865240000000  0.5141010000000  0.5627940000000 1.0
C      1  0.4373450000000  0.5605520000000  0.5078260000000 1.0
C      1  0.4798190000000  0.5323570000000  0.4683950000000 1.0
C      1  0.5115030000000  0.4807770000000  0.4448970000000 1.0
C      1  0.4948200000000  0.5615330000000  0.4785210000000 1.0
C      1  0.4242970000000  0.5539900000000  0.4596500000000 1.0
C      1  0.4158500000000  0.4617280000000  0.4369960000000 1.0
C      1  0.5037630000000  0.5654610000000  0.6113510000000 1.0
C      1  0.3826270000000  0.4590870000000  0.5149850000000 1.0
C      1  0.4660290000000  0.5168180000000  0.5116060000000 1.0
C      1  0.5475850000000  0.4455130000000  0.4069860000000 1.0
C      1  0.4886870000000  0.4692240000000  0.4598570000000 1.0
C      1  0.5541160000000  0.5187390000000  0.5048980000000 1.0
C      1  0.6158410000000  0.5217090000000  0.4970830000000 1.0
C      1  0.5078920000000  0.4984730000000  0.5714200000000 1.0
C      1  0.4718870000000  0.6052300000000  0.4362560000000 1.0
C      1  0.5173150000000  0.5447780000000  0.4292940000000 1.0
C      1  0.4873410000000  0.4032150000000  0.5087290000000 1.0
C      1  0.4544350000000  0.5988120000000  0.5339080000000 1.0
C      1  0.4431470000000  0.5126160000000  0.5494870000000 1.0
C      1  0.4541960000000  0.5373790000000  0.5508890000000 1.0
C      1  0.4670360000000  0.5020660000000  0.3859790000000 1.0
C      1  0.4997560000000  0.5003290000000  0.3931380000000 1.0
C      1  0.4796590000000  0.4286100000000  0.5848740000000 1.0
C      1  0.4582950000000  0.4496730000000  0.4252370000000 1.0
C      1  0.4737860000000  0.4665100000000  0.5554420000000 1.0
C      1  0.5050160000000  0.5967940000000  0.5155520000000 1.0
C      1  0.4296340000000  0.5389620000000  0.4875760000000 1.0
C      1  0.4598560000000  0.5410120000000  0.6030210000000 1.0
C      1  0.3980480000000  0.5001630000000  0.4929990000000 1.0
C      1  0.4939220000000  0.5926110000000  0.4206130000000 1.0
C      1  0.4408420000000  0.4775640000000  0.4692200000000 1.0
C      1  0.5198680000000  0.4338930000000  0.4102800000000 1.0
C      1  0.5327270000000  0.4633900000000  0.5421640000000 1.0
C      1  0.4830100000000  0.4796530000000  0.4866800000000 1.0
C      1  0.4577030000000  0.5249870000000  0.4860120000000 1.0
C      1  0.4603470000000  0.4730120000000  0.4475470000000 1.0
C      1  0.5228620000000  0.6025120000000  0.4675180000000 1.0
C      1  0.5694960000000  0.5575580000000  0.5368370000000 1.0
C      1  0.4240690000000  0.5016450000000  0.5676650000000 1.0
C      1  0.5522470000000  0.5108900000000  0.5948270000000 1.0
C      1  0.5840920000000  0.4718420000000  0.5715900000000 1.0
C      1  0.5115450000000  0.5674000000000  0.5215150000000 1.0
C      1  0.4787740000000  0.3934340000000  0.4818330000000 1.0
C      1  0.5368750000000  0.4737320000000  0.4523220000000 1.0
C      1  0.6183570000000  0.4924930000000  0.4967020000000 1.0
C      1  0.5066200000000  0.3977490000000  0.5300500000000 1.0
C      1  0.5368480000000  0.5384780000000  0.4066850000000 1.0
C      1  0.5138930000000  0.6023590000000  0.5433740000000 1.0
C      1  0.4677900000000  0.6147300000000  0.4641600000000 1.0
C      1  0.4569030000000  0.4436630000000  0.5191870000000 1.0
C      1  0.5466400000000  0.3907880000000  0.4830920000000 1.0
C      1  0.5266370000000  0.4665980000000  0.6097010000000 1.0
C      1  0.5973610000000  0.4356210000000  0.4962630000000 1.0
C      1  0.5411370000000  0.5925530000000  0.4472490000000 1.0
C      1  0.4610490000000  0.4899940000000  0.5940650000000 1.0
C      1  0.5087390000000  0.4250890000000  0.4366670000000 1.0
C      1  0.5642210000000  0.5777340000000  0.4570220000000 1.0
C      1  0.5665160000000  0.4962310000000  0.5133450000000 1.0
C      1  0.4761030000000  0.5652710000000  0.6077080000000 1.0
C      1  0.5459770000000  0.4112270000000  0.5603000000000 1.0
C      1  0.3777880000000  0.5068030000000  0.5603600000000 1.0
C      1  0.4932230000000  0.5818900000000  0.5920440000000 1.0
C      1  0.5031440000000  0.4993860000000  0.4235060000000 1.0
C      1  0.5140060000000  0.5113290000000  0.5464580000000 1.0
C      1  0.4216110000000  0.5054810000000  0.4047930000000 1.0
C      1  0.5680570000000  0.4460010000000  0.4275230000000 1.0
C      1  0.5200550000000  0.5513550000000  0.4982770000000 1.0
C      1  0.5778470000000  0.4171060000000  0.5029990000000 1.0
C      1  0.4969960000000  0.5333150000000  0.5516810000000 1.0
C      1  0.4665560000000  0.5231520000000  0.4374460000000 1.0
C      1  0.5168420000000  0.5281510000000  0.3885390000000 1.0
C      1  0.4451800000000  0.5403540000000  0.4167480000000 1.0
C      1  0.4133250000000  0.4860970000000  0.4707550000000 1.0
C      1  0.4459660000000  0.4699220000000  0.5143970000000 1.0
C      1  0.5256890000000  0.6080530000000  0.4958860000000 1.0
C      1  0.5486560000000  0.5140240000000  0.4403990000000 1.0
C      1  0.4137120000000  0.5295420000000  0.5767910000000 1.0
C      1  0.4560950000000  0.4778310000000  0.4907690000000 1.0
C      1  0.4996600000000  0.4401210000000  0.4595340000000 1.0
C      1  0.4033400000000  0.4869750000000  0.4432750000000 1.0
C      1  0.4592600000000  0.4089780000000  0.5509140000000 1.0
C      1  0.5491990000000  0.5572150000000  0.4903210000000 1.0
C      1  0.4079560000000  0.4435820000000  0.5138200000000 1.0
C      1  0.5589710000000  0.5121530000000  0.5516470000000 1.0
C      1  0.4995920000000  0.4475020000000  0.3950100000000 1.0
C      1  0.5123680000000  0.4378760000000  0.4849240000000 1.0
C      1  0.5504990000000  0.5596320000000  0.5758130000000 1.0
C      1  0.5415590000000  0.5966010000000  0.5378490000000 1.0
C      1  0.5633600000000  0.5315250000000  0.4214860000000 1.0
C      1  0.5623270000000  0.5823170000000  0.4878700000000 1.0
C      1  0.4427350000000  0.4194340000000  0.4506910000000 1.0
C      1  0.4921160000000  0.4472560000000  0.5663630000000 1.0
C      1  0.5000220000000  0.3842650000000  0.4631970000000 1.0
C      1  0.4562010000000  0.4958660000000  0.4328350000000 1.0
C      1  0.4356190000000  0.4824510000000  0.4164720000000 1.0
C      1  0.5023410000000  0.5165680000000  0.6093610000000 1.0
C      1  0.5203810000000  0.3816250000000  0.4815150000000 1.0
C      1  0.5243060000000  0.4970080000000  0.5973680000000 1.0
C      1  0.6167190000000  0.5342360000000  0.5248350000000 1.0
C      1  0.4734130000000  0.5149900000000  0.6056390000000 1.0
C      1  0.4216810000000  0.4396660000000  0.4559170000000 1.0
C      1  0.4652020000000  0.5619260000000  0.5153810000000 1.0
C      1  0.5046520000000  0.4479590000000  0.5117560000000 1.0
C      1  0.4433950000000  0.5639600000000  0.5624610000000 1.0
C      1  0.5776560000000  0.4993050000000  0.5861870000000 1.0
C      1  0.4813740000000  0.4832800000000  0.5339450000000 1.0
C      1  0.5197600000000  0.5204130000000  0.4981310000000 1.0
C      1  0.3782160000000  0.4881610000000  0.5113730000000 1.0
C      1  0.5052030000000  0.5600790000000  0.5474890000000 1.0
C      1  0.3923550000000  0.5302250000000  0.5282180000000 1.0
C      1  0.5499660000000  0.5999900000000  0.5083500000000 1.0
C      1  0.5777920000000  0.4747950000000  0.5148580000000 1.0
C      1  0.6111040000000  0.5122920000000  0.5448230000000 1.0
C      1  0.5172860000000  0.5403390000000  0.6086890000000 1.0
C      1  0.4386800000000  0.5782880000000  0.4590450000000 1.0
C      1  0.5564100000000  0.4012100000000  0.5096840000000 1.0
C      1  0.5928860000000  0.4245300000000  0.5462140000000 1.0
C      1  0.4213860000000  0.4396920000000  0.5406650000000 1.0
C      1  0.4073390000000  0.5135590000000  0.4286780000000 1.0
C      1  0.5462380000000  0.4051360000000  0.4564800000000 1.0
C      1  0.5191860000000  0.4560140000000  0.5661310000000 1.0
C      1  0.5385780000000  0.4425990000000  0.4917890000000 1.0
C      1  0.4492110000000  0.5859200000000  0.4332620000000 1.0
C      1  0.5568780000000  0.5781100000000  0.5562860000000 1.0
C      1  0.4444850000000  0.5197030000000  0.3937640000000 1.0
C      1  0.5607520000000  0.4306420000000  0.4503960000000 1.0
C      1  0.5680690000000  0.5370070000000  0.4882270000000 1.0
C      1  0.4373300000000  0.4782680000000  0.5795460000000 1.0
END
