TITL C-883726-8501-350 107.627401704207 125000 -22458.8405464878 0 0 153 (C1) n - 1
REM
REM in /home/nfs/bkarasulu/CARBON/AIRSS/Generating-Clusters/ReaxFF-fromJPCA2015/Units_Real/with-SteepDescent/Only-C1/SD-CG/Try1-3A/FIRE-CG
REM
REM
REM
REM
REM
REM ./C.cell (11c1c37f851c82e70ff6c80c92926a4b)
REM
REM compiler GCC version 9.2.1 20190827 (Red Hat 9.2.1-1)
REM options -cpp -mtune=generic -march=x86-64 -g -O0 -fpre-include=/usr/include/finclude/math-vector-fortran.h
REM seed -641365203 1656527663 1272465047 1576793357 -193028010 1288495590 -1460705583 -722695250 2060099646 -1317957095 -2015853018 -624310578 723388308 -887730742 255590548 -1440310600 -2084740919 -859192734 1896934962 -1126692079 -1831306991 -256767771 -1942101893 -306439928 -578839674 -1855503926 1090846342 1672847 -1933143955 -772295537 1581483929 -1294753257 -1019515779
REM
CELL 1.54180   50.00000   50.00000   50.00000   90.00000   90.00000   90.00000
LATT -1
SFAC C  
C      1  0.5992540000000  0.5241440000000  0.4843750000000 1.0
C      1  0.3970470000000  0.4746020000000  0.4716090000000 1.0
C      1  0.5260790000000  0.4588490000000  0.4111310000000 1.0
C      1  0.4296580000000  0.4545500000000  0.5089220000000 1.0
C      1  0.4965430000000  0.4816910000000  0.6053300000000 1.0
C      1  0.4845060000000  0.4599890000000  0.4435970000000 1.0
C      1  0.4609010000000  0.4002340000000  0.4850610000000 1.0
C      1  0.4059420000000  0.4924800000000  0.4945210000000 1.0
C      1  0.4799610000000  0.4464780000000  0.5790570000000 1.0
C      1  0.4725290000000  0.4969110000000  0.4750510000000 1.0
C      1  0.4983160000000  0.5242540000000  0.4444850000000 1.0
C      1  0.5695750000000  0.4457480000000  0.4411280000000 1.0
C      1  0.5769270000000  0.5082300000000  0.4747910000000 1.0
C      1  0.4942870000000  0.4149560000000  0.4425650000000 1.0
C      1  0.5223020000000  0.4751110000000  0.4863720000000 1.0
C      1  0.5082350000000  0.4722560000000  0.4306710000000 1.0
C      1  0.4606460000000  0.4803630000000  0.5435670000000 1.0
C      1  0.5736550000000  0.4912490000000  0.5743140000000 1.0
C      1  0.4734760000000  0.5729680000000  0.4418920000000 1.0
C      1  0.4853540000000  0.5508760000000  0.5004160000000 1.0
C      1  0.4454900000000  0.5840190000000  0.5323760000000 1.0
C      1  0.5577640000000  0.4742570000000  0.4673530000000 1.0
C      1  0.5221210000000  0.5330590000000  0.5396830000000 1.0
C      1  0.4554130000000  0.5365520000000  0.5913720000000 1.0
C      1  0.4167450000000  0.4529700000000  0.4182680000000 1.0
C      1  0.4283630000000  0.5119540000000  0.5603010000000 1.0
C      1  0.5052970000000  0.4358280000000  0.5950960000000 1.0
C      1  0.5648780000000  0.4634700000000  0.5689810000000 1.0
C      1  0.5828330000000  0.4828640000000  0.4624530000000 1.0
C      1  0.4773790000000  0.4354140000000  0.4286240000000 1.0
C      1  0.5554410000000  0.5216070000000  0.5055970000000 1.0
C      1  0.4501600000000  0.5092270000000  0.4624450000000 1.0
C      1  0.5767670000000  0.4822240000000  0.5276960000000 1.0
C      1  0.4209060000000  0.4348570000000  0.4918390000000 1.0
C      1  0.5454860000000  0.5761490000000  0.5756510000000 1.0
C      1  0.5752020000000  0.4582540000000  0.5418390000000 1.0
C      1  0.5473590000000  0.4095410000000  0.5477780000000 1.0
C      1  0.5169010000000  0.5523890000000  0.4121510000000 1.0
C      1  0.4438800000000  0.5336270000000  0.4770680000000 1.0
C      1  0.4530380000000  0.4908590000000  0.5855690000000 1.0
C      1  0.4712890000000  0.4708000000000  0.5956700000000 1.0
C      1  0.4100150000000  0.4468920000000  0.4433390000000 1.0
C      1  0.5789640000000  0.5486450000000  0.4557520000000 1.0
C      1  0.4975280000000  0.5129780000000  0.4711320000000 1.0
C      1  0.4967620000000  0.5962780000000  0.5118660000000 1.0
C      1  0.4059170000000  0.4927000000000  0.4499430000000 1.0
C      1  0.5529000000000  0.4985170000000  0.5249210000000 1.0
C      1  0.5539290000000  0.5712240000000  0.4555360000000 1.0
C      1  0.4942610000000  0.4276990000000  0.4925450000000 1.0
C      1  0.5885600000000  0.4481430000000  0.4951150000000 1.0
C      1  0.5050190000000  0.4863390000000  0.5579670000000 1.0
C      1  0.4091990000000  0.5224810000000  0.4512140000000 1.0
C      1  0.4501690000000  0.5925200000000  0.5038910000000 1.0
C      1  0.5629730000000  0.4149200000000  0.5260210000000 1.0
C      1  0.5380410000000  0.4244800000000  0.5077360000000 1.0
C      1  0.4520100000000  0.5196950000000  0.5207070000000 1.0
C      1  0.5250920000000  0.4924200000000  0.4409620000000 1.0
C      1  0.5005680000000  0.4132770000000  0.5374560000000 1.0
C      1  0.4684110000000  0.4157490000000  0.5378960000000 1.0
C      1  0.6073950000000  0.5015620000000  0.5034760000000 1.0
C      1  0.5057310000000  0.4902770000000  0.5259500000000 1.0
C      1  0.4819900000000  0.4544450000000  0.4950190000000 1.0
C      1  0.5739950000000  0.4367520000000  0.4693970000000 1.0
C      1  0.4764170000000  0.4670000000000  0.4707150000000 1.0
C      1  0.4141370000000  0.5415330000000  0.5261440000000 1.0
C      1  0.5089630000000  0.4418070000000  0.5392700000000 1.0
C      1  0.4049490000000  0.4891800000000  0.5267240000000 1.0
C      1  0.6016100000000  0.4737770000000  0.4973620000000 1.0
C      1  0.4633800000000  0.5527610000000  0.4842930000000 1.0
C      1  0.4929130000000  0.5677250000000  0.5208250000000 1.0
C      1  0.5353760000000  0.4835260000000  0.3965370000000 1.0
C      1  0.4772370000000  0.4970540000000  0.5627540000000 1.0
C      1  0.4425340000000  0.5124730000000  0.6038120000000 1.0
C      1  0.5090460000000  0.5175240000000  0.5203140000000 1.0
C      1  0.4658740000000  0.5891920000000  0.4647650000000 1.0
C      1  0.4350660000000  0.4896660000000  0.4483660000000 1.0
C      1  0.4603470000000  0.4958060000000  0.5034630000000 1.0
C      1  0.4583570000000  0.4346060000000  0.5568700000000 1.0
C      1  0.4792140000000  0.5269110000000  0.3976640000000 1.0
C      1  0.5030430000000  0.5742350000000  0.4281880000000 1.0
C      1  0.4994760000000  0.4579930000000  0.5595720000000 1.0
C      1  0.5417130000000  0.4521400000000  0.5830040000000 1.0
C      1  0.5068790000000  0.5570070000000  0.5434220000000 1.0
C      1  0.4796000000000  0.4761100000000  0.5162300000000 1.0
C      1  0.5497760000000  0.5142390000000  0.4788680000000 1.0
C      1  0.5289700000000  0.4242050000000  0.5817990000000 1.0
C      1  0.5385830000000  0.5723140000000  0.4975970000000 1.0
C      1  0.5218820000000  0.5377670000000  0.4370850000000 1.0
C      1  0.5304190000000  0.5944960000000  0.5101690000000 1.0
C      1  0.5246960000000  0.4986330000000  0.4700870000000 1.0
C      1  0.5784220000000  0.5259470000000  0.4391910000000 1.0
C      1  0.5454210000000  0.4982830000000  0.4210600000000 1.0
C      1  0.5863210000000  0.5508030000000  0.4844350000000 1.0
C      1  0.5110120000000  0.4127770000000  0.5108080000000 1.0
C      1  0.4557750000000  0.5508560000000  0.4340780000000 1.0
C      1  0.4290510000000  0.5613320000000  0.5411490000000 1.0
C      1  0.5220290000000  0.5523240000000  0.4846280000000 1.0
C      1  0.4038310000000  0.5214800000000  0.4799760000000 1.0
C      1  0.5301010000000  0.4494710000000  0.5223690000000 1.0
C      1  0.5371280000000  0.4557550000000  0.4713230000000 1.0
C      1  0.5077640000000  0.5317920000000  0.3915680000000 1.0
C      1  0.4180070000000  0.4636500000000  0.5345370000000 1.0
C      1  0.4358740000000  0.5123150000000  0.4116600000000 1.0
C      1  0.5904220000000  0.5084380000000  0.5570590000000 1.0
C      1  0.4213380000000  0.5361460000000  0.4976060000000 1.0
C      1  0.5802680000000  0.4379970000000  0.5219980000000 1.0
C      1  0.6003040000000  0.4968420000000  0.5318150000000 1.0
C      1  0.5710200000000  0.5458690000000  0.5099270000000 1.0
C      1  0.5744170000000  0.5005080000000  0.4267390000000 1.0
C      1  0.5558390000000  0.5789580000000  0.4832290000000 1.0
C      1  0.4408310000000  0.5398200000000  0.5641670000000 1.0
C      1  0.5754480000000  0.5550990000000  0.5372070000000 1.0
C      1  0.4623230000000  0.5368160000000  0.5424160000000 1.0
C      1  0.4551290000000  0.4043290000000  0.5144880000000 1.0
C      1  0.5185950000000  0.4606500000000  0.6009770000000 1.0
C      1  0.5274710000000  0.5831820000000  0.4372420000000 1.0
C      1  0.4840030000000  0.5264950000000  0.5589260000000 1.0
C      1  0.4762830000000  0.5311010000000  0.4267120000000 1.0
C      1  0.4350860000000  0.4106940000000  0.4941910000000 1.0
C      1  0.5502350000000  0.5079120000000  0.5798820000000 1.0
C      1  0.5337650000000  0.5497780000000  0.4599410000000 1.0
C      1  0.5209930000000  0.5067130000000  0.3894470000000 1.0
C      1  0.5233190000000  0.4062890000000  0.5590890000000 1.0
C      1  0.4842430000000  0.4103600000000  0.4709850000000 1.0
C      1  0.5034200000000  0.5306690000000  0.4948810000000 1.0
C      1  0.4838940000000  0.5313440000000  0.5881200000000 1.0
C      1  0.4341100000000  0.4806600000000  0.4976070000000 1.0
C      1  0.4747460000000  0.6013990000000  0.4908010000000 1.0
C      1  0.5195820000000  0.4253450000000  0.4355030000000 1.0
C      1  0.5460970000000  0.5189050000000  0.5502100000000 1.0
C      1  0.4070220000000  0.5151720000000  0.5401890000000 1.0
C      1  0.5017070000000  0.5107460000000  0.6002400000000 1.0
C      1  0.5736280000000  0.5322560000000  0.5548740000000 1.0
C      1  0.5166680000000  0.5808840000000  0.5584890000000 1.0
C      1  0.4432210000000  0.5012370000000  0.5399590000000 1.0
C      1  0.4609070000000  0.4772160000000  0.4020430000000 1.0
C      1  0.4416500000000  0.4574320000000  0.5515310000000 1.0
C      1  0.5292360000000  0.4766520000000  0.5138850000000 1.0
C      1  0.4638910000000  0.5984540000000  0.5509220000000 1.0
C      1  0.5371720000000  0.5925730000000  0.5382460000000 1.0
C      1  0.5481710000000  0.4297480000000  0.4790270000000 1.0
C      1  0.4916320000000  0.5984530000000  0.5618380000000 1.0
C      1  0.4862050000000  0.6110000000000  0.5372230000000 1.0
C      1  0.4309630000000  0.5326290000000  0.4320110000000 1.0
C      1  0.4360370000000  0.4817640000000  0.4191560000000 1.0
C      1  0.4753820000000  0.4510810000000  0.4027850000000 1.0
C      1  0.4448340000000  0.5747410000000  0.4807700000000 1.0
C      1  0.4588250000000  0.5062640000000  0.3944050000000 1.0
C      1  0.5220870000000  0.5033240000000  0.5809300000000 1.0
C      1  0.4047210000000  0.4462490000000  0.4708120000000 1.0
C      1  0.5598240000000  0.5781130000000  0.5504120000000 1.0
C      1  0.5422950000000  0.4393770000000  0.4266760000000 1.0
C      1  0.5822100000000  0.4719990000000  0.4352190000000 1.0
END
