TITL C-884138-6203-50 2.44753871072086 125000 -9892.30476137341 0 0 67 (C1) n - 1
REM
REM in /home/nfs/bkarasulu/CARBON/AIRSS/Generating-Clusters/ReaxFF-fromJPCA2015/Units_Real/with-SteepDescent/Only-C1/SD-CG/Try1-3A/FIRE-CG
REM
REM
REM
REM
REM
REM ./C.cell (11c1c37f851c82e70ff6c80c92926a4b)
REM
REM compiler GCC version 9.2.1 20190827 (Red Hat 9.2.1-1)
REM options -cpp -mtune=generic -march=x86-64 -g -O0 -fpre-include=/usr/include/finclude/math-vector-fortran.h
REM seed 776891719 392870270 -79902985 1535726197 1002379683 -265487903 -1179127747 -1051368772 2038127848 1023093668 -1489348921 -1391398854 -1477942971 -192374396 726758954 -1872186576 1214412285 1637587098 246724868 913779146 -834159533 357996233 -2062822954 104549172 -1957563738 837556384 517304810 60635348 1114139926 -765047379 661279580 -486554468 -1815010334
REM
CELL 1.54180   50.00000   50.00000   50.00000   90.00000   90.00000   90.00000
LATT -1
SFAC C  
C      1  0.5080220000000  0.5717530000000  0.4899970000000 1.0
C      1  0.5327270000000  0.5167750000000  0.4497850000000 1.0
C      1  0.4457120000000  0.4548560000000  0.4632530000000 1.0
C      1  0.5559630000000  0.4732420000000  0.5594640000000 1.0
C      1  0.4843440000000  0.5295940000000  0.5652270000000 1.0
C      1  0.4436890000000  0.4948490000000  0.5505030000000 1.0
C      1  0.4964980000000  0.4254320000000  0.4658540000000 1.0
C      1  0.5462790000000  0.5005810000000  0.5543880000000 1.0
C      1  0.5453050000000  0.4395220000000  0.4884340000000 1.0
C      1  0.5353650000000  0.4528410000000  0.5638750000000 1.0
C      1  0.5064510000000  0.4803500000000  0.4851130000000 1.0
C      1  0.5278460000000  0.4951670000000  0.4340810000000 1.0
C      1  0.4703800000000  0.4855460000000  0.4300260000000 1.0
C      1  0.4991250000000  0.5534100000000  0.4694770000000 1.0
C      1  0.5330520000000  0.4919890000000  0.5149020000000 1.0
C      1  0.4906240000000  0.4428400000000  0.4409280000000 1.0
C      1  0.5216870000000  0.4299410000000  0.4773950000000 1.0
C      1  0.5676160000000  0.5366300000000  0.4939710000000 1.0
C      1  0.5549980000000  0.4491500000000  0.5423620000000 1.0
C      1  0.5149500000000  0.4564330000000  0.4394900000000 1.0
C      1  0.4348500000000  0.5419500000000  0.4977860000000 1.0
C      1  0.5400000000000  0.4420000000000  0.5181890000000 1.0
C      1  0.5219080000000  0.5016770000000  0.5372430000000 1.0
C      1  0.5466120000000  0.5458480000000  0.4740130000000 1.0
C      1  0.4615350000000  0.5119700000000  0.5704320000000 1.0
C      1  0.4555060000000  0.4485040000000  0.4900340000000 1.0
C      1  0.4677940000000  0.5031830000000  0.4786610000000 1.0
C      1  0.5540920000000  0.5555190000000  0.5144610000000 1.0
C      1  0.4436310000000  0.5154500000000  0.4628600000000 1.0
C      1  0.5351160000000  0.4844680000000  0.4885120000000 1.0
C      1  0.4911500000000  0.5573790000000  0.5621950000000 1.0
C      1  0.4681030000000  0.5654160000000  0.5018910000000 1.0
C      1  0.4771560000000  0.5266450000000  0.4360080000000 1.0
C      1  0.4292770000000  0.4750070000000  0.4735780000000 1.0
C      1  0.4940730000000  0.4595290000000  0.5036800000000 1.0
C      1  0.5080970000000  0.4521790000000  0.5529260000000 1.0
C      1  0.4779880000000  0.4898810000000  0.5747430000000 1.0
C      1  0.4974760000000  0.5752010000000  0.5406060000000 1.0
C      1  0.5372080000000  0.5663980000000  0.4930740000000 1.0
C      1  0.5450350000000  0.5499000000000  0.5415960000000 1.0
C      1  0.4203250000000  0.5157360000000  0.5043130000000 1.0
C      1  0.5530710000000  0.4646280000000  0.4724060000000 1.0
C      1  0.5385930000000  0.4691020000000  0.4447810000000 1.0
C      1  0.5795280000000  0.5103120000000  0.4925610000000 1.0
C      1  0.4751740000000  0.5195350000000  0.5210190000000 1.0
C      1  0.4806790000000  0.4353210000000  0.4889470000000 1.0
C      1  0.4647570000000  0.4710350000000  0.5133610000000 1.0
C      1  0.4299010000000  0.5052630000000  0.5282700000000 1.0
C      1  0.4953950000000  0.5020290000000  0.4404760000000 1.0
C      1  0.4577340000000  0.5434860000000  0.5163810000000 1.0
C      1  0.4671240000000  0.4983110000000  0.5057950000000 1.0
C      1  0.5802690000000  0.4816880000000  0.4823520000000 1.0
C      1  0.4477460000000  0.5451870000000  0.4718260000000 1.0
C      1  0.4734690000000  0.5472460000000  0.4575920000000 1.0
C      1  0.4977630000000  0.5218420000000  0.5392510000000 1.0
C      1  0.5581810000000  0.5287300000000  0.5567680000000 1.0
C      1  0.5126710000000  0.5515260000000  0.5431270000000 1.0
C      1  0.4817570000000  0.4651790000000  0.5613100000000 1.0
C      1  0.5203670000000  0.5311500000000  0.4700430000000 1.0
C      1  0.4662190000000  0.4590560000000  0.4407480000000 1.0
C      1  0.6018760000000  0.4761080000000  0.4945630000000 1.0
C      1  0.4939830000000  0.5003160000000  0.4694610000000 1.0
C      1  0.4592680000000  0.4705330000000  0.5431680000000 1.0
C      1  0.4204160000000  0.5004520000000  0.4783110000000 1.0
C      1  0.4543750000000  0.5093990000000  0.4344320000000 1.0
C      1  0.4894940000000  0.5801140000000  0.5124300000000 1.0
C      1  0.5126240000000  0.4477080000000  0.5252970000000 1.0
END
