TITL C-883731-9874-38 13370722.6332559 125000 -27071.4784491839 0 0 183 (C1) n - 1
REM
REM in /home/nfs/bkarasulu/CARBON/AIRSS/Generating-Clusters/ReaxFF-fromJPCA2015/Units_Real/with-SteepDescent/Only-C1/SD-CG/Try1-3A/FIRE-CG
REM
REM
REM
REM
REM
REM ./C.cell (11c1c37f851c82e70ff6c80c92926a4b)
REM
REM compiler GCC version 9.2.1 20190827 (Red Hat 9.2.1-1)
REM options -cpp -mtune=generic -march=x86-64 -g -O0 -fpre-include=/usr/include/finclude/math-vector-fortran.h
REM seed 1839069850 -1344442562 1290751926 -874130948 -1219509598 -1170258150 1094654278 -926572236 -2091267986 -804054810 1578025412 1202943994 -5382075 37002846 -1574038727 -1924904345 -1175280162 -32119050 1015261794 -146195779 1044199972 -1270869448 -2070620286 -513878051 -422023588 1011010984 849969566 1898932346 -132358839 552123612 851495705 859011240 1223221286
REM
CELL 1.54180   50.00000   50.00000   50.00000   90.00000   90.00000   90.00000
LATT -1
SFAC C  
C      1  0.4909920000000  0.4322330000000  0.4164700000000 1.0
C      1  0.5303620000000  0.4945380000000  0.5667730000000 1.0
C      1  0.5353870000000  0.5804840000000  0.5613470000000 1.0
C      1  0.5888420000000  0.4616620000000  0.5365060000000 1.0
C      1  0.4804170000000  0.5680740000000  0.4805870000000 1.0
C      1  0.5706210000000  0.5431460000000  0.4269790000000 1.0
C      1  0.5436010000000  0.5054980000000  0.5442140000000 1.0
C      1  0.4237180000000  0.4738850000000  0.5815420000000 1.0
C      1  0.4900630000000  0.5404930000000  0.4076680000000 1.0
C      1  0.3964150000000  0.5017230000000  0.5201940000000 1.0
C      1  0.5570850000000  0.4309030000000  0.4458160000000 1.0
C      1  0.5257050000000  0.5259690000000  0.4411990000000 1.0
C      1  0.5009140000000  0.6351950000000  0.5231990000000 1.0
C      1  0.4653550000000  0.4019980000000  0.4527230000000 1.0
C      1  0.4678640000000  0.5576010000000  0.5958230000000 1.0
C      1  0.4998380000000  0.4892350000000  0.4569030000000 1.0
C      1  0.4019550000000  0.5163870000000  0.4952060000000 1.0
C      1  0.4843490000000  0.5923460000000  0.4680190000000 1.0
C      1  0.4184390000000  0.4529570000000  0.5004740000000 1.0
C      1  0.4126850000000  0.4933630000000  0.4312390000000 1.0
C      1  0.5098350000000  0.5298900000000  0.4858480000000 1.0
C      1  0.5793600000000  0.5515000000000  0.5522000000000 1.0
C      1  0.5326940000000  0.5316390000000  0.5371510000000 1.0
C      1  0.5541160000000  0.5945920000000  0.5107060000000 1.0
C      1  0.4797540000000  0.4823200000000  0.4332910000000 1.0
C      1  0.5126920000000  0.5898390000000  0.4399760000000 1.0
C      1  0.5790470000000  0.4718080000000  0.5625290000000 1.0
C      1  0.5869520000000  0.5587420000000  0.5248770000000 1.0
C      1  0.4601600000000  0.6047640000000  0.4627630000000 1.0
C      1  0.4665600000000  0.4826740000000  0.6123240000000 1.0
C      1  0.4174270000000  0.5443580000000  0.4538820000000 1.0
C      1  0.4808090000000  0.4323440000000  0.5861270000000 1.0
C      1  0.5485380000000  0.5448110000000  0.5918380000000 1.0
C      1  0.4476310000000  0.4811240000000  0.3946120000000 1.0
C      1  0.4211310000000  0.4391480000000  0.5421090000000 1.0
C      1  0.4369860000000  0.5895830000000  0.4714850000000 1.0
C      1  0.5795350000000  0.4616410000000  0.4689110000000 1.0
C      1  0.4339300000000  0.5687820000000  0.4506340000000 1.0
C      1  0.4290530000000  0.4844510000000  0.5362580000000 1.0
C      1  0.5475270000000  0.4288630000000  0.5800240000000 1.0
C      1  0.5599990000000  0.5212700000000  0.4093740000000 1.0
C      1  0.4572530000000  0.4447180000000  0.4585020000000 1.0
C      1  0.5303930000000  0.4441910000000  0.4387780000000 1.0
C      1  0.4246330000000  0.4743970000000  0.4130380000000 1.0
C      1  0.5577620000000  0.5626780000000  0.5690280000000 1.0
C      1  0.5374480000000  0.4865630000000  0.4940170000000 1.0
C      1  0.5981740000000  0.4884620000000  0.4659860000000 1.0
C      1  0.5304350000000  0.5388320000000  0.4674020000000 1.0
C      1  0.5554780000000  0.5087870000000  0.4900530000000 1.0
C      1  0.5580410000000  0.5180980000000  0.5857090000000 1.0
C      1  0.4393680000000  0.4658860000000  0.4653340000000 1.0
C      1  0.5478800000000  0.4027050000000  0.4876680000000 1.0
C      1  0.4567130000000  0.5725190000000  0.4339530000000 1.0
C      1  0.5911400000000  0.4382730000000  0.5155820000000 1.0
C      1  0.5373480000000  0.3941420000000  0.5398510000000 1.0
C      1  0.5754250000000  0.5002320000000  0.4216990000000 1.0
C      1  0.5106900000000  0.5017130000000  0.3930350000000 1.0
C      1  0.5615240000000  0.5804540000000  0.4568660000000 1.0
C      1  0.5285670000000  0.6117220000000  0.4831230000000 1.0
C      1  0.4036680000000  0.5424600000000  0.4794980000000 1.0
C      1  0.4315630000000  0.4469730000000  0.5679780000000 1.0
C      1  0.4306350000000  0.5164560000000  0.4980610000000 1.0
C      1  0.5666050000000  0.4192040000000  0.4721070000000 1.0
C      1  0.5338860000000  0.5980880000000  0.4580490000000 1.0
C      1  0.5172530000000  0.5421780000000  0.4174680000000 1.0
C      1  0.4535360000000  0.5176990000000  0.5571310000000 1.0
C      1  0.5317370000000  0.4407220000000  0.4856840000000 1.0
C      1  0.4556330000000  0.5324400000000  0.4976960000000 1.0
C      1  0.5775820000000  0.5021010000000  0.5736350000000 1.0
C      1  0.4068100000000  0.5643940000000  0.4987460000000 1.0
C      1  0.4982140000000  0.5668810000000  0.5929300000000 1.0
C      1  0.4162560000000  0.4220330000000  0.4329940000000 1.0
C      1  0.4477450000000  0.4419990000000  0.5012680000000 1.0
C      1  0.4534480000000  0.4384490000000  0.4307240000000 1.0
C      1  0.6232690000000  0.5100410000000  0.5226880000000 1.0
C      1  0.4539650000000  0.5324590000000  0.6006300000000 1.0
C      1  0.5897900000000  0.5085590000000  0.4455370000000 1.0
C      1  0.4856640000000  0.5168730000000  0.3945200000000 1.0
C      1  0.5183910000000  0.4459070000000  0.4080520000000 1.0
C      1  0.4542610000000  0.4289130000000  0.5734670000000 1.0
C      1  0.4345070000000  0.4145860000000  0.5298130000000 1.0
C      1  0.4637390000000  0.5028910000000  0.4455020000000 1.0
C      1  0.5372580000000  0.4736610000000  0.4368510000000 1.0
C      1  0.5779760000000  0.5678180000000  0.4763540000000 1.0
C      1  0.5154980000000  0.4826390000000  0.5118090000000 1.0
C      1  0.4211980000000  0.5225390000000  0.4331640000000 1.0
C      1  0.5001210000000  0.4642190000000  0.4730790000000 1.0
C      1  0.5787340000000  0.5787370000000  0.5032550000000 1.0
C      1  0.5284510000000  0.5723560000000  0.4245290000000 1.0
C      1  0.5793090000000  0.5356480000000  0.4545070000000 1.0
C      1  0.5241360000000  0.4968700000000  0.4426290000000 1.0
C      1  0.5395940000000  0.5599140000000  0.4930260000000 1.0
C      1  0.5679960000000  0.4967950000000  0.5312950000000 1.0
C      1  0.4741280000000  0.4504330000000  0.5127850000000 1.0
C      1  0.4541330000000  0.4097690000000  0.5509880000000 1.0
C      1  0.4910950000000  0.3983260000000  0.4945850000000 1.0
C      1  0.4025390000000  0.5369180000000  0.5402420000000 1.0
C      1  0.5050400000000  0.6164800000000  0.5067170000000 1.0
C      1  0.5759650000000  0.4162940000000  0.5198240000000 1.0
C      1  0.4948490000000  0.5096310000000  0.4784720000000 1.0
C      1  0.5075390000000  0.4253330000000  0.4541420000000 1.0
C      1  0.5263200000000  0.4315670000000  0.6001500000000 1.0
C      1  0.4111600000000  0.4659900000000  0.4754700000000 1.0
C      1  0.5036420000000  0.4728200000000  0.3925890000000 1.0
C      1  0.5037400000000  0.5427250000000  0.5109080000000 1.0
C      1  0.5365990000000  0.4729170000000  0.5849150000000 1.0
C      1  0.5595720000000  0.4557980000000  0.5772660000000 1.0
C      1  0.5622930000000  0.4717760000000  0.4203100000000 1.0
C      1  0.4387600000000  0.5729390000000  0.5265370000000 1.0
C      1  0.5198170000000  0.4137280000000  0.4834910000000 1.0
C      1  0.4944270000000  0.5043820000000  0.5899860000000 1.0
C      1  0.4730150000000  0.5110270000000  0.6087960000000 1.0
C      1  0.4884100000000  0.4603550000000  0.5983430000000 1.0
C      1  0.4583190000000  0.4863390000000  0.4935180000000 1.0
C      1  0.4168630000000  0.5020720000000  0.5726090000000 1.0
C      1  0.5552390000000  0.5255300000000  0.4689110000000 1.0
C      1  0.4679300000000  0.5313070000000  0.4479750000000 1.0
C      1  0.5567830000000  0.5690770000000  0.4306590000000 1.0
C      1  0.4805440000000  0.4765940000000  0.5475000000000 1.0
C      1  0.4106050000000  0.4626010000000  0.5271000000000 1.0
C      1  0.4938020000000  0.4961770000000  0.5256350000000 1.0
C      1  0.5446920000000  0.5791130000000  0.5337600000000 1.0
C      1  0.4537190000000  0.5642270000000  0.5742280000000 1.0
C      1  0.5479550000000  0.4626500000000  0.4826030000000 1.0
C      1  0.4754350000000  0.4553760000000  0.4236580000000 1.0
C      1  0.4941170000000  0.5260280000000  0.5333230000000 1.0
C      1  0.4771620000000  0.5054180000000  0.5009470000000 1.0
C      1  0.5101710000000  0.5338160000000  0.5558230000000 1.0
C      1  0.4762230000000  0.5929760000000  0.4408860000000 1.0
C      1  0.5745320000000  0.4523740000000  0.4405840000000 1.0
C      1  0.4449090000000  0.4779290000000  0.5972500000000 1.0
C      1  0.4662030000000  0.5448240000000  0.4725060000000 1.0
C      1  0.5565670000000  0.3964250000000  0.5166180000000 1.0
C      1  0.4015460000000  0.4709810000000  0.4479320000000 1.0
C      1  0.4884240000000  0.4401580000000  0.5362000000000 1.0
C      1  0.6118530000000  0.5000390000000  0.4864700000000 1.0
C      1  0.5907090000000  0.5392200000000  0.5031750000000 1.0
C      1  0.6110540000000  0.5159480000000  0.5439140000000 1.0
C      1  0.4654670000000  0.5472630000000  0.4225950000000 1.0
C      1  0.4436970000000  0.4102380000000  0.4340890000000 1.0
C      1  0.4973290000000  0.4636070000000  0.5005290000000 1.0
C      1  0.5395000000000  0.4539600000000  0.5315200000000 1.0
C      1  0.5923450000000  0.5255190000000  0.5624730000000 1.0
C      1  0.5063730000000  0.5809320000000  0.5686530000000 1.0
C      1  0.4094230000000  0.5611880000000  0.5286880000000 1.0
C      1  0.4711220000000  0.5374500000000  0.5440280000000 1.0
C      1  0.5430810000000  0.5533980000000  0.5202390000000 1.0
C      1  0.4102750000000  0.4512310000000  0.4273050000000 1.0
C      1  0.4562190000000  0.5089330000000  0.3970800000000 1.0
C      1  0.4496260000000  0.4919610000000  0.4675850000000 1.0
C      1  0.4553330000000  0.5807260000000  0.5523830000000 1.0
C      1  0.4541080000000  0.4886000000000  0.5513260000000 1.0
C      1  0.4905540000000  0.5950260000000  0.5225700000000 1.0
C      1  0.5627240000000  0.4678750000000  0.5243920000000 1.0
C      1  0.3985620000000  0.5101820000000  0.5479670000000 1.0
C      1  0.5416360000000  0.4587220000000  0.3957120000000 1.0
C      1  0.4652880000000  0.4011120000000  0.4826700000000 1.0
C      1  0.4344810000000  0.5248090000000  0.5785980000000 1.0
C      1  0.4447850000000  0.4130860000000  0.5015290000000 1.0
C      1  0.5286680000000  0.4169160000000  0.5597500000000 1.0
C      1  0.5190560000000  0.4396050000000  0.5395570000000 1.0
C      1  0.4900090000000  0.4796010000000  0.5749010000000 1.0
C      1  0.6176470000000  0.5240850000000  0.4991660000000 1.0
C      1  0.4807040000000  0.4113720000000  0.5396690000000 1.0
C      1  0.4748930000000  0.4718850000000  0.3863090000000 1.0
C      1  0.5214860000000  0.5523160000000  0.5978770000000 1.0
C      1  0.4371710000000  0.4926920000000  0.5100000000000 1.0
C      1  0.4277570000000  0.5840000000000  0.4985280000000 1.0
C      1  0.4417680000000  0.5270100000000  0.4142520000000 1.0
C      1  0.5061390000000  0.4187800000000  0.5835030000000 1.0
C      1  0.5860700000000  0.4374780000000  0.4856770000000 1.0
C      1  0.4850780000000  0.4426770000000  0.4640560000000 1.0
C      1  0.4840080000000  0.5899460000000  0.5504040000000 1.0
C      1  0.5163780000000  0.3888820000000  0.5251090000000 1.0
C      1  0.4599560000000  0.5520750000000  0.5209210000000 1.0
C      1  0.5297870000000  0.5863350000000  0.4964960000000 1.0
C      1  0.5185130000000  0.5172190000000  0.5786350000000 1.0
C      1  0.5733800000000  0.5153750000000  0.5086650000000 1.0
C      1  0.4855380000000  0.5668490000000  0.5086970000000 1.0
C      1  0.5320020000000  0.5203030000000  0.4006620000000 1.0
C      1  0.5184340000000  0.4594320000000  0.6029650000000 1.0
C      1  0.4888110000000  0.4107410000000  0.4367660000000 1.0
C      1  0.4913770000000  0.3924960000000  0.5211000000000 1.0
END
