TITL C-884129-4740-126 136.129219005862 125000 -21438.502755697 0 0 148 (C1) n - 1
REM
REM in /home/nfs/bkarasulu/CARBON/AIRSS/Generating-Clusters/ReaxFF-fromJPCA2015/Units_Real/with-SteepDescent/Only-C1/SD-CG/Try1-3A/FIRE-CG
REM
REM
REM
REM
REM
REM ./C.cell (11c1c37f851c82e70ff6c80c92926a4b)
REM
REM compiler GCC version 9.2.1 20190827 (Red Hat 9.2.1-1)
REM options -cpp -mtune=generic -march=x86-64 -g -O0 -fpre-include=/usr/include/finclude/math-vector-fortran.h
REM seed 1581631578 -269397996 885014823 -541322568 -648943942 2060635976 845619384 -632245514 -1337090153 -135258401 -1912680449 1039373845 121239576 38119474 966884496 1744502173 717770371 1841301584 -565404717 -1404676303 -1198571218 1635318178 922780023 413997277 -179516532 -106360783 1253028277 -850875122 -314456848 1166643760 620526277 -121561563 -158842856
REM
CELL 1.54180   50.00000   50.00000   50.00000   90.00000   90.00000   90.00000
LATT -1
SFAC C  
C      1  0.5054720000000  0.5708950000000  0.5552100000000 1.0
C      1  0.4034760000000  0.5536390000000  0.5151890000000 1.0
C      1  0.4646020000000  0.5208440000000  0.3956390000000 1.0
C      1  0.4016810000000  0.5229050000000  0.4730330000000 1.0
C      1  0.5301240000000  0.6018720000000  0.5118720000000 1.0
C      1  0.5679910000000  0.4851700000000  0.5743210000000 1.0
C      1  0.5797440000000  0.4721190000000  0.4713150000000 1.0
C      1  0.5573150000000  0.5275830000000  0.5944400000000 1.0
C      1  0.4321120000000  0.4364580000000  0.4981370000000 1.0
C      1  0.5136780000000  0.5134960000000  0.4725580000000 1.0
C      1  0.4942220000000  0.5396170000000  0.5830310000000 1.0
C      1  0.5079180000000  0.3942840000000  0.5338940000000 1.0
C      1  0.5036820000000  0.4450390000000  0.4186920000000 1.0
C      1  0.4705500000000  0.4372320000000  0.5839690000000 1.0
C      1  0.4833240000000  0.5391860000000  0.4079430000000 1.0
C      1  0.4804410000000  0.4316280000000  0.4306890000000 1.0
C      1  0.4962520000000  0.4694140000000  0.4039030000000 1.0
C      1  0.5657590000000  0.5127250000000  0.4906200000000 1.0
C      1  0.4948260000000  0.4264620000000  0.5046610000000 1.0
C      1  0.4407750000000  0.5121480000000  0.4107160000000 1.0
C      1  0.4493830000000  0.4167630000000  0.5134840000000 1.0
C      1  0.4303350000000  0.5683490000000  0.5312270000000 1.0
C      1  0.4561670000000  0.4460640000000  0.4297420000000 1.0
C      1  0.4845830000000  0.5177830000000  0.5094560000000 1.0
C      1  0.5957430000000  0.5612710000000  0.4808270000000 1.0
C      1  0.3998200000000  0.4622550000000  0.4740860000000 1.0
C      1  0.4955080000000  0.4032720000000  0.5571190000000 1.0
C      1  0.5405850000000  0.4893590000000  0.4111470000000 1.0
C      1  0.4741820000000  0.4852020000000  0.4146720000000 1.0
C      1  0.4516730000000  0.5175550000000  0.4792750000000 1.0
C      1  0.4215750000000  0.4373080000000  0.5542080000000 1.0
C      1  0.5086570000000  0.5001190000000  0.5154520000000 1.0
C      1  0.5241880000000  0.5637550000000  0.4269040000000 1.0
C      1  0.4349480000000  0.5316740000000  0.5673630000000 1.0
C      1  0.5500450000000  0.4954920000000  0.5004830000000 1.0
C      1  0.4732000000000  0.5908770000000  0.5078930000000 1.0
C      1  0.5749280000000  0.4736120000000  0.4406310000000 1.0
C      1  0.5598980000000  0.5460630000000  0.5266770000000 1.0
C      1  0.5080280000000  0.4750090000000  0.4995270000000 1.0
C      1  0.5064150000000  0.5827400000000  0.4413590000000 1.0
C      1  0.5570420000000  0.5883980000000  0.5084820000000 1.0
C      1  0.4956510000000  0.4207450000000  0.5792530000000 1.0
C      1  0.5013870000000  0.5534170000000  0.4872500000000 1.0
C      1  0.4635470000000  0.4994370000000  0.5007640000000 1.0
C      1  0.4536080000000  0.3986390000000  0.4895300000000 1.0
C      1  0.5200430000000  0.4452840000000  0.4671220000000 1.0
C      1  0.4158590000000  0.4775920000000  0.4517180000000 1.0
C      1  0.4821330000000  0.4617680000000  0.5933430000000 1.0
C      1  0.4347220000000  0.4670640000000  0.4997660000000 1.0
C      1  0.5550860000000  0.5864470000000  0.4596590000000 1.0
C      1  0.4878340000000  0.4111680000000  0.4539850000000 1.0
C      1  0.5121430000000  0.5912700000000  0.5311840000000 1.0
C      1  0.5517050000000  0.5175610000000  0.4509150000000 1.0
C      1  0.5845730000000  0.5058780000000  0.5622830000000 1.0
C      1  0.5286370000000  0.5675850000000  0.5693600000000 1.0
C      1  0.4864500000000  0.4055610000000  0.5178880000000 1.0
C      1  0.6005470000000  0.5106190000000  0.5100190000000 1.0
C      1  0.4665740000000  0.3988180000000  0.4709640000000 1.0
C      1  0.4499580000000  0.5758060000000  0.4483500000000 1.0
C      1  0.5589330000000  0.5094340000000  0.4229620000000 1.0
C      1  0.4718450000000  0.5576260000000  0.5846710000000 1.0
C      1  0.5305430000000  0.4145470000000  0.5352450000000 1.0
C      1  0.5989650000000  0.4840320000000  0.4975100000000 1.0
C      1  0.5174300000000  0.4049030000000  0.4641690000000 1.0
C      1  0.5664750000000  0.5385130000000  0.4975190000000 1.0
C      1  0.5844390000000  0.5012060000000  0.5330910000000 1.0
C      1  0.5743350000000  0.5050630000000  0.4672010000000 1.0
C      1  0.5314580000000  0.4427470000000  0.4276960000000 1.0
C      1  0.4357580000000  0.5158910000000  0.5878710000000 1.0
C      1  0.4445120000000  0.5456650000000  0.5182820000000 1.0
C      1  0.4336000000000  0.5622870000000  0.4687520000000 1.0
C      1  0.5628480000000  0.4609130000000  0.5581100000000 1.0
C      1  0.4761690000000  0.4652950000000  0.5358070000000 1.0
C      1  0.5124890000000  0.5111080000000  0.4436020000000 1.0
C      1  0.4450490000000  0.4826160000000  0.4105820000000 1.0
C      1  0.5812520000000  0.5306170000000  0.5781230000000 1.0
C      1  0.4474100000000  0.5917360000000  0.5210120000000 1.0
C      1  0.5002870000000  0.6055840000000  0.5107710000000 1.0
C      1  0.5259870000000  0.5609180000000  0.4751980000000 1.0
C      1  0.5767880000000  0.4488870000000  0.5339040000000 1.0
C      1  0.4103470000000  0.5096850000000  0.4503510000000 1.0
C      1  0.5596930000000  0.4568900000000  0.4867910000000 1.0
C      1  0.4944530000000  0.5153430000000  0.3945550000000 1.0
C      1  0.4951630000000  0.5429630000000  0.5524270000000 1.0
C      1  0.5982750000000  0.5162380000000  0.4502680000000 1.0
C      1  0.5161890000000  0.4418060000000  0.5749140000000 1.0
C      1  0.5107970000000  0.4641600000000  0.5926330000000 1.0
C      1  0.4912790000000  0.5276820000000  0.4821250000000 1.0
C      1  0.4474930000000  0.4310840000000  0.5665540000000 1.0
C      1  0.5477720000000  0.5447760000000  0.4624140000000 1.0
C      1  0.4756350000000  0.5443150000000  0.4358920000000 1.0
C      1  0.5185270000000  0.5230430000000  0.5484860000000 1.0
C      1  0.4804790000000  0.4601580000000  0.4752640000000 1.0
C      1  0.4371200000000  0.4955820000000  0.5466180000000 1.0
C      1  0.4299890000000  0.5544610000000  0.4412850000000 1.0
C      1  0.4087010000000  0.4339180000000  0.4797970000000 1.0
C      1  0.5311900000000  0.4658130000000  0.4830710000000 1.0
C      1  0.5342470000000  0.4251990000000  0.4510880000000 1.0
C      1  0.4041840000000  0.4603650000000  0.5490540000000 1.0
C      1  0.4661360000000  0.4754800000000  0.4566070000000 1.0
C      1  0.4516210000000  0.4798070000000  0.5256380000000 1.0
C      1  0.5636170000000  0.4382480000000  0.5092800000000 1.0
C      1  0.5203530000000  0.4083870000000  0.4930620000000 1.0
C      1  0.4791250000000  0.5719720000000  0.4441050000000 1.0
C      1  0.4893210000000  0.4836930000000  0.5533970000000 1.0
C      1  0.5193460000000  0.4935530000000  0.5937050000000 1.0
C      1  0.4740250000000  0.5423220000000  0.5244920000000 1.0
C      1  0.5141600000000  0.4932860000000  0.5443100000000 1.0
C      1  0.4098930000000  0.4873510000000  0.5466570000000 1.0
C      1  0.4410480000000  0.5417100000000  0.4893540000000 1.0
C      1  0.5386420000000  0.5341750000000  0.5378760000000 1.0
C      1  0.5477010000000  0.5003650000000  0.5897150000000 1.0
C      1  0.5640650000000  0.5543040000000  0.5830000000000 1.0
C      1  0.4811590000000  0.4966190000000  0.4411380000000 1.0
C      1  0.4401330000000  0.4753580000000  0.4686820000000 1.0
C      1  0.5710720000000  0.5810890000000  0.4833890000000 1.0
C      1  0.5132360000000  0.4929170000000  0.4000220000000 1.0
C      1  0.5401230000000  0.4714620000000  0.5426400000000 1.0
C      1  0.4827240000000  0.4782370000000  0.4925820000000 1.0
C      1  0.4836730000000  0.5638400000000  0.5064970000000 1.0
C      1  0.5958470000000  0.5388360000000  0.5007030000000 1.0
C      1  0.3949300000000  0.4753920000000  0.5261290000000 1.0
C      1  0.4778070000000  0.4901520000000  0.5793320000000 1.0
C      1  0.6000210000000  0.5420710000000  0.4605490000000 1.0
C      1  0.4059170000000  0.4752880000000  0.4994970000000 1.0
C      1  0.5499800000000  0.4659000000000  0.4258250000000 1.0
C      1  0.4970220000000  0.5112770000000  0.5913260000000 1.0
C      1  0.4264440000000  0.5259170000000  0.4324930000000 1.0
C      1  0.3982870000000  0.5378380000000  0.4946030000000 1.0
C      1  0.5200800000000  0.5359810000000  0.4317250000000 1.0
C      1  0.4334100000000  0.4623390000000  0.4283880000000 1.0
C      1  0.5855280000000  0.4986430000000  0.4297740000000 1.0
C      1  0.4391190000000  0.4175430000000  0.5415900000000 1.0
C      1  0.5280920000000  0.5111900000000  0.4970130000000 1.0
C      1  0.4355940000000  0.5596070000000  0.5629870000000 1.0
C      1  0.4461270000000  0.4935630000000  0.5746730000000 1.0
C      1  0.4937200000000  0.4353950000000  0.4755510000000 1.0
C      1  0.4950220000000  0.4449800000000  0.5279190000000 1.0
C      1  0.5437650000000  0.4153430000000  0.5097270000000 1.0
C      1  0.5207070000000  0.4421470000000  0.5446100000000 1.0
C      1  0.4518130000000  0.5716210000000  0.5823410000000 1.0
C      1  0.5982480000000  0.4623230000000  0.5177550000000 1.0
C      1  0.5252430000000  0.5877120000000  0.4634540000000 1.0
C      1  0.5540800000000  0.5739740000000  0.5621950000000 1.0
C      1  0.4688830000000  0.5219660000000  0.4554570000000 1.0
C      1  0.5513170000000  0.5638800000000  0.4400040000000 1.0
C      1  0.5594350000000  0.4868370000000  0.5259270000000 1.0
C      1  0.5629770000000  0.5747440000000  0.5334440000000 1.0
END
