TITL C-884138-6203-42 -487950.028054001 125000 -19741.7612552868 0 0 131 (C1) n - 1
REM
REM in /home/nfs/bkarasulu/CARBON/AIRSS/Generating-Clusters/ReaxFF-fromJPCA2015/Units_Real/with-SteepDescent/Only-C1/SD-CG/Try1-3A/FIRE-CG
REM
REM
REM
REM
REM
REM ./C.cell (11c1c37f851c82e70ff6c80c92926a4b)
REM
REM compiler GCC version 9.2.1 20190827 (Red Hat 9.2.1-1)
REM options -cpp -mtune=generic -march=x86-64 -g -O0 -fpre-include=/usr/include/finclude/math-vector-fortran.h
REM seed -8598652 1719376722 -1621465427 1563377097 112140897 1726829023 1973821762 90686402 147279605 1222792798 -2072974589 649491300 1944621917 2015663801 -25097319 1308355357 -120327095 -944890120 939893092 380736342 -4753783 -1677085500 -1705934462 109862943 114271053 -1949487238 -568838226 -1093517312 542872355 1434405290 1803087467 -651485985 -64183571
REM
CELL 1.54180   50.00000   50.00000   50.00000   90.00000   90.00000   90.00000
LATT -1
SFAC C  
C      1  0.4472910000000  0.4725340000000  0.5224480000000 1.0
C      1  0.5007550000000  0.5693630000000  0.4392550000000 1.0
C      1  0.4643510000000  0.4867790000000  0.5831930000000 1.0
C      1  0.4934250000000  0.4319540000000  0.4539750000000 1.0
C      1  0.5466710000000  0.5272230000000  0.4145880000000 1.0
C      1  0.5380340000000  0.5028590000000  0.5889670000000 1.0
C      1  0.4045080000000  0.5050140000000  0.5252060000000 1.0
C      1  0.4307570000000  0.4566040000000  0.5613590000000 1.0
C      1  0.5023800000000  0.5405960000000  0.5368560000000 1.0
C      1  0.4364310000000  0.4760620000000  0.5804890000000 1.0
C      1  0.4881100000000  0.5429010000000  0.5119570000000 1.0
C      1  0.5070300000000  0.5438830000000  0.5794530000000 1.0
C      1  0.4628540000000  0.5256690000000  0.4232320000000 1.0
C      1  0.4547550000000  0.5924850000000  0.4836980000000 1.0
C      1  0.4875430000000  0.4262830000000  0.5096290000000 1.0
C      1  0.5539690000000  0.4930980000000  0.4780470000000 1.0
C      1  0.5808480000000  0.4855390000000  0.5372390000000 1.0
C      1  0.4934480000000  0.4922720000000  0.4063160000000 1.0
C      1  0.4740770000000  0.5194840000000  0.5153010000000 1.0
C      1  0.4624710000000  0.5970950000000  0.5114570000000 1.0
C      1  0.4818900000000  0.4498210000000  0.5742390000000 1.0
C      1  0.4176090000000  0.4218900000000  0.4954030000000 1.0
C      1  0.4811550000000  0.4346490000000  0.4273120000000 1.0
C      1  0.5082030000000  0.5020190000000  0.4760100000000 1.0
C      1  0.4985400000000  0.4015290000000  0.5227550000000 1.0
C      1  0.5608410000000  0.5254140000000  0.5164180000000 1.0
C      1  0.4400860000000  0.5225510000000  0.4420990000000 1.0
C      1  0.4533680000000  0.4755710000000  0.4240260000000 1.0
C      1  0.5766880000000  0.5444670000000  0.4558160000000 1.0
C      1  0.4509610000000  0.4385150000000  0.4783230000000 1.0
C      1  0.4192580000000  0.4983610000000  0.4554740000000 1.0
C      1  0.5562170000000  0.5010760000000  0.5314330000000 1.0
C      1  0.4929870000000  0.5124110000000  0.4543550000000 1.0
C      1  0.5876500000000  0.5316630000000  0.5063500000000 1.0
C      1  0.5391430000000  0.4224060000000  0.4813480000000 1.0
C      1  0.5567650000000  0.4806020000000  0.4214470000000 1.0
C      1  0.5477010000000  0.5879500000000  0.4588040000000 1.0
C      1  0.4888040000000  0.5837690000000  0.5493700000000 1.0
C      1  0.5438000000000  0.5525590000000  0.5117640000000 1.0
C      1  0.5818250000000  0.5395050000000  0.5610480000000 1.0
C      1  0.4484120000000  0.5212750000000  0.5030890000000 1.0
C      1  0.5004730000000  0.5499840000000  0.4870170000000 1.0
C      1  0.5376880000000  0.4801390000000  0.3978830000000 1.0
C      1  0.5958810000000  0.5397120000000  0.5333590000000 1.0
C      1  0.4283680000000  0.4377020000000  0.5420680000000 1.0
C      1  0.4896670000000  0.5972620000000  0.5223600000000 1.0
C      1  0.4891750000000  0.4723720000000  0.5885680000000 1.0
C      1  0.4609820000000  0.4566590000000  0.5004850000000 1.0
C      1  0.5664920000000  0.4932350000000  0.5838600000000 1.0
C      1  0.5631480000000  0.5083130000000  0.4303160000000 1.0
C      1  0.5797640000000  0.5147270000000  0.5731070000000 1.0
C      1  0.5024020000000  0.4117170000000  0.5499450000000 1.0
C      1  0.5488590000000  0.4447440000000  0.4976260000000 1.0
C      1  0.4200180000000  0.5011690000000  0.5762160000000 1.0
C      1  0.4198670000000  0.4701260000000  0.4652800000000 1.0
C      1  0.4437410000000  0.5802960000000  0.5258970000000 1.0
C      1  0.5493990000000  0.4586990000000  0.4395080000000 1.0
C      1  0.5819700000000  0.4893760000000  0.4875110000000 1.0
C      1  0.4376050000000  0.5690850000000  0.4791180000000 1.0
C      1  0.5102380000000  0.6025710000000  0.5028280000000 1.0
C      1  0.4378540000000  0.4494120000000  0.4539610000000 1.0
C      1  0.5269590000000  0.5553880000000  0.5350090000000 1.0
C      1  0.5549600000000  0.5974080000000  0.4856010000000 1.0
C      1  0.5926360000000  0.5149080000000  0.4797240000000 1.0
C      1  0.5063120000000  0.4440860000000  0.4150520000000 1.0
C      1  0.4440680000000  0.4130810000000  0.4917980000000 1.0
C      1  0.5338300000000  0.4812530000000  0.5335770000000 1.0
C      1  0.4527570000000  0.5012910000000  0.4826140000000 1.0
C      1  0.4377290000000  0.5507890000000  0.4554280000000 1.0
C      1  0.4603760000000  0.5753970000000  0.5505900000000 1.0
C      1  0.5348090000000  0.5147990000000  0.4791640000000 1.0
C      1  0.5219840000000  0.4237200000000  0.4571240000000 1.0
C      1  0.5008920000000  0.4512380000000  0.5176940000000 1.0
C      1  0.4537850000000  0.4466090000000  0.4279550000000 1.0
C      1  0.5781340000000  0.4736040000000  0.5640690000000 1.0
C      1  0.5872760000000  0.4726120000000  0.5117760000000 1.0
C      1  0.4928210000000  0.4774920000000  0.5289060000000 1.0
C      1  0.5725840000000  0.4306760000000  0.5358590000000 1.0
C      1  0.4017400000000  0.5219410000000  0.5009460000000 1.0
C      1  0.5408760000000  0.4707530000000  0.4646960000000 1.0
C      1  0.4625040000000  0.5571040000000  0.4483540000000 1.0
C      1  0.4657290000000  0.5094650000000  0.5627610000000 1.0
C      1  0.4106280000000  0.4622510000000  0.4946440000000 1.0
C      1  0.5159970000000  0.5323880000000  0.4162080000000 1.0
C      1  0.4117160000000  0.5155820000000  0.5518120000000 1.0
C      1  0.5299780000000  0.4376050000000  0.4327620000000 1.0
C      1  0.5367620000000  0.5682660000000  0.5591050000000 1.0
C      1  0.5555440000000  0.5802240000000  0.5075910000000 1.0
C      1  0.4094670000000  0.4402270000000  0.5147950000000 1.0
C      1  0.4246510000000  0.5368850000000  0.5095740000000 1.0
C      1  0.5284600000000  0.4680580000000  0.5601130000000 1.0
C      1  0.5630960000000  0.5652490000000  0.4557480000000 1.0
C      1  0.5505570000000  0.4123050000000  0.5321420000000 1.0
C      1  0.4195190000000  0.4808750000000  0.5159370000000 1.0
C      1  0.5193730000000  0.3845340000000  0.5079890000000 1.0
C      1  0.4537290000000  0.4241740000000  0.5407360000000 1.0
C      1  0.5756180000000  0.4459770000000  0.5109630000000 1.0
C      1  0.5060040000000  0.5073470000000  0.4288970000000 1.0
C      1  0.5422580000000  0.4029410000000  0.5044240000000 1.0
C      1  0.5409230000000  0.4418460000000  0.5666050000000 1.0
C      1  0.5276890000000  0.5416990000000  0.4865190000000 1.0
C      1  0.5829140000000  0.5185940000000  0.4516410000000 1.0
C      1  0.4653170000000  0.4997560000000  0.4098820000000 1.0
C      1  0.4777570000000  0.4269380000000  0.5589380000000 1.0
C      1  0.4615330000000  0.4163780000000  0.5152670000000 1.0
C      1  0.5691600000000  0.4457400000000  0.5612180000000 1.0
C      1  0.4905580000000  0.4613290000000  0.4581300000000 1.0
C      1  0.4373050000000  0.5209590000000  0.5650470000000 1.0
C      1  0.5188260000000  0.5876480000000  0.4531770000000 1.0
C      1  0.4777440000000  0.5943560000000  0.4675120000000 1.0
C      1  0.5545340000000  0.5484400000000  0.5718830000000 1.0
C      1  0.4666640000000  0.4875120000000  0.5377520000000 1.0
C      1  0.5281690000000  0.4598340000000  0.5135490000000 1.0
C      1  0.5181170000000  0.4827280000000  0.5829080000000 1.0
C      1  0.5099750000000  0.4689750000000  0.4000790000000 1.0
C      1  0.5340150000000  0.5314480000000  0.5839650000000 1.0
C      1  0.5306510000000  0.4177100000000  0.5531390000000 1.0
C      1  0.4904220000000  0.5297630000000  0.5605780000000 1.0
C      1  0.4691480000000  0.4778500000000  0.4484020000000 1.0
C      1  0.4655930000000  0.5053120000000  0.4571520000000 1.0
C      1  0.4906590000000  0.4980030000000  0.5055210000000 1.0
C      1  0.4710840000000  0.4821300000000  0.4911880000000 1.0
C      1  0.5416770000000  0.5081210000000  0.3944000000000 1.0
C      1  0.4919570000000  0.5465160000000  0.4234090000000 1.0
C      1  0.5093440000000  0.5716630000000  0.5687520000000 1.0
C      1  0.4838320000000  0.5662760000000  0.4623990000000 1.0
C      1  0.4291900000000  0.5638900000000  0.5060750000000 1.0
C      1  0.5385630000000  0.6025400000000  0.5068970000000 1.0
C      1  0.4080280000000  0.5081790000000  0.4772180000000 1.0
C      1  0.5042930000000  0.6015650000000  0.4741690000000 1.0
C      1  0.5130320000000  0.4747940000000  0.4680320000000 1.0
END
