TITL C-884137-4758-204 20.3801482283394 125000 -21420.1760450655 0 0 143 (C1) n - 1
REM
REM in /home/nfs/bkarasulu/CARBON/AIRSS/Generating-Clusters/ReaxFF-fromJPCA2015/Units_Real/with-SteepDescent/Only-C1/SD-CG/Try1-3A/FIRE-CG
REM
REM
REM
REM
REM
REM ./C.cell (11c1c37f851c82e70ff6c80c92926a4b)
REM
REM compiler GCC version 9.2.1 20190827 (Red Hat 9.2.1-1)
REM options -cpp -mtune=generic -march=x86-64 -g -O0 -fpre-include=/usr/include/finclude/math-vector-fortran.h
REM seed -284362374 -851420468 2122049651 242510579 -1549073381 -1329516458 -1495432942 1168235558 -650719251 1509422867 -996999925 -1041825913 671035258 1542158539 1244945938 -253836542 1688020861 643701822 -409703622 -1178496011 -1213059867 -1856061898 -1413407422 -1061684059 1526538124 -778697326 -736133931 -1425291462 2114401929 590230946 -930782839 860004077 1441826132
REM
CELL 1.54180   50.00000   50.00000   50.00000   90.00000   90.00000   90.00000
LATT -1
SFAC C  
C      1  0.5985300000000  0.4912300000000  0.4746680000000 1.0
C      1  0.4383060000000  0.4852570000000  0.5776280000000 1.0
C      1  0.5325920000000  0.4339380000000  0.4552350000000 1.0
C      1  0.5199350000000  0.4193890000000  0.5689580000000 1.0
C      1  0.5167960000000  0.5351890000000  0.5456850000000 1.0
C      1  0.5438030000000  0.4718920000000  0.4115150000000 1.0
C      1  0.5650350000000  0.4905980000000  0.4457980000000 1.0
C      1  0.4397980000000  0.5360820000000  0.4196930000000 1.0
C      1  0.4121930000000  0.5417080000000  0.5272670000000 1.0
C      1  0.5614670000000  0.5444760000000  0.4329940000000 1.0
C      1  0.5960710000000  0.4832840000000  0.5177850000000 1.0
C      1  0.4596600000000  0.4653540000000  0.5814180000000 1.0
C      1  0.5666710000000  0.5458360000000  0.5400690000000 1.0
C      1  0.5483060000000  0.4818750000000  0.4673760000000 1.0
C      1  0.4833300000000  0.5775650000000  0.5301560000000 1.0
C      1  0.4553080000000  0.5852670000000  0.5016120000000 1.0
C      1  0.5865030000000  0.4580100000000  0.5081490000000 1.0
C      1  0.5348480000000  0.5843920000000  0.4635380000000 1.0
C      1  0.4599700000000  0.4794870000000  0.4812810000000 1.0
C      1  0.4735250000000  0.4210000000000  0.4503040000000 1.0
C      1  0.4691600000000  0.4545420000000  0.4921800000000 1.0
C      1  0.5440300000000  0.5256060000000  0.4186870000000 1.0
C      1  0.5963420000000  0.5346610000000  0.4992500000000 1.0
C      1  0.5100410000000  0.5521280000000  0.4879120000000 1.0
C      1  0.5243990000000  0.5166670000000  0.4650550000000 1.0
C      1  0.4959640000000  0.4835840000000  0.4018220000000 1.0
C      1  0.4699150000000  0.4984880000000  0.5208870000000 1.0
C      1  0.4782980000000  0.5239970000000  0.4201730000000 1.0
C      1  0.5383590000000  0.4843890000000  0.5809580000000 1.0
C      1  0.5659660000000  0.5648950000000  0.4941380000000 1.0
C      1  0.5811400000000  0.5342440000000  0.4516890000000 1.0
C      1  0.4952610000000  0.5951570000000  0.5094940000000 1.0
C      1  0.5743200000000  0.4746040000000  0.5641910000000 1.0
C      1  0.4661840000000  0.5813170000000  0.5547210000000 1.0
C      1  0.5454990000000  0.5870890000000  0.4903120000000 1.0
C      1  0.4554050000000  0.5132380000000  0.4094910000000 1.0
C      1  0.5004730000000  0.4757120000000  0.4675560000000 1.0
C      1  0.4296990000000  0.5161320000000  0.4974370000000 1.0
C      1  0.4497240000000  0.5579040000000  0.5660990000000 1.0
C      1  0.5254790000000  0.5937470000000  0.5113990000000 1.0
C      1  0.4155150000000  0.5530870000000  0.4884620000000 1.0
C      1  0.5446740000000  0.5003150000000  0.4020080000000 1.0
C      1  0.4567650000000  0.5602990000000  0.4164160000000 1.0
C      1  0.5019120000000  0.5122160000000  0.5941940000000 1.0
C      1  0.4060450000000  0.5147890000000  0.4825930000000 1.0
C      1  0.4736600000000  0.5218610000000  0.5911310000000 1.0
C      1  0.5179910000000  0.5794960000000  0.5637790000000 1.0
C      1  0.5249300000000  0.4646340000000  0.5912910000000 1.0
C      1  0.5267740000000  0.4044010000000  0.5415260000000 1.0
C      1  0.4927520000000  0.4498690000000  0.5380790000000 1.0
C      1  0.4476330000000  0.4223500000000  0.5588760000000 1.0
C      1  0.5008110000000  0.4390850000000  0.4191720000000 1.0
C      1  0.4786180000000  0.5755320000000  0.4614510000000 1.0
C      1  0.5617600000000  0.4495110000000  0.5585190000000 1.0
C      1  0.4648480000000  0.5462750000000  0.4683290000000 1.0
C      1  0.4600090000000  0.4691710000000  0.4350200000000 1.0
C      1  0.5045740000000  0.5312140000000  0.4545560000000 1.0
C      1  0.5146920000000  0.4180150000000  0.4344970000000 1.0
C      1  0.4301600000000  0.4332930000000  0.4966420000000 1.0
C      1  0.4086730000000  0.5114910000000  0.4540460000000 1.0
C      1  0.4741330000000  0.5513680000000  0.5217760000000 1.0
C      1  0.4747590000000  0.4429490000000  0.4316300000000 1.0
C      1  0.4762930000000  0.5958580000000  0.4868110000000 1.0
C      1  0.4189980000000  0.4759480000000  0.5569440000000 1.0
C      1  0.5548740000000  0.4869170000000  0.5197380000000 1.0
C      1  0.4836140000000  0.5326370000000  0.5474840000000 1.0
C      1  0.4677290000000  0.4285440000000  0.4786070000000 1.0
C      1  0.5516930000000  0.4970000000000  0.4930300000000 1.0
C      1  0.4487270000000  0.5624400000000  0.5157410000000 1.0
C      1  0.4336960000000  0.5329310000000  0.5629750000000 1.0
C      1  0.4967030000000  0.5736260000000  0.4156120000000 1.0
C      1  0.5270470000000  0.5283360000000  0.5886890000000 1.0
C      1  0.5383000000000  0.4443200000000  0.5752230000000 1.0
C      1  0.5010470000000  0.4831060000000  0.5915540000000 1.0
C      1  0.5637450000000  0.4916980000000  0.5855110000000 1.0
C      1  0.5414000000000  0.5223080000000  0.4865170000000 1.0
C      1  0.5241180000000  0.4543530000000  0.5010590000000 1.0
C      1  0.5232140000000  0.5723250000000  0.4253330000000 1.0
C      1  0.4710890000000  0.4073260000000  0.5492570000000 1.0
C      1  0.5894360000000  0.4637430000000  0.4805070000000 1.0
C      1  0.5760440000000  0.4940740000000  0.5410060000000 1.0
C      1  0.4560630000000  0.4148770000000  0.5010490000000 1.0
C      1  0.5171420000000  0.5014550000000  0.3970490000000 1.0
C      1  0.5768660000000  0.4504650000000  0.4536770000000 1.0
C      1  0.4799230000000  0.4835590000000  0.5703890000000 1.0
C      1  0.4470890000000  0.4395530000000  0.5359510000000 1.0
C      1  0.5871720000000  0.5061620000000  0.4531020000000 1.0
C      1  0.4040130000000  0.4772060000000  0.5133440000000 1.0
C      1  0.5470950000000  0.4144840000000  0.5232420000000 1.0
C      1  0.3991780000000  0.4872770000000  0.4864720000000 1.0
C      1  0.4668640000000  0.4868100000000  0.4115940000000 1.0
C      1  0.5660670000000  0.4664370000000  0.4299890000000 1.0
C      1  0.5306890000000  0.5815410000000  0.5370930000000 1.0
C      1  0.4471910000000  0.5131650000000  0.5804170000000 1.0
C      1  0.4692610000000  0.4501280000000  0.5209630000000 1.0
C      1  0.5093760000000  0.4708710000000  0.5400880000000 1.0
C      1  0.5084960000000  0.5721750000000  0.4679210000000 1.0
C      1  0.4643790000000  0.4365810000000  0.5785390000000 1.0
C      1  0.5641950000000  0.4252690000000  0.4545950000000 1.0
C      1  0.5260860000000  0.4651390000000  0.4585140000000 1.0
C      1  0.5068270000000  0.4015330000000  0.5195620000000 1.0
C      1  0.4300000000000  0.4481600000000  0.4730310000000 1.0
C      1  0.5859200000000  0.5491600000000  0.4763620000000 1.0
C      1  0.4210130000000  0.4495610000000  0.5429900000000 1.0
C      1  0.4757830000000  0.5039820000000  0.5486190000000 1.0
C      1  0.4723730000000  0.5797890000000  0.4321880000000 1.0
C      1  0.5069390000000  0.4764440000000  0.4964010000000 1.0
C      1  0.4751710000000  0.4888120000000  0.4576520000000 1.0
C      1  0.5223760000000  0.5504830000000  0.5709140000000 1.0
C      1  0.5240520000000  0.5083650000000  0.5362710000000 1.0
C      1  0.5830350000000  0.5534690000000  0.5176280000000 1.0
C      1  0.5554530000000  0.5194260000000  0.5809290000000 1.0
C      1  0.4106040000000  0.5222900000000  0.5468370000000 1.0
C      1  0.4107370000000  0.4821740000000  0.4590200000000 1.0
C      1  0.4870730000000  0.5119360000000  0.5016140000000 1.0
C      1  0.4246620000000  0.5339210000000  0.4442390000000 1.0
C      1  0.5289680000000  0.4074420000000  0.5003570000000 1.0
C      1  0.4906970000000  0.5905980000000  0.5688520000000 1.0
C      1  0.6023740000000  0.5053670000000  0.4994390000000 1.0
C      1  0.5154020000000  0.4619210000000  0.4086730000000 1.0
C      1  0.4133680000000  0.4499670000000  0.5153220000000 1.0
C      1  0.4889270000000  0.4280730000000  0.5627000000000 1.0
C      1  0.5232260000000  0.4307940000000  0.4837530000000 1.0
C      1  0.4470170000000  0.4944170000000  0.5030360000000 1.0
C      1  0.5275210000000  0.4863830000000  0.5534720000000 1.0
C      1  0.5374030000000  0.5528240000000  0.5297930000000 1.0
C      1  0.4776190000000  0.5224720000000  0.4494860000000 1.0
C      1  0.5227920000000  0.5186110000000  0.4371430000000 1.0
C      1  0.4352530000000  0.5489970000000  0.4672500000000 1.0
C      1  0.4743970000000  0.5453600000000  0.5742340000000 1.0
C      1  0.5106080000000  0.5004190000000  0.5123390000000 1.0
C      1  0.5366520000000  0.5468360000000  0.5001440000000 1.0
C      1  0.5461400000000  0.4603620000000  0.5182570000000 1.0
C      1  0.4072850000000  0.4935040000000  0.5383730000000 1.0
C      1  0.5649310000000  0.4396170000000  0.5282560000000 1.0
C      1  0.4274770000000  0.5441670000000  0.5086660000000 1.0
C      1  0.5473320000000  0.5704680000000  0.4378920000000 1.0
C      1  0.4949190000000  0.3991860000000  0.4454420000000 1.0
C      1  0.4833610000000  0.5402370000000  0.4949550000000 1.0
C      1  0.4764040000000  0.4055410000000  0.5204310000000 1.0
C      1  0.4818700000000  0.5489150000000  0.4066480000000 1.0
C      1  0.5698140000000  0.5225660000000  0.5560450000000 1.0
C      1  0.4313170000000  0.4636560000000  0.4506320000000 1.0
END
