TITL C-883729-9652-53 320830.058238085 125000 -3403.54534667562 0 0 25 (C1) n - 1
REM
REM in /home/nfs/bkarasulu/CARBON/AIRSS/Generating-Clusters/ReaxFF-fromJPCA2015/Units_Real/with-SteepDescent/Only-C1/SD-CG/Try1-3A/FIRE-CG
REM
REM
REM
REM
REM
REM ./C.cell (11c1c37f851c82e70ff6c80c92926a4b)
REM
REM compiler GCC version 9.2.1 20190827 (Red Hat 9.2.1-1)
REM options -cpp -mtune=generic -march=x86-64 -g -O0 -fpre-include=/usr/include/finclude/math-vector-fortran.h
REM seed 159208845 1345322367 1888846040 1860868902 1378757987 1855075391 -867988311 1583577228 2077566143 -679031480 1298688496 604520468 -1544115920 -1030211663 754781291 -1952634134 -684546391 -1978888499 -1520188043 -500881868 -1981044792 1198641750 -1321183766 -2085491702 90440449 1184835526 308929625 -1090891766 2081258514 -428080665 1241283056 135996134 -893413797
REM
CELL 1.54180   50.00000   50.00000   50.00000   90.00000   90.00000   90.00000
LATT -1
SFAC C  
C      1  0.4761220000000  0.5191530000000  0.4741450000000 1.0
C      1  0.5231850000000  0.5432290000000  0.4889700000000 1.0
C      1  0.5515940000000  0.4815200000000  0.5114520000000 1.0
C      1  0.4993970000000  0.4517300000000  0.4676830000000 1.0
C      1  0.5309750000000  0.5480610000000  0.4595730000000 1.0
C      1  0.4856160000000  0.5195550000000  0.5414920000000 1.0
C      1  0.5510480000000  0.4999380000000  0.4906190000000 1.0
C      1  0.4384500000000  0.5331190000000  0.4857080000000 1.0
C      1  0.4979650000000  0.5592610000000  0.4929050000000 1.0
C      1  0.5000720000000  0.5023050000000  0.4791510000000 1.0
C      1  0.5375830000000  0.4971120000000  0.5482490000000 1.0
C      1  0.4497390000000  0.4903490000000  0.5159870000000 1.0
C      1  0.4849480000000  0.5467770000000  0.4685050000000 1.0
C      1  0.5001970000000  0.4812820000000  0.5316800000000 1.0
C      1  0.5146710000000  0.5081740000000  0.5301150000000 1.0
C      1  0.4997110000000  0.4752600000000  0.4730180000000 1.0
C      1  0.4734380000000  0.4937650000000  0.5365010000000 1.0
C      1  0.4357310000000  0.4699020000000  0.5146080000000 1.0
C      1  0.5222150000000  0.5144440000000  0.4973130000000 1.0
C      1  0.4518130000000  0.5126370000000  0.4914120000000 1.0
C      1  0.5413850000000  0.4701040000000  0.5353150000000 1.0
C      1  0.5148110000000  0.4560360000000  0.5299960000000 1.0
C      1  0.5049990000000  0.5499010000000  0.4453330000000 1.0
C      1  0.5045510000000  0.4346850000000  0.4839350000000 1.0
C      1  0.5097850000000  0.4417010000000  0.5063350000000 1.0
END
