TITL C-883738-3659-181 0.907072461829796 125000 -11541.4215992707 0 0 79 (C1) n - 1
REM
REM in /home/nfs/bkarasulu/CARBON/AIRSS/Generating-Clusters/ReaxFF-fromJPCA2015/Units_Real/with-SteepDescent/Only-C1/SD-CG/Try1-3A/FIRE-CG
REM
REM
REM
REM
REM
REM ./C.cell (11c1c37f851c82e70ff6c80c92926a4b)
REM
REM compiler GCC version 9.2.1 20190827 (Red Hat 9.2.1-1)
REM options -cpp -mtune=generic -march=x86-64 -g -O0 -fpre-include=/usr/include/finclude/math-vector-fortran.h
REM seed -22293781 2094826374 498440556 813239876 -103160093 1874133977 522575057 -868733278 -1368894495 333048288 -38871686 1351502477 -284297360 1601367486 -2051557256 1200422354 852427201 -389736606 -886770195 -1024690976 1502887235 -1781157409 286963657 -1530493714 -1982159643 -1556827115 -499748973 -381286474 227404888 1843992607 1159824281 -1520982735 -374058967
REM
CELL 1.54180   50.00000   50.00000   50.00000   90.00000   90.00000   90.00000
LATT -1
SFAC C  
C      1  0.4913350000000  0.5633500000000  0.4519030000000 1.0
C      1  0.4631250000000  0.5651160000000  0.4522140000000 1.0
C      1  0.5734340000000  0.4677920000000  0.5131570000000 1.0
C      1  0.5609170000000  0.5194590000000  0.4589510000000 1.0
C      1  0.4273210000000  0.4746870000000  0.4876400000000 1.0
C      1  0.4747430000000  0.4698230000000  0.5626880000000 1.0
C      1  0.4563410000000  0.4853520000000  0.4938340000000 1.0
C      1  0.5086120000000  0.4684910000000  0.5002820000000 1.0
C      1  0.4723520000000  0.4992690000000  0.5705830000000 1.0
C      1  0.5656120000000  0.5314490000000  0.5101950000000 1.0
C      1  0.5460020000000  0.5367190000000  0.5320800000000 1.0
C      1  0.5637370000000  0.5114990000000  0.4872830000000 1.0
C      1  0.5267790000000  0.5589910000000  0.5253350000000 1.0
C      1  0.4155390000000  0.5295640000000  0.4874200000000 1.0
C      1  0.4795300000000  0.4404530000000  0.4571050000000 1.0
C      1  0.5483300000000  0.4723860000000  0.5316510000000 1.0
C      1  0.5471890000000  0.4701880000000  0.5769250000000 1.0
C      1  0.5228140000000  0.4298050000000  0.5214550000000 1.0
C      1  0.5210280000000  0.5225650000000  0.5740900000000 1.0
C      1  0.4700580000000  0.5699840000000  0.4916050000000 1.0
C      1  0.5402300000000  0.4421280000000  0.5386300000000 1.0
C      1  0.5783730000000  0.4595650000000  0.4727980000000 1.0
C      1  0.4353470000000  0.5524970000000  0.5283180000000 1.0
C      1  0.4511870000000  0.5573680000000  0.4763840000000 1.0
C      1  0.4848170000000  0.5176110000000  0.5152660000000 1.0
C      1  0.5146350000000  0.5477490000000  0.5639170000000 1.0
C      1  0.5225840000000  0.5702690000000  0.4982750000000 1.0
C      1  0.4110970000000  0.4924710000000  0.4729050000000 1.0
C      1  0.4137450000000  0.4858990000000  0.5376490000000 1.0
C      1  0.5151130000000  0.4971190000000  0.4686860000000 1.0
C      1  0.4991690000000  0.5306010000000  0.4941740000000 1.0
C      1  0.4423340000000  0.4983710000000  0.5411880000000 1.0
C      1  0.5247230000000  0.5138210000000  0.4180720000000 1.0
C      1  0.5522450000000  0.4901090000000  0.5568790000000 1.0
C      1  0.5055830000000  0.4210290000000  0.5033240000000 1.0
C      1  0.5426690000000  0.4430830000000  0.5675600000000 1.0
C      1  0.5367360000000  0.5386310000000  0.4605270000000 1.0
C      1  0.5029800000000  0.5025990000000  0.5329040000000 1.0
C      1  0.4667420000000  0.5201880000000  0.4336080000000 1.0
C      1  0.4513070000000  0.5176280000000  0.5609540000000 1.0
C      1  0.5591910000000  0.4230330000000  0.4843450000000 1.0
C      1  0.5427490000000  0.5638790000000  0.4782530000000 1.0
C      1  0.5296560000000  0.4563940000000  0.4511610000000 1.0
C      1  0.4789110000000  0.4351610000000  0.4890580000000 1.0
C      1  0.4907970000000  0.5420740000000  0.4323270000000 1.0
C      1  0.4736360000000  0.5631030000000  0.5406010000000 1.0
C      1  0.5215680000000  0.4838720000000  0.5205200000000 1.0
C      1  0.4489100000000  0.5268830000000  0.4617050000000 1.0
C      1  0.5233820000000  0.5203100000000  0.4817920000000 1.0
C      1  0.4790180000000  0.4630880000000  0.5049870000000 1.0
C      1  0.5561920000000  0.4421130000000  0.4620750000000 1.0
C      1  0.4575680000000  0.5684180000000  0.5155960000000 1.0
C      1  0.4521780000000  0.4353330000000  0.5303800000000 1.0
C      1  0.5445790000000  0.5185140000000  0.5560110000000 1.0
C      1  0.4965580000000  0.5602010000000  0.4844010000000 1.0
C      1  0.4888280000000  0.4982430000000  0.4605510000000 1.0
C      1  0.5317820000000  0.4928200000000  0.4103920000000 1.0
C      1  0.5224840000000  0.4724500000000  0.4747980000000 1.0
C      1  0.5608430000000  0.5568880000000  0.4987230000000 1.0
C      1  0.5796580000000  0.4433290000000  0.4974820000000 1.0
C      1  0.4568300000000  0.4279700000000  0.5066150000000 1.0
C      1  0.4686690000000  0.4558170000000  0.5344380000000 1.0
C      1  0.5191340000000  0.5366950000000  0.4331330000000 1.0
C      1  0.4306440000000  0.5300830000000  0.5103800000000 1.0
C      1  0.5021450000000  0.4455220000000  0.4414590000000 1.0
C      1  0.5036810000000  0.5644770000000  0.5446670000000 1.0
C      1  0.4998940000000  0.5045970000000  0.5626880000000 1.0
C      1  0.4975050000000  0.4612190000000  0.5741030000000 1.0
C      1  0.4180810000000  0.5176630000000  0.4620470000000 1.0
C      1  0.5574090000000  0.4980700000000  0.4410280000000 1.0
C      1  0.5214750000000  0.4543780000000  0.5849060000000 1.0
C      1  0.4111360000000  0.4791830000000  0.5098600000000 1.0
C      1  0.4788410000000  0.4909850000000  0.4343570000000 1.0
C      1  0.4544630000000  0.5081230000000  0.5153050000000 1.0
C      1  0.4528180000000  0.5457280000000  0.5511380000000 1.0
C      1  0.4774820000000  0.4614170000000  0.4362640000000 1.0
C      1  0.4648730000000  0.5054890000000  0.4746080000000 1.0
C      1  0.5757340000000  0.4847960000000  0.4901050000000 1.0
C      1  0.5442850000000  0.4760050000000  0.4293240000000 1.0
END
