TITL C-883738-3659-213 22.166708283523 125000 -22688.2093858648 0 0 151 (C1) n - 1
REM
REM in /home/nfs/bkarasulu/CARBON/AIRSS/Generating-Clusters/ReaxFF-fromJPCA2015/Units_Real/with-SteepDescent/Only-C1/SD-CG/Try1-3A/FIRE-CG
REM
REM
REM
REM
REM
REM ./C.cell (11c1c37f851c82e70ff6c80c92926a4b)
REM
REM compiler GCC version 9.2.1 20190827 (Red Hat 9.2.1-1)
REM options -cpp -mtune=generic -march=x86-64 -g -O0 -fpre-include=/usr/include/finclude/math-vector-fortran.h
REM seed 1822925505 -651846477 1066684407 -816489860 1004981776 465794932 -185462782 -1410299885 296104635 -617442249 -23612581 1316979364 962257962 1535184167 -1013854271 1441155775 1915107029 -191318158 868689488 1511824851 -693277300 336222770 -555727976 578751508 2086269379 -1144121264 1170032198 -1994299857 -1388188319 -143141384 1088904593 1262941709 17365884
REM
CELL 1.54180   50.00000   50.00000   50.00000   90.00000   90.00000   90.00000
LATT -1
SFAC C  
C      1  0.4796850000000  0.5394530000000  0.4124630000000 1.0
C      1  0.5740720000000  0.5096790000000  0.4323610000000 1.0
C      1  0.5433010000000  0.4389710000000  0.5346360000000 1.0
C      1  0.4652050000000  0.5807580000000  0.5602130000000 1.0
C      1  0.4967000000000  0.4279280000000  0.4421030000000 1.0
C      1  0.4564860000000  0.5091700000000  0.5973880000000 1.0
C      1  0.4999220000000  0.4140970000000  0.4854570000000 1.0
C      1  0.4288800000000  0.4634800000000  0.4980400000000 1.0
C      1  0.5186490000000  0.5689480000000  0.4228350000000 1.0
C      1  0.5580930000000  0.5117620000000  0.5955490000000 1.0
C      1  0.4811320000000  0.4990320000000  0.3895420000000 1.0
C      1  0.4950160000000  0.5403750000000  0.5934040000000 1.0
C      1  0.3878470000000  0.4537870000000  0.4831200000000 1.0
C      1  0.5651620000000  0.4715990000000  0.4515880000000 1.0
C      1  0.5207180000000  0.5297100000000  0.5172810000000 1.0
C      1  0.4128640000000  0.5426910000000  0.4529940000000 1.0
C      1  0.4152040000000  0.4987710000000  0.4273750000000 1.0
C      1  0.4031010000000  0.4469610000000  0.5330000000000 1.0
C      1  0.4137440000000  0.5033160000000  0.5068690000000 1.0
C      1  0.4901680000000  0.5891250000000  0.4778930000000 1.0
C      1  0.5248140000000  0.5980380000000  0.5133640000000 1.0
C      1  0.5228750000000  0.4833510000000  0.4003370000000 1.0
C      1  0.5577220000000  0.5135150000000  0.5079430000000 1.0
C      1  0.4656120000000  0.5367820000000  0.5917520000000 1.0
C      1  0.5272660000000  0.4042680000000  0.4859270000000 1.0
C      1  0.4516080000000  0.4239810000000  0.4633650000000 1.0
C      1  0.5588320000000  0.5655590000000  0.5244250000000 1.0
C      1  0.4266950000000  0.4821500000000  0.5198130000000 1.0
C      1  0.4429890000000  0.4846370000000  0.4164420000000 1.0
C      1  0.5865640000000  0.5373910000000  0.4228770000000 1.0
C      1  0.6015520000000  0.4845130000000  0.5000450000000 1.0
C      1  0.6049650000000  0.5534470000000  0.5321780000000 1.0
C      1  0.5513050000000  0.4892600000000  0.4694240000000 1.0
C      1  0.5135080000000  0.5741820000000  0.4964550000000 1.0
C      1  0.4249690000000  0.5682010000000  0.4647230000000 1.0
C      1  0.6056660000000  0.5233760000000  0.5320780000000 1.0
C      1  0.4635960000000  0.5822380000000  0.4278220000000 1.0
C      1  0.4299430000000  0.5712750000000  0.5205780000000 1.0
C      1  0.5215290000000  0.5885000000000  0.4080120000000 1.0
C      1  0.4976290000000  0.5769890000000  0.5544830000000 1.0
C      1  0.5737960000000  0.5209810000000  0.5719000000000 1.0
C      1  0.5984170000000  0.5269850000000  0.4798600000000 1.0
C      1  0.5256790000000  0.4287330000000  0.4446820000000 1.0
C      1  0.4415690000000  0.4407130000000  0.4403740000000 1.0
C      1  0.4331420000000  0.4207940000000  0.4861900000000 1.0
C      1  0.5213220000000  0.5925470000000  0.5416770000000 1.0
C      1  0.3959040000000  0.5033960000000  0.4848660000000 1.0
C      1  0.5565810000000  0.4639070000000  0.5692470000000 1.0
C      1  0.4672160000000  0.5038330000000  0.5128310000000 1.0
C      1  0.5673280000000  0.4353100000000  0.4667180000000 1.0
C      1  0.4204710000000  0.4579530000000  0.4516050000000 1.0
C      1  0.4733680000000  0.5117730000000  0.5401000000000 1.0
C      1  0.5859400000000  0.4705870000000  0.5213870000000 1.0
C      1  0.4278270000000  0.5265600000000  0.4991610000000 1.0
C      1  0.6036360000000  0.4527070000000  0.5647450000000 1.0
C      1  0.4271300000000  0.5426120000000  0.5250910000000 1.0
C      1  0.5980900000000  0.4816460000000  0.4713800000000 1.0
C      1  0.4533090000000  0.5034420000000  0.3964050000000 1.0
C      1  0.4485710000000  0.5040700000000  0.5525610000000 1.0
C      1  0.4966710000000  0.4343840000000  0.5067970000000 1.0
C      1  0.4885910000000  0.5578530000000  0.5332210000000 1.0
C      1  0.5538330000000  0.5375710000000  0.5589190000000 1.0
C      1  0.4107690000000  0.4709440000000  0.5427050000000 1.0
C      1  0.5153250000000  0.4451690000000  0.5273250000000 1.0
C      1  0.4215920000000  0.5259820000000  0.4311350000000 1.0
C      1  0.5708010000000  0.4446270000000  0.5245290000000 1.0
C      1  0.4977440000000  0.4631080000000  0.5419990000000 1.0
C      1  0.5489590000000  0.6044090000000  0.4974390000000 1.0
C      1  0.5340090000000  0.3926570000000  0.5130530000000 1.0
C      1  0.5252950000000  0.5124860000000  0.4052020000000 1.0
C      1  0.4975510000000  0.5215730000000  0.3988740000000 1.0
C      1  0.4275160000000  0.5706470000000  0.4925950000000 1.0
C      1  0.5041080000000  0.4469150000000  0.5901100000000 1.0
C      1  0.4514590000000  0.4130360000000  0.5048730000000 1.0
C      1  0.5331710000000  0.5646330000000  0.4788950000000 1.0
C      1  0.4803570000000  0.4166720000000  0.4633610000000 1.0
C      1  0.4514940000000  0.5767890000000  0.4537450000000 1.0
C      1  0.5410040000000  0.4701740000000  0.4182910000000 1.0
C      1  0.4009270000000  0.5176520000000  0.5624000000000 1.0
C      1  0.4556840000000  0.5010890000000  0.4370930000000 1.0
C      1  0.5954150000000  0.5073220000000  0.5545190000000 1.0
C      1  0.4563640000000  0.4372800000000  0.5375820000000 1.0
C      1  0.3874970000000  0.4791620000000  0.4686100000000 1.0
C      1  0.5519120000000  0.5161280000000  0.4800430000000 1.0
C      1  0.5710380000000  0.5573500000000  0.4373020000000 1.0
C      1  0.4843640000000  0.4651110000000  0.5972170000000 1.0
C      1  0.4658760000000  0.4751380000000  0.5125020000000 1.0
C      1  0.4801430000000  0.4084990000000  0.5549400000000 1.0
C      1  0.5043960000000  0.5257810000000  0.4680890000000 1.0
C      1  0.4952080000000  0.4575870000000  0.4404290000000 1.0
C      1  0.4835350000000  0.4778730000000  0.4650000000000 1.0
C      1  0.5455970000000  0.4906110000000  0.5217350000000 1.0
C      1  0.4876000000000  0.5659720000000  0.4179850000000 1.0
C      1  0.5381670000000  0.5591950000000  0.5704630000000 1.0
C      1  0.5457030000000  0.5782720000000  0.5477780000000 1.0
C      1  0.5483840000000  0.4870350000000  0.5509960000000 1.0
C      1  0.4630350000000  0.4293960000000  0.5651570000000 1.0
C      1  0.4587630000000  0.5530390000000  0.5682490000000 1.0
C      1  0.5444360000000  0.4375010000000  0.5643920000000 1.0
C      1  0.5253620000000  0.4579830000000  0.4410620000000 1.0
C      1  0.4090040000000  0.4404410000000  0.5001010000000 1.0
C      1  0.4480100000000  0.4792390000000  0.5676860000000 1.0
C      1  0.5100230000000  0.5592350000000  0.5771320000000 1.0
C      1  0.4719620000000  0.5405740000000  0.5455900000000 1.0
C      1  0.5144390000000  0.4793620000000  0.4977010000000 1.0
C      1  0.4701830000000  0.4615140000000  0.5362630000000 1.0
C      1  0.5902090000000  0.5552030000000  0.4839430000000 1.0
C      1  0.5078600000000  0.4048250000000  0.5622220000000 1.0
C      1  0.4013750000000  0.4782580000000  0.4416380000000 1.0
C      1  0.4813100000000  0.4955650000000  0.6029350000000 1.0
C      1  0.5477320000000  0.5373400000000  0.5262660000000 1.0
C      1  0.6062980000000  0.5125660000000  0.5044990000000 1.0
C      1  0.4563940000000  0.4943650000000  0.4652580000000 1.0
C      1  0.4823550000000  0.4552680000000  0.4147580000000 1.0
C      1  0.4821640000000  0.5381880000000  0.4830130000000 1.0
C      1  0.5445470000000  0.4184100000000  0.4651590000000 1.0
C      1  0.5216300000000  0.3967670000000  0.5390310000000 1.0
C      1  0.5322590000000  0.5379100000000  0.4676760000000 1.0
C      1  0.5535430000000  0.5837600000000  0.4756020000000 1.0
C      1  0.5455500000000  0.5231240000000  0.4225380000000 1.0
C      1  0.5171930000000  0.5005190000000  0.5182150000000 1.0
C      1  0.5773970000000  0.5703500000000  0.4636130000000 1.0
C      1  0.5040590000000  0.4983490000000  0.4618140000000 1.0
C      1  0.5956220000000  0.4791650000000  0.5477590000000 1.0
C      1  0.5857510000000  0.5650770000000  0.5125060000000 1.0
C      1  0.4658930000000  0.4569860000000  0.5757010000000 1.0
C      1  0.4524120000000  0.5240890000000  0.4189110000000 1.0
C      1  0.4539560000000  0.4561050000000  0.4199130000000 1.0
C      1  0.5017390000000  0.4919560000000  0.5465300000000 1.0
C      1  0.4047960000000  0.5295010000000  0.4774360000000 1.0
C      1  0.4474270000000  0.5889100000000  0.5400380000000 1.0
C      1  0.5293020000000  0.5036540000000  0.5924790000000 1.0
C      1  0.5917800000000  0.5071060000000  0.4597680000000 1.0
C      1  0.5251710000000  0.4801440000000  0.4708230000000 1.0
C      1  0.5200680000000  0.4273740000000  0.5793060000000 1.0
C      1  0.5864490000000  0.4548290000000  0.4617820000000 1.0
C      1  0.4951820000000  0.4746760000000  0.3966890000000 1.0
C      1  0.5878480000000  0.4380990000000  0.5463100000000 1.0
C      1  0.4738550000000  0.5675410000000  0.4726690000000 1.0
C      1  0.5036170000000  0.5139560000000  0.6034390000000 1.0
C      1  0.5407770000000  0.5482470000000  0.4361640000000 1.0
C      1  0.4277160000000  0.5242000000000  0.5484410000000 1.0
C      1  0.4592880000000  0.5181440000000  0.4890370000000 1.0
C      1  0.4884900000000  0.4657310000000  0.4940190000000 1.0
C      1  0.4084690000000  0.4902200000000  0.5699720000000 1.0
C      1  0.5664180000000  0.4814810000000  0.4258000000000 1.0
C      1  0.4324480000000  0.4924340000000  0.5884540000000 1.0
C      1  0.4356830000000  0.4726040000000  0.4724380000000 1.0
C      1  0.5015460000000  0.5490090000000  0.5097070000000 1.0
C      1  0.4735450000000  0.4155970000000  0.5233610000000 1.0
C      1  0.5247210000000  0.4976080000000  0.5643460000000 1.0
END
