TITL C-883732-77-76 1.05052512858965 125000 -8799.60208345113 0 0 60 (C1) n - 1
REM
REM in /home/nfs/bkarasulu/CARBON/AIRSS/Generating-Clusters/ReaxFF-fromJPCA2015/Units_Real/with-SteepDescent/Only-C1/SD-CG/Try1-3A/FIRE-CG
REM
REM
REM
REM
REM
REM ./C.cell (11c1c37f851c82e70ff6c80c92926a4b)
REM
REM compiler GCC version 9.2.1 20190827 (Red Hat 9.2.1-1)
REM options -cpp -mtune=generic -march=x86-64 -g -O0 -fpre-include=/usr/include/finclude/math-vector-fortran.h
REM seed 1302351067 -2102996003 265383654 -1840173787 -148587771 1496190339 838269877 576281362 1147201295 1305795819 497163856 -589172214 2004383360 2024204214 -2072242081 -166462855 1073308898 1000102940 676256149 -1864993708 2071902307 1513944445 -1290622564 -1754360761 970516071 1603057673 1713593819 950931123 774479130 1197492078 812073095 1662448893 -1512472356
REM
CELL 1.54180   50.00000   50.00000   50.00000   90.00000   90.00000   90.00000
LATT -1
SFAC C  
C      1  0.4797760000000  0.4495620000000  0.5573050000000 1.0
C      1  0.5389010000000  0.5173010000000  0.4439010000000 1.0
C      1  0.4872560000000  0.4657570000000  0.4209760000000 1.0
C      1  0.4542720000000  0.4894590000000  0.5194960000000 1.0
C      1  0.5464310000000  0.4796360000000  0.4880570000000 1.0
C      1  0.4646880000000  0.5282030000000  0.4367340000000 1.0
C      1  0.4952460000000  0.5395580000000  0.4997070000000 1.0
C      1  0.5495260000000  0.5225010000000  0.5175570000000 1.0
C      1  0.4599190000000  0.4365700000000  0.5108340000000 1.0
C      1  0.4529890000000  0.5378160000000  0.5229070000000 1.0
C      1  0.5205320000000  0.5321160000000  0.4599250000000 1.0
C      1  0.4843540000000  0.5113250000000  0.4291200000000 1.0
C      1  0.5072640000000  0.4299460000000  0.5188880000000 1.0
C      1  0.4869230000000  0.5697000000000  0.4605430000000 1.0
C      1  0.5202270000000  0.4443640000000  0.4615530000000 1.0
C      1  0.4919380000000  0.5023440000000  0.5708030000000 1.0
C      1  0.5049060000000  0.4392800000000  0.5464980000000 1.0
C      1  0.4430820000000  0.5145930000000  0.5075820000000 1.0
C      1  0.5133120000000  0.5856390000000  0.5325530000000 1.0
C      1  0.5491170000000  0.4699900000000  0.5589540000000 1.0
C      1  0.5319190000000  0.5321940000000  0.5654950000000 1.0
C      1  0.5142980000000  0.5176840000000  0.5785780000000 1.0
C      1  0.5847050000000  0.4680000000000  0.5197570000000 1.0
C      1  0.4391580000000  0.5664060000000  0.4563540000000 1.0
C      1  0.4934890000000  0.4725060000000  0.5699790000000 1.0
C      1  0.5447870000000  0.5410670000000  0.5423910000000 1.0
C      1  0.5012170000000  0.5204910000000  0.4789310000000 1.0
C      1  0.4661230000000  0.4850810000000  0.4611710000000 1.0
C      1  0.4823960000000  0.5341880000000  0.5258010000000 1.0
C      1  0.5515200000000  0.5314390000000  0.4928130000000 1.0
C      1  0.4389270000000  0.5221720000000  0.4796970000000 1.0
C      1  0.5297310000000  0.5640070000000  0.5401160000000 1.0
C      1  0.4340300000000  0.5508510000000  0.4813690000000 1.0
C      1  0.5287730000000  0.4903770000000  0.4411470000000 1.0
C      1  0.5298810000000  0.4183260000000  0.5200000000000 1.0
C      1  0.5404440000000  0.4137710000000  0.4985890000000 1.0
C      1  0.5328670000000  0.4264130000000  0.4793390000000 1.0
C      1  0.5588950000000  0.4778770000000  0.5333750000000 1.0
C      1  0.4375390000000  0.4719100000000  0.5364540000000 1.0
C      1  0.5389650000000  0.4935510000000  0.5143390000000 1.0
C      1  0.4855870000000  0.4399120000000  0.4939820000000 1.0
C      1  0.4561320000000  0.4473070000000  0.5373990000000 1.0
C      1  0.4975620000000  0.5673570000000  0.4884570000000 1.0
C      1  0.4908490000000  0.4411060000000  0.4637270000000 1.0
C      1  0.4651560000000  0.5773830000000  0.5131230000000 1.0
C      1  0.5744960000000  0.4697910000000  0.4916220000000 1.0
C      1  0.4511220000000  0.5097080000000  0.4554630000000 1.0
C      1  0.4655170000000  0.5588240000000  0.4440020000000 1.0
C      1  0.4943130000000  0.4701430000000  0.4938220000000 1.0
C      1  0.4746090000000  0.4595400000000  0.4473430000000 1.0
C      1  0.5496260000000  0.5357740000000  0.4660870000000 1.0
C      1  0.5176070000000  0.4677470000000  0.5528730000000 1.0
C      1  0.4898190000000  0.4928230000000  0.4757610000000 1.0
C      1  0.4837490000000  0.4819660000000  0.5175780000000 1.0
C      1  0.5034690000000  0.4911880000000  0.4234770000000 1.0
C      1  0.5325230000000  0.4719550000000  0.4629840000000 1.0
C      1  0.5089160000000  0.4910190000000  0.5300200000000 1.0
C      1  0.4950460000000  0.5143910000000  0.5435120000000 1.0
C      1  0.4911470000000  0.5865600000000  0.5104220000000 1.0
C      1  0.4424290000000  0.5615400000000  0.5087540000000 1.0
END
