TITL C-883726-8501-25 101128.486222256 125000 -15850.6677562248 0 0 106 (C1) n - 1
REM
REM in /home/nfs/bkarasulu/CARBON/AIRSS/Generating-Clusters/ReaxFF-fromJPCA2015/Units_Real/with-SteepDescent/Only-C1/SD-CG/Try1-3A/FIRE-CG
REM
REM
REM
REM
REM
REM ./C.cell (11c1c37f851c82e70ff6c80c92926a4b)
REM
REM compiler GCC version 9.2.1 20190827 (Red Hat 9.2.1-1)
REM options -cpp -mtune=generic -march=x86-64 -g -O0 -fpre-include=/usr/include/finclude/math-vector-fortran.h
REM seed 1211949577 -197723615 -1906402183 -362065273 430932466 -1766697400 -825097746 -1568998120 2089760284 -1301491866 -238304760 -649453820 751943214 -1352892863 -1182240366 1991417810 618397273 -1332710662 67997261 1770546573 1465731165 -1810920735 -620788393 994100921 645872108 -959434531 -58472527 1809963259 1495872273 -699310104 75318141 -2016785065 1842348111
REM
CELL 1.54180   50.00000   50.00000   50.00000   90.00000   90.00000   90.00000
LATT -1
SFAC C  
C      1  0.5291700000000  0.4650590000000  0.4894810000000 1.0
C      1  0.5554000000000  0.4495940000000  0.4884980000000 1.0
C      1  0.4284940000000  0.5618140000000  0.5347640000000 1.0
C      1  0.4691300000000  0.4642890000000  0.5701600000000 1.0
C      1  0.5185260000000  0.4709140000000  0.5822730000000 1.0
C      1  0.4776940000000  0.5467180000000  0.4401370000000 1.0
C      1  0.4116000000000  0.4921320000000  0.4714210000000 1.0
C      1  0.5182820000000  0.5278260000000  0.4374880000000 1.0
C      1  0.5382320000000  0.4664020000000  0.4446260000000 1.0
C      1  0.4594340000000  0.5173090000000  0.5953910000000 1.0
C      1  0.5251890000000  0.5706310000000  0.5306080000000 1.0
C      1  0.4975260000000  0.4405400000000  0.4276810000000 1.0
C      1  0.5836230000000  0.4674330000000  0.4940660000000 1.0
C      1  0.5357010000000  0.5699590000000  0.4607170000000 1.0
C      1  0.4480760000000  0.4860850000000  0.4319540000000 1.0
C      1  0.4484650000000  0.4552040000000  0.4266820000000 1.0
C      1  0.4826430000000  0.5705860000000  0.4551270000000 1.0
C      1  0.4243800000000  0.5187030000000  0.5620190000000 1.0
C      1  0.5576540000000  0.4486160000000  0.5363580000000 1.0
C      1  0.4076080000000  0.5047000000000  0.4974650000000 1.0
C      1  0.5524950000000  0.5177030000000  0.4733270000000 1.0
C      1  0.5203680000000  0.4779910000000  0.4652810000000 1.0
C      1  0.4849930000000  0.4786820000000  0.4052980000000 1.0
C      1  0.4560880000000  0.5667640000000  0.5430230000000 1.0
C      1  0.4762040000000  0.4747180000000  0.4869100000000 1.0
C      1  0.5606720000000  0.5292400000000  0.5607490000000 1.0
C      1  0.4925760000000  0.4272630000000  0.5375540000000 1.0
C      1  0.4724030000000  0.4978970000000  0.4223170000000 1.0
C      1  0.4449160000000  0.4317820000000  0.5393970000000 1.0
C      1  0.5842300000000  0.4893110000000  0.5427480000000 1.0
C      1  0.4668130000000  0.4192960000000  0.4959230000000 1.0
C      1  0.5112540000000  0.5437180000000  0.4912630000000 1.0
C      1  0.5386580000000  0.5122220000000  0.4268970000000 1.0
C      1  0.4673040000000  0.5645350000000  0.5705730000000 1.0
C      1  0.4950590000000  0.5084860000000  0.5234340000000 1.0
C      1  0.4733050000000  0.5221000000000  0.5378260000000 1.0
C      1  0.4574660000000  0.4968920000000  0.5387610000000 1.0
C      1  0.4602900000000  0.5431530000000  0.5863600000000 1.0
C      1  0.5271270000000  0.4973000000000  0.4114320000000 1.0
C      1  0.5365260000000  0.4920380000000  0.5805740000000 1.0
C      1  0.4344570000000  0.4546480000000  0.4929310000000 1.0
C      1  0.5445560000000  0.4693050000000  0.5688200000000 1.0
C      1  0.4832560000000  0.5472070000000  0.4989180000000 1.0
C      1  0.5730960000000  0.5397190000000  0.4746170000000 1.0
C      1  0.5421540000000  0.4298990000000  0.5321160000000 1.0
C      1  0.4438530000000  0.4309750000000  0.5093800000000 1.0
C      1  0.5725750000000  0.4826630000000  0.4571460000000 1.0
C      1  0.5179120000000  0.4147260000000  0.4954560000000 1.0
C      1  0.4665630000000  0.4291700000000  0.4666120000000 1.0
C      1  0.5906490000000  0.5332390000000  0.5174090000000 1.0
C      1  0.4701950000000  0.4389820000000  0.5531510000000 1.0
C      1  0.4359440000000  0.5030110000000  0.5814010000000 1.0
C      1  0.5885280000000  0.4920510000000  0.4789190000000 1.0
C      1  0.5738720000000  0.5811820000000  0.4982580000000 1.0
C      1  0.4840680000000  0.5019600000000  0.4854910000000 1.0
C      1  0.4924740000000  0.4255020000000  0.4514950000000 1.0
C      1  0.5409020000000  0.4968340000000  0.5219810000000 1.0
C      1  0.4863150000000  0.4657600000000  0.5105610000000 1.0
C      1  0.4994810000000  0.4979610000000  0.4630720000000 1.0
C      1  0.5437310000000  0.4252520000000  0.5050540000000 1.0
C      1  0.5217720000000  0.4574260000000  0.4215040000000 1.0
C      1  0.4871820000000  0.5089830000000  0.5880040000000 1.0
C      1  0.4907690000000  0.5159960000000  0.4397620000000 1.0
C      1  0.5617970000000  0.5666810000000  0.4751640000000 1.0
C      1  0.5563590000000  0.4454950000000  0.4570420000000 1.0
C      1  0.5570130000000  0.5039740000000  0.4475410000000 1.0
C      1  0.4978620000000  0.5572420000000  0.5749960000000 1.0
C      1  0.5189670000000  0.5991320000000  0.5154580000000 1.0
C      1  0.4473390000000  0.4827830000000  0.5626430000000 1.0
C      1  0.5561940000000  0.4745930000000  0.5426000000000 1.0
C      1  0.5062690000000  0.5292110000000  0.5801630000000 1.0
C      1  0.4139780000000  0.4750740000000  0.4950670000000 1.0
C      1  0.5134700000000  0.5937820000000  0.4888880000000 1.0
C      1  0.5813450000000  0.5191560000000  0.5440080000000 1.0
C      1  0.5468570000000  0.5058500000000  0.4982780000000 1.0
C      1  0.4732910000000  0.5493190000000  0.5268420000000 1.0
C      1  0.5219000000000  0.5443340000000  0.4623470000000 1.0
C      1  0.5233810000000  0.5183810000000  0.5325840000000 1.0
C      1  0.5170750000000  0.4431300000000  0.5358330000000 1.0
C      1  0.5140900000000  0.4780210000000  0.4038740000000 1.0
C      1  0.4818610000000  0.4829560000000  0.5306350000000 1.0
C      1  0.4119380000000  0.5296870000000  0.5124260000000 1.0
C      1  0.4218310000000  0.5570480000000  0.5065610000000 1.0
C      1  0.4141730000000  0.5357480000000  0.5420990000000 1.0
C      1  0.5320800000000  0.5186180000000  0.5669590000000 1.0
C      1  0.4289940000000  0.5002850000000  0.4482890000000 1.0
C      1  0.5896330000000  0.5223920000000  0.4905580000000 1.0
C      1  0.5398070000000  0.4229780000000  0.4603420000000 1.0
C      1  0.5124290000000  0.4593760000000  0.5116010000000 1.0
C      1  0.5261110000000  0.5447080000000  0.5166140000000 1.0
C      1  0.5880810000000  0.4787540000000  0.5183250000000 1.0
C      1  0.4396770000000  0.5595780000000  0.4834030000000 1.0
C      1  0.4751900000000  0.4526700000000  0.4135760000000 1.0
C      1  0.4407550000000  0.4337560000000  0.4442680000000 1.0
C      1  0.4681080000000  0.5254100000000  0.4863590000000 1.0
C      1  0.4532260000000  0.5727890000000  0.4611200000000 1.0
C      1  0.4489890000000  0.5509390000000  0.4410810000000 1.0
C      1  0.4429880000000  0.5328770000000  0.4779530000000 1.0
C      1  0.5119950000000  0.5644670000000  0.5522640000000 1.0
C      1  0.4339240000000  0.5285140000000  0.4524030000000 1.0
C      1  0.5146660000000  0.4115610000000  0.4658990000000 1.0
C      1  0.5097590000000  0.5847660000000  0.4634270000000 1.0
C      1  0.4919190000000  0.4162390000000  0.5101890000000 1.0
C      1  0.4909260000000  0.4797900000000  0.5810090000000 1.0
C      1  0.5878470000000  0.5622500000000  0.5172180000000 1.0
C      1  0.4560290000000  0.4576340000000  0.4734720000000 1.0
END
