TITL C-883736-9678-373 2.5093235451785 125000 -5708.03306486104 0 0 40 (C1) n - 1
REM
REM in /home/nfs/bkarasulu/CARBON/AIRSS/Generating-Clusters/ReaxFF-fromJPCA2015/Units_Real/with-SteepDescent/Only-C1/SD-CG/Try1-3A/FIRE-CG
REM
REM
REM
REM
REM
REM ./C.cell (11c1c37f851c82e70ff6c80c92926a4b)
REM
REM compiler GCC version 9.2.1 20190827 (Red Hat 9.2.1-1)
REM options -cpp -mtune=generic -march=x86-64 -g -O0 -fpre-include=/usr/include/finclude/math-vector-fortran.h
REM seed -1130509340 1036494537 -74715526 486261414 -1647300709 179699549 -898960102 -1128685237 238797834 289636106 1175867431 1895961218 1971297703 140360168 -1254462888 146953826 1646298169 -471102875 1487044086 -587864433 -18779028 -1989540650 -435580787 1722241996 355741099 301437803 192664141 -109046514 305326920 -168852450 -179283733 -107664774 -604857706
REM
CELL 1.54180   50.00000   50.00000   50.00000   90.00000   90.00000   90.00000
LATT -1
SFAC C  
C      1  0.5171490000000  0.5039340000000  0.5509330000000 1.0
C      1  0.5550770000000  0.4770670000000  0.5473150000000 1.0
C      1  0.4747250000000  0.4824960000000  0.4537260000000 1.0
C      1  0.4740490000000  0.5301390000000  0.5617860000000 1.0
C      1  0.4954930000000  0.5131920000000  0.5664810000000 1.0
C      1  0.4392280000000  0.5052280000000  0.5006960000000 1.0
C      1  0.4905670000000  0.4567080000000  0.4950380000000 1.0
C      1  0.4625660000000  0.4593140000000  0.5068340000000 1.0
C      1  0.5080380000000  0.5589800000000  0.4755020000000 1.0
C      1  0.5177090000000  0.5020410000000  0.4742610000000 1.0
C      1  0.4505430000000  0.4919460000000  0.5489870000000 1.0
C      1  0.5570850000000  0.5237920000000  0.5309590000000 1.0
C      1  0.4642170000000  0.5324700000000  0.4594920000000 1.0
C      1  0.5146920000000  0.5153590000000  0.4993480000000 1.0
C      1  0.5444500000000  0.4637200000000  0.4739490000000 1.0
C      1  0.5204110000000  0.4567190000000  0.4559910000000 1.0
C      1  0.5205820000000  0.4559670000000  0.4293090000000 1.0
C      1  0.5020120000000  0.5417580000000  0.4980990000000 1.0
C      1  0.5483770000000  0.4916490000000  0.4697840000000 1.0
C      1  0.5087790000000  0.5459410000000  0.4526270000000 1.0
C      1  0.5276890000000  0.5058620000000  0.5230570000000 1.0
C      1  0.4987220000000  0.4728200000000  0.4702850000000 1.0
C      1  0.4802920000000  0.5104530000000  0.4479010000000 1.0
C      1  0.4474830000000  0.4734900000000  0.4620460000000 1.0
C      1  0.5135940000000  0.4448920000000  0.5090860000000 1.0
C      1  0.5643080000000  0.5028810000000  0.5511860000000 1.0
C      1  0.4443780000000  0.5126560000000  0.5283660000000 1.0
C      1  0.5669010000000  0.5458060000000  0.5243970000000 1.0
C      1  0.5456100000000  0.4805070000000  0.5214730000000 1.0
C      1  0.5080790000000  0.5176100000000  0.4516140000000 1.0
C      1  0.4690670000000  0.5036830000000  0.5693380000000 1.0
C      1  0.5395830000000  0.4931490000000  0.5646680000000 1.0
C      1  0.4832000000000  0.5557310000000  0.4632720000000 1.0
C      1  0.4609400000000  0.5366330000000  0.5359360000000 1.0
C      1  0.4437660000000  0.5253380000000  0.4793730000000 1.0
C      1  0.4792040000000  0.5479090000000  0.5162820000000 1.0
C      1  0.5207380000000  0.4552810000000  0.4049710000000 1.0
C      1  0.4577800000000  0.4722710000000  0.5307090000000 1.0
C      1  0.4427620000000  0.4762280000000  0.4915260000000 1.0
C      1  0.5401540000000  0.4583820000000  0.5033950000000 1.0
END
