TITL C-883727-9645-469 -3.23105490110766 125000 -13174.7725993269 0 0 88 (C1) n - 1
REM
REM in /home/nfs/bkarasulu/CARBON/AIRSS/Generating-Clusters/ReaxFF-fromJPCA2015/Units_Real/with-SteepDescent/Only-C1/SD-CG/Try1-3A/FIRE-CG
REM
REM
REM
REM
REM
REM ./C.cell (11c1c37f851c82e70ff6c80c92926a4b)
REM
REM compiler GCC version 9.2.1 20190827 (Red Hat 9.2.1-1)
REM options -cpp -mtune=generic -march=x86-64 -g -O0 -fpre-include=/usr/include/finclude/math-vector-fortran.h
REM seed -275467057 -740881215 -1044078497 769481707 -676478037 2042954298 165542333 2012946917 -936210451 -720645242 715133866 -63965116 144115398 -750401756 435409955 1114229006 1619053251 2003521170 -2104542866 -1514599502 1838466433 601715316 -941955382 -969123252 -171670234 -2058219741 -1708691394 -1767259766 594452640 -1914167555 32871005 -646577590 2010975924
REM
CELL 1.54180   50.00000   50.00000   50.00000   90.00000   90.00000   90.00000
LATT -1
SFAC C  
C      1  0.5799840000000  0.4741670000000  0.5286880000000 1.0
C      1  0.4900740000000  0.4578830000000  0.5753920000000 1.0
C      1  0.4978180000000  0.4176730000000  0.4828260000000 1.0
C      1  0.5005520000000  0.4463140000000  0.4277450000000 1.0
C      1  0.4683990000000  0.5568270000000  0.5300810000000 1.0
C      1  0.4891980000000  0.5859670000000  0.4905760000000 1.0
C      1  0.5259480000000  0.4243320000000  0.4798560000000 1.0
C      1  0.4633020000000  0.5452280000000  0.5615240000000 1.0
C      1  0.4742280000000  0.5297060000000  0.4580410000000 1.0
C      1  0.5213880000000  0.4901320000000  0.5605370000000 1.0
C      1  0.5395340000000  0.5447990000000  0.5285840000000 1.0
C      1  0.5567270000000  0.5147530000000  0.4753300000000 1.0
C      1  0.5583920000000  0.5072110000000  0.5648250000000 1.0
C      1  0.5334650000000  0.5136230000000  0.5756250000000 1.0
C      1  0.5188360000000  0.4627100000000  0.5720770000000 1.0
C      1  0.4877000000000  0.4912310000000  0.4159820000000 1.0
C      1  0.5107720000000  0.5574380000000  0.4522270000000 1.0
C      1  0.4658480000000  0.5739720000000  0.4813970000000 1.0
C      1  0.5530900000000  0.5649730000000  0.5190550000000 1.0
C      1  0.5864600000000  0.4924180000000  0.5063140000000 1.0
C      1  0.5528340000000  0.4637340000000  0.4884000000000 1.0
C      1  0.4315900000000  0.4688230000000  0.5174190000000 1.0
C      1  0.4860400000000  0.5336640000000  0.5767600000000 1.0
C      1  0.5050510000000  0.5198270000000  0.5202540000000 1.0
C      1  0.4194880000000  0.4988750000000  0.4789470000000 1.0
C      1  0.5411550000000  0.4345300000000  0.5327210000000 1.0
C      1  0.5136560000000  0.5387550000000  0.4290190000000 1.0
C      1  0.5681710000000  0.4471200000000  0.5281920000000 1.0
C      1  0.4768270000000  0.5282170000000  0.5267020000000 1.0
C      1  0.4685940000000  0.5095770000000  0.5826290000000 1.0
C      1  0.4921360000000  0.5789640000000  0.5316030000000 1.0
C      1  0.5788650000000  0.4953850000000  0.4770300000000 1.0
C      1  0.4764260000000  0.4409780000000  0.5285690000000 1.0
C      1  0.4763120000000  0.4207500000000  0.4625510000000 1.0
C      1  0.4440840000000  0.5055780000000  0.4294610000000 1.0
C      1  0.4355220000000  0.5441990000000  0.4888120000000 1.0
C      1  0.4179260000000  0.5216490000000  0.4984560000000 1.0
C      1  0.5511740000000  0.5387420000000  0.4595090000000 1.0
C      1  0.5108290000000  0.5855280000000  0.5077990000000 1.0
C      1  0.4244970000000  0.5095890000000  0.5504490000000 1.0
C      1  0.5373260000000  0.5077050000000  0.4970640000000 1.0
C      1  0.4827050000000  0.5572080000000  0.4606870000000 1.0
C      1  0.5481090000000  0.5638010000000  0.5476890000000 1.0
C      1  0.4279960000000  0.4728720000000  0.4880030000000 1.0
C      1  0.4999670000000  0.4705990000000  0.4941530000000 1.0
C      1  0.4913820000000  0.5207000000000  0.4154390000000 1.0
C      1  0.4943390000000  0.5082310000000  0.4645480000000 1.0
C      1  0.4554270000000  0.4582520000000  0.4427790000000 1.0
C      1  0.5807570000000  0.5155040000000  0.5233020000000 1.0
C      1  0.4840350000000  0.4383710000000  0.5003820000000 1.0
C      1  0.4279790000000  0.5109030000000  0.4537190000000 1.0
C      1  0.4965180000000  0.4793470000000  0.4659530000000 1.0
C      1  0.4211110000000  0.5181320000000  0.5255160000000 1.0
C      1  0.5376900000000  0.4743520000000  0.4210970000000 1.0
C      1  0.5792790000000  0.4982560000000  0.5480720000000 1.0
C      1  0.5090650000000  0.4710610000000  0.4132890000000 1.0
C      1  0.4189300000000  0.4797150000000  0.5412660000000 1.0
C      1  0.4757120000000  0.4836620000000  0.5051310000000 1.0
C      1  0.5504040000000  0.4602660000000  0.4439950000000 1.0
C      1  0.5688770000000  0.4710280000000  0.4644780000000 1.0
C      1  0.4519820000000  0.5615960000000  0.5044620000000 1.0
C      1  0.4613630000000  0.4824630000000  0.4271190000000 1.0
C      1  0.5538070000000  0.5246610000000  0.5160090000000 1.0
C      1  0.4435840000000  0.4554850000000  0.4699190000000 1.0
C      1  0.5023080000000  0.4971250000000  0.5395680000000 1.0
C      1  0.4744930000000  0.4370370000000  0.4381550000000 1.0
C      1  0.4450220000000  0.5327870000000  0.4625620000000 1.0
C      1  0.5339870000000  0.5699010000000  0.4981610000000 1.0
C      1  0.4757100000000  0.4869500000000  0.5459080000000 1.0
C      1  0.4626630000000  0.5264090000000  0.4157850000000 1.0
C      1  0.5662240000000  0.4389320000000  0.4999580000000 1.0
C      1  0.5301570000000  0.4794300000000  0.4984160000000 1.0
C      1  0.5335240000000  0.5588820000000  0.4712700000000 1.0
C      1  0.5298770000000  0.4420820000000  0.4564850000000 1.0
C      1  0.5154050000000  0.5377820000000  0.5756750000000 1.0
C      1  0.4591890000000  0.4340120000000  0.4817020000000 1.0
C      1  0.5083150000000  0.4582350000000  0.4512250000000 1.0
C      1  0.4460530000000  0.5225890000000  0.5682970000000 1.0
C      1  0.5258950000000  0.5632300000000  0.5666670000000 1.0
C      1  0.4633100000000  0.4678010000000  0.5257150000000 1.0
C      1  0.5422240000000  0.5327820000000  0.4304590000000 1.0
C      1  0.5420770000000  0.4231790000000  0.5045910000000 1.0
C      1  0.5211300000000  0.4395810000000  0.5533240000000 1.0
C      1  0.4688210000000  0.5118010000000  0.5033980000000 1.0
C      1  0.5041660000000  0.5828540000000  0.5579600000000 1.0
C      1  0.4913260000000  0.4376980000000  0.5529250000000 1.0
C      1  0.4721990000000  0.4813930000000  0.5740540000000 1.0
C      1  0.4946930000000  0.5175180000000  0.4917080000000 1.0
END
