TITL C-884128-4793-387 43.0587335984296 125000 -25302.5589209873 0 0 170 (C1) n - 1
REM
REM in /home/nfs/bkarasulu/CARBON/AIRSS/Generating-Clusters/ReaxFF-fromJPCA2015/Units_Real/with-SteepDescent/Only-C1/SD-CG/Try1-3A/FIRE-CG
REM
REM
REM
REM
REM
REM ./C.cell (11c1c37f851c82e70ff6c80c92926a4b)
REM
REM compiler GCC version 9.2.1 20190827 (Red Hat 9.2.1-1)
REM options -cpp -mtune=generic -march=x86-64 -g -O0 -fpre-include=/usr/include/finclude/math-vector-fortran.h
REM seed -511754679 1261918284 581078928 1975009617 550655880 19832105 1394502358 -1524649443 1178726087 -2142198545 -357362971 -1398329393 554008086 1024212470 792305937 -1902470296 332891199 1552245360 180007582 1672423531 1224149561 -1168526108 -351780392 837708043 1775293927 -79795401 -1935945944 -902328200 2056535513 -1414160542 1877516620 816142789 -719711135
REM
CELL 1.54180   50.00000   50.00000   50.00000   90.00000   90.00000   90.00000
LATT -1
SFAC C  
C      1  0.5083650000000  0.5770500000000  0.5705960000000 1.0
C      1  0.5680340000000  0.4450840000000  0.4458370000000 1.0
C      1  0.5003950000000  0.3895880000000  0.5170840000000 1.0
C      1  0.4872660000000  0.4010240000000  0.5398290000000 1.0
C      1  0.5924770000000  0.5330670000000  0.5587230000000 1.0
C      1  0.5241650000000  0.4563090000000  0.5776680000000 1.0
C      1  0.4302920000000  0.5731650000000  0.5597670000000 1.0
C      1  0.4503560000000  0.4718490000000  0.5212760000000 1.0
C      1  0.4513800000000  0.5671970000000  0.5035700000000 1.0
C      1  0.6125110000000  0.4916480000000  0.5163040000000 1.0
C      1  0.5647210000000  0.5544770000000  0.4441410000000 1.0
C      1  0.5994600000000  0.4550880000000  0.4926200000000 1.0
C      1  0.4459490000000  0.4971680000000  0.4246990000000 1.0
C      1  0.4806690000000  0.5165730000000  0.4545740000000 1.0
C      1  0.5458910000000  0.4133420000000  0.4603100000000 1.0
C      1  0.3873890000000  0.5536100000000  0.5307890000000 1.0
C      1  0.4561170000000  0.5837780000000  0.5512060000000 1.0
C      1  0.3951760000000  0.5256850000000  0.5385160000000 1.0
C      1  0.4941170000000  0.5141090000000  0.4141680000000 1.0
C      1  0.4091880000000  0.4952320000000  0.4572770000000 1.0
C      1  0.5237400000000  0.4345650000000  0.4175170000000 1.0
C      1  0.5294320000000  0.4694270000000  0.4526530000000 1.0
C      1  0.5182940000000  0.5438680000000  0.3978590000000 1.0
C      1  0.5148590000000  0.4633680000000  0.4015700000000 1.0
C      1  0.5092280000000  0.4583480000000  0.4714030000000 1.0
C      1  0.4576710000000  0.4907740000000  0.5978370000000 1.0
C      1  0.4951010000000  0.5025800000000  0.4935070000000 1.0
C      1  0.4666750000000  0.6011150000000  0.4310370000000 1.0
C      1  0.4471060000000  0.4104160000000  0.4709960000000 1.0
C      1  0.5884970000000  0.4645690000000  0.4433390000000 1.0
C      1  0.5033440000000  0.4187520000000  0.4285880000000 1.0
C      1  0.4370180000000  0.4537670000000  0.5746730000000 1.0
C      1  0.4398620000000  0.5348880000000  0.5890590000000 1.0
C      1  0.4525160000000  0.5862190000000  0.4509050000000 1.0
C      1  0.5364100000000  0.4493070000000  0.5010710000000 1.0
C      1  0.4316430000000  0.4758680000000  0.4112270000000 1.0
C      1  0.5454500000000  0.4113170000000  0.5245020000000 1.0
C      1  0.5454520000000  0.5492480000000  0.4824750000000 1.0
C      1  0.4569000000000  0.5889020000000  0.5227000000000 1.0
C      1  0.4884570000000  0.5374780000000  0.5326490000000 1.0
C      1  0.5775620000000  0.4582070000000  0.5364360000000 1.0
C      1  0.4747850000000  0.5344390000000  0.4047940000000 1.0
C      1  0.5078440000000  0.4152550000000  0.5540030000000 1.0
C      1  0.5173700000000  0.5905700000000  0.4781330000000 1.0
C      1  0.5268680000000  0.5342860000000  0.5004520000000 1.0
C      1  0.5003180000000  0.4837690000000  0.5433980000000 1.0
C      1  0.5702320000000  0.4524970000000  0.5657380000000 1.0
C      1  0.5080360000000  0.5284450000000  0.5517060000000 1.0
C      1  0.5706090000000  0.5637540000000  0.4844000000000 1.0
C      1  0.4241550000000  0.4772010000000  0.5326430000000 1.0
C      1  0.5489320000000  0.4885400000000  0.4613040000000 1.0
C      1  0.5960090000000  0.5475440000000  0.4877890000000 1.0
C      1  0.5140970000000  0.4999340000000  0.6089260000000 1.0
C      1  0.4929830000000  0.4752130000000  0.4880910000000 1.0
C      1  0.4800370000000  0.5010030000000  0.5857180000000 1.0
C      1  0.4412320000000  0.4278740000000  0.4938220000000 1.0
C      1  0.5253590000000  0.5427610000000  0.4262200000000 1.0
C      1  0.4017840000000  0.5154530000000  0.4933540000000 1.0
C      1  0.5787370000000  0.4360610000000  0.4933730000000 1.0
C      1  0.5007280000000  0.4062440000000  0.4574800000000 1.0
C      1  0.4762440000000  0.4447560000000  0.5372960000000 1.0
C      1  0.5692940000000  0.5172990000000  0.5671570000000 1.0
C      1  0.5046660000000  0.4428320000000  0.5415360000000 1.0
C      1  0.4784210000000  0.5603750000000  0.4927730000000 1.0
C      1  0.5783700000000  0.5389370000000  0.4223210000000 1.0
C      1  0.5381740000000  0.5672610000000  0.4371710000000 1.0
C      1  0.4942250000000  0.5051110000000  0.5615410000000 1.0
C      1  0.4928170000000  0.5782250000000  0.4307670000000 1.0
C      1  0.4824630000000  0.6009540000000  0.5140930000000 1.0
C      1  0.4255410000000  0.5649830000000  0.4893470000000 1.0
C      1  0.5609370000000  0.4882060000000  0.4878940000000 1.0
C      1  0.5612530000000  0.4358860000000  0.4722510000000 1.0
C      1  0.4370120000000  0.5404590000000  0.4360690000000 1.0
C      1  0.5365190000000  0.4781430000000  0.4994540000000 1.0
C      1  0.4681820000000  0.4858310000000  0.4479330000000 1.0
C      1  0.5108030000000  0.4410500000000  0.5128150000000 1.0
C      1  0.4064890000000  0.5738880000000  0.5420280000000 1.0
C      1  0.6183870000000  0.5174020000000  0.5074550000000 1.0
C      1  0.5360200000000  0.5922700000000  0.5021640000000 1.0
C      1  0.5374000000000  0.4149560000000  0.5521280000000 1.0
C      1  0.4114210000000  0.4516610000000  0.5198190000000 1.0
C      1  0.5221930000000  0.5063300000000  0.4877450000000 1.0
C      1  0.4337910000000  0.4253050000000  0.4477320000000 1.0
C      1  0.4737760000000  0.3979600000000  0.4707070000000 1.0
C      1  0.5461360000000  0.5800960000000  0.5518980000000 1.0
C      1  0.4986120000000  0.5460120000000  0.5080130000000 1.0
C      1  0.4137690000000  0.5502800000000  0.4520140000000 1.0
C      1  0.4425910000000  0.5211750000000  0.5206770000000 1.0
C      1  0.4337300000000  0.4962430000000  0.4737750000000 1.0
C      1  0.5251390000000  0.4742690000000  0.5545640000000 1.0
C      1  0.4567340000000  0.4299140000000  0.4343040000000 1.0
C      1  0.4812080000000  0.4377580000000  0.4233650000000 1.0
C      1  0.5679850000000  0.4854520000000  0.5341240000000 1.0
C      1  0.4928770000000  0.5573090000000  0.4056470000000 1.0
C      1  0.4847000000000  0.4941380000000  0.3976780000000 1.0
C      1  0.5375300000000  0.5159100000000  0.6050660000000 1.0
C      1  0.3932220000000  0.4894560000000  0.4825220000000 1.0
C      1  0.4953990000000  0.4330280000000  0.4706110000000 1.0
C      1  0.5455410000000  0.5624380000000  0.5763230000000 1.0
C      1  0.5337020000000  0.5461370000000  0.5973460000000 1.0
C      1  0.4907920000000  0.4271380000000  0.4975910000000 1.0
C      1  0.5689020000000  0.5748630000000  0.5344310000000 1.0
C      1  0.5450660000000  0.5241150000000  0.5203940000000 1.0
C      1  0.4856190000000  0.4671970000000  0.4332040000000 1.0
C      1  0.4702920000000  0.4692150000000  0.4735350000000 1.0
C      1  0.4607570000000  0.5320560000000  0.5414110000000 1.0
C      1  0.5630100000000  0.5827220000000  0.5063540000000 1.0
C      1  0.5329530000000  0.5121630000000  0.4596410000000 1.0
C      1  0.4485130000000  0.5143920000000  0.4929160000000 1.0
C      1  0.5467820000000  0.4289850000000  0.4339200000000 1.0
C      1  0.4829400000000  0.4678150000000  0.3901410000000 1.0
C      1  0.4053770000000  0.5246670000000  0.5651010000000 1.0
C      1  0.5915960000000  0.5550320000000  0.5380200000000 1.0
C      1  0.5707560000000  0.4783040000000  0.5805890000000 1.0
C      1  0.5346390000000  0.5300280000000  0.5447380000000 1.0
C      1  0.4343350000000  0.5068180000000  0.5948950000000 1.0
C      1  0.4135710000000  0.4734280000000  0.4365270000000 1.0
C      1  0.4296330000000  0.4270260000000  0.5198290000000 1.0
C      1  0.5751860000000  0.5103000000000  0.4164410000000 1.0
C      1  0.4253400000000  0.5753550000000  0.4619720000000 1.0
C      1  0.4889620000000  0.5151250000000  0.6063050000000 1.0
C      1  0.5273330000000  0.3978210000000  0.5054340000000 1.0
C      1  0.6076510000000  0.5215500000000  0.4795020000000 1.0
C      1  0.5529960000000  0.5037470000000  0.3948720000000 1.0
C      1  0.4735220000000  0.4718710000000  0.5380190000000 1.0
C      1  0.5123380000000  0.4703830000000  0.6021980000000 1.0
C      1  0.4855450000000  0.5891180000000  0.5596920000000 1.0
C      1  0.4749600000000  0.5660730000000  0.4509310000000 1.0
C      1  0.5533780000000  0.5338020000000  0.4620710000000 1.0
C      1  0.5560320000000  0.4919930000000  0.5571450000000 1.0
C      1  0.6026740000000  0.4989260000000  0.4617700000000 1.0
C      1  0.4307960000000  0.4682960000000  0.4762690000000 1.0
C      1  0.4506670000000  0.4592530000000  0.4938700000000 1.0
C      1  0.4227790000000  0.4757880000000  0.5612670000000 1.0
C      1  0.5263900000000  0.4000670000000  0.4762480000000 1.0
C      1  0.4626190000000  0.5381000000000  0.5706820000000 1.0
C      1  0.6042350000000  0.4659910000000  0.5193710000000 1.0
C      1  0.6063820000000  0.5450820000000  0.5145370000000 1.0
C      1  0.5510720000000  0.5388360000000  0.5625990000000 1.0
C      1  0.5588520000000  0.4955700000000  0.6012460000000 1.0
C      1  0.5616150000000  0.4355520000000  0.5161160000000 1.0
C      1  0.4206660000000  0.4520320000000  0.4542660000000 1.0
C      1  0.4838880000000  0.5398070000000  0.5912900000000 1.0
C      1  0.4470330000000  0.5245360000000  0.4139800000000 1.0
C      1  0.5887030000000  0.4930520000000  0.4357990000000 1.0
C      1  0.4598700000000  0.4616440000000  0.5946170000000 1.0
C      1  0.4423080000000  0.4324820000000  0.5578040000000 1.0
C      1  0.5287100000000  0.5173180000000  0.3870690000000 1.0
C      1  0.4159790000000  0.4994600000000  0.5752060000000 1.0
C      1  0.5653120000000  0.5043950000000  0.5130300000000 1.0
C      1  0.4142680000000  0.5097400000000  0.5213800000000 1.0
C      1  0.5073050000000  0.5575270000000  0.5913430000000 1.0
C      1  0.5308060000000  0.4866230000000  0.3899330000000 1.0
C      1  0.5007830000000  0.6009000000000  0.5371380000000 1.0
C      1  0.6025670000000  0.4701260000000  0.4679150000000 1.0
C      1  0.5466490000000  0.4367980000000  0.5702170000000 1.0
C      1  0.4553190000000  0.4659190000000  0.3979610000000 1.0
C      1  0.4907600000000  0.5881530000000  0.4893930000000 1.0
C      1  0.4194710000000  0.5492200000000  0.5742710000000 1.0
C      1  0.5175540000000  0.5826160000000  0.4496210000000 1.0
C      1  0.4569450000000  0.4191690000000  0.5381940000000 1.0
C      1  0.4100030000000  0.5403170000000  0.4800270000000 1.0
C      1  0.4757990000000  0.5213310000000  0.4836770000000 1.0
C      1  0.5128630000000  0.4751350000000  0.4288410000000 1.0
C      1  0.3991230000000  0.4673280000000  0.5002270000000 1.0
C      1  0.4876970000000  0.4598600000000  0.5959520000000 1.0
C      1  0.4790300000000  0.3994290000000  0.4992710000000 1.0
C      1  0.4635070000000  0.5397630000000  0.4487320000000 1.0
C      1  0.5282790000000  0.5917190000000  0.5307280000000 1.0
C      1  0.5094270000000  0.5204790000000  0.4398950000000 1.0
END
