TITL C-884127-5181-205 57.412070830285 125000 -24788.8981848859 0 0 168 (C1) n - 1
REM
REM in /home/nfs/bkarasulu/CARBON/AIRSS/Generating-Clusters/ReaxFF-fromJPCA2015/Units_Real/with-SteepDescent/Only-C1/SD-CG/Try1-3A/FIRE-CG
REM
REM
REM
REM
REM
REM ./C.cell (11c1c37f851c82e70ff6c80c92926a4b)
REM
REM compiler GCC version 9.2.1 20190827 (Red Hat 9.2.1-1)
REM options -cpp -mtune=generic -march=x86-64 -g -O0 -fpre-include=/usr/include/finclude/math-vector-fortran.h
REM seed 586992147 593567991 1839631911 -867803867 1545004644 -88727871 1949645295 -1090931405 270286051 1810696850 1901904383 -1552348740 -1478075588 711182297 1485078942 -1525718809 1510940950 306910945 971808563 -1575604929 1506853179 780705424 -1963913448 -897808855 804040887 -1866156835 199905009 2105086633 2110111197 2101599334 -1195511849 1067185997 277814131
REM
CELL 1.54180   50.00000   50.00000   50.00000   90.00000   90.00000   90.00000
LATT -1
SFAC C  
C      1  0.4696130000000  0.5560260000000  0.4200640000000 1.0
C      1  0.4136000000000  0.4564660000000  0.5078510000000 1.0
C      1  0.5028190000000  0.4496940000000  0.4965370000000 1.0
C      1  0.4661430000000  0.4354810000000  0.4512400000000 1.0
C      1  0.5030620000000  0.5408240000000  0.5104110000000 1.0
C      1  0.5652140000000  0.5951990000000  0.4992990000000 1.0
C      1  0.5514570000000  0.4545850000000  0.5167250000000 1.0
C      1  0.5835060000000  0.4535530000000  0.4272890000000 1.0
C      1  0.5644860000000  0.4999110000000  0.4056050000000 1.0
C      1  0.5914970000000  0.5143340000000  0.4600680000000 1.0
C      1  0.4510020000000  0.5124510000000  0.4715180000000 1.0
C      1  0.4751140000000  0.4684940000000  0.5297950000000 1.0
C      1  0.5107530000000  0.4930070000000  0.5066570000000 1.0
C      1  0.5225160000000  0.6109430000000  0.4416290000000 1.0
C      1  0.4827570000000  0.5818320000000  0.5723140000000 1.0
C      1  0.4134740000000  0.5462850000000  0.4685310000000 1.0
C      1  0.4636080000000  0.4158260000000  0.4730070000000 1.0
C      1  0.4505790000000  0.5822380000000  0.4666590000000 1.0
C      1  0.5839370000000  0.5415390000000  0.4546380000000 1.0
C      1  0.4099600000000  0.5100350000000  0.5016080000000 1.0
C      1  0.5451300000000  0.4792200000000  0.4053560000000 1.0
C      1  0.5166250000000  0.4561570000000  0.5930110000000 1.0
C      1  0.4976690000000  0.4544350000000  0.4127620000000 1.0
C      1  0.5396570000000  0.4597220000000  0.4424560000000 1.0
C      1  0.4953700000000  0.5336990000000  0.4593020000000 1.0
C      1  0.4570610000000  0.5421190000000  0.5157410000000 1.0
C      1  0.5464490000000  0.4381640000000  0.4618690000000 1.0
C      1  0.4641870000000  0.3908040000000  0.5116010000000 1.0
C      1  0.3924170000000  0.5068940000000  0.5589100000000 1.0
C      1  0.4870830000000  0.5445540000000  0.3998450000000 1.0
C      1  0.4595760000000  0.5352640000000  0.4871010000000 1.0
C      1  0.5408090000000  0.5559460000000  0.5995800000000 1.0
C      1  0.4798280000000  0.4213620000000  0.5353240000000 1.0
C      1  0.5255440000000  0.5502050000000  0.5728700000000 1.0
C      1  0.4168020000000  0.5534040000000  0.5359970000000 1.0
C      1  0.5925040000000  0.5437250000000  0.5302430000000 1.0
C      1  0.5475750000000  0.4727850000000  0.5434540000000 1.0
C      1  0.4211190000000  0.4429680000000  0.4825470000000 1.0
C      1  0.5080590000000  0.5210640000000  0.5769440000000 1.0
C      1  0.4366640000000  0.4180470000000  0.4849710000000 1.0
C      1  0.5079400000000  0.4743250000000  0.4864050000000 1.0
C      1  0.4391950000000  0.4586870000000  0.5772590000000 1.0
C      1  0.5589640000000  0.5740380000000  0.4430370000000 1.0
C      1  0.5814940000000  0.4963060000000  0.5770090000000 1.0
C      1  0.5458430000000  0.5262050000000  0.5318190000000 1.0
C      1  0.5470980000000  0.4999280000000  0.5382820000000 1.0
C      1  0.4874120000000  0.5149830000000  0.3968470000000 1.0
C      1  0.5690380000000  0.5494890000000  0.4313180000000 1.0
C      1  0.4617590000000  0.4896380000000  0.4890300000000 1.0
C      1  0.5337370000000  0.4386750000000  0.5788120000000 1.0
C      1  0.5187430000000  0.6107070000000  0.4998740000000 1.0
C      1  0.4429010000000  0.5058130000000  0.5352270000000 1.0
C      1  0.4506360000000  0.5722020000000  0.5176150000000 1.0
C      1  0.4504940000000  0.5486170000000  0.5861140000000 1.0
C      1  0.4779760000000  0.4659680000000  0.3941730000000 1.0
C      1  0.5452200000000  0.5506510000000  0.4839970000000 1.0
C      1  0.4982520000000  0.4145120000000  0.5579940000000 1.0
C      1  0.4425700000000  0.4549830000000  0.4661250000000 1.0
C      1  0.4755290000000  0.5981950000000  0.4618390000000 1.0
C      1  0.4867630000000  0.3987550000000  0.4244450000000 1.0
C      1  0.5804530000000  0.5263450000000  0.5795180000000 1.0
C      1  0.3924530000000  0.4854800000000  0.5389080000000 1.0
C      1  0.5931900000000  0.4345170000000  0.4936490000000 1.0
C      1  0.5278960000000  0.5084600000000  0.4884030000000 1.0
C      1  0.5616050000000  0.4725630000000  0.4966450000000 1.0
C      1  0.4876040000000  0.5154180000000  0.5504960000000 1.0
C      1  0.4020880000000  0.4834580000000  0.5115790000000 1.0
C      1  0.4574840000000  0.4888340000000  0.5188820000000 1.0
C      1  0.5970490000000  0.5103270000000  0.4883590000000 1.0
C      1  0.4591130000000  0.4118260000000  0.4173590000000 1.0
C      1  0.5866020000000  0.5785160000000  0.4970270000000 1.0
C      1  0.5681520000000  0.4296760000000  0.5336660000000 1.0
C      1  0.5338540000000  0.5332580000000  0.5034460000000 1.0
C      1  0.5011180000000  0.5688030000000  0.5132570000000 1.0
C      1  0.5847780000000  0.5693680000000  0.5233200000000 1.0
C      1  0.4821490000000  0.4308690000000  0.5751320000000 1.0
C      1  0.6051640000000  0.4835690000000  0.5180770000000 1.0
C      1  0.4188260000000  0.5043340000000  0.4309730000000 1.0
C      1  0.4821480000000  0.3995860000000  0.4898330000000 1.0
C      1  0.4882580000000  0.4522360000000  0.5933710000000 1.0
C      1  0.4847600000000  0.4538380000000  0.4386180000000 1.0
C      1  0.5110240000000  0.5685780000000  0.4374710000000 1.0
C      1  0.4863370000000  0.5183670000000  0.6008000000000 1.0
C      1  0.5431900000000  0.4110060000000  0.5359800000000 1.0
C      1  0.5891890000000  0.5335010000000  0.5026670000000 1.0
C      1  0.4395840000000  0.5274250000000  0.5727160000000 1.0
C      1  0.5770770000000  0.5447690000000  0.5566710000000 1.0
C      1  0.4999300000000  0.4884940000000  0.5331750000000 1.0
C      1  0.4943630000000  0.6028230000000  0.4836700000000 1.0
C      1  0.5775490000000  0.4926920000000  0.4464190000000 1.0
C      1  0.5260240000000  0.4125450000000  0.5128670000000 1.0
C      1  0.4375460000000  0.5809650000000  0.4925530000000 1.0
C      1  0.5263700000000  0.5654640000000  0.4688770000000 1.0
C      1  0.5755110000000  0.5510160000000  0.4829470000000 1.0
C      1  0.5949870000000  0.4374870000000  0.5221780000000 1.0
C      1  0.5493540000000  0.4859790000000  0.4524550000000 1.0
C      1  0.5249990000000  0.5017660000000  0.5857120000000 1.0
C      1  0.5093080000000  0.3969110000000  0.4399060000000 1.0
C      1  0.4677340000000  0.4428080000000  0.5503910000000 1.0
C      1  0.4568790000000  0.5689490000000  0.5681110000000 1.0
C      1  0.5115610000000  0.3992220000000  0.4909990000000 1.0
C      1  0.5099540000000  0.5758480000000  0.5785270000000 1.0
C      1  0.4868420000000  0.5367440000000  0.4858310000000 1.0
C      1  0.5126720000000  0.5091220000000  0.4100640000000 1.0
C      1  0.4578170000000  0.5055240000000  0.4447320000000 1.0
C      1  0.5305820000000  0.5324810000000  0.4054680000000 1.0
C      1  0.5797540000000  0.4307920000000  0.4404500000000 1.0
C      1  0.5883590000000  0.4840020000000  0.4962470000000 1.0
C      1  0.4343930000000  0.5607560000000  0.4527160000000 1.0
C      1  0.3975450000000  0.5635060000000  0.5160500000000 1.0
C      1  0.5327130000000  0.4819820000000  0.5955280000000 1.0
C      1  0.4416280000000  0.4339180000000  0.4180360000000 1.0
C      1  0.5772420000000  0.4286550000000  0.4689350000000 1.0
C      1  0.4261110000000  0.5267270000000  0.5221060000000 1.0
C      1  0.5123450000000  0.5552380000000  0.4095240000000 1.0
C      1  0.4427110000000  0.5491450000000  0.4273980000000 1.0
C      1  0.4128150000000  0.4693290000000  0.5772780000000 1.0
C      1  0.4553150000000  0.4624740000000  0.4893430000000 1.0
C      1  0.4689790000000  0.4964750000000  0.5988080000000 1.0
C      1  0.4831820000000  0.5366390000000  0.5304130000000 1.0
C      1  0.4844840000000  0.4855330000000  0.4446320000000 1.0
C      1  0.6072610000000  0.4641300000000  0.5375820000000 1.0
C      1  0.5484220000000  0.5470580000000  0.5526920000000 1.0
C      1  0.4395320000000  0.5714000000000  0.5442680000000 1.0
C      1  0.5272410000000  0.4173260000000  0.5597100000000 1.0
C      1  0.4019900000000  0.4626440000000  0.5518150000000 1.0
C      1  0.4651380000000  0.5356070000000  0.6022820000000 1.0
C      1  0.5594240000000  0.4796110000000  0.5882500000000 1.0
C      1  0.4883010000000  0.5544290000000  0.4414380000000 1.0
C      1  0.5179980000000  0.5916590000000  0.5203300000000 1.0
C      1  0.4416480000000  0.5192220000000  0.4238260000000 1.0
C      1  0.4319770000000  0.4604660000000  0.4222470000000 1.0
C      1  0.5965960000000  0.4822370000000  0.5573110000000 1.0
C      1  0.4500880000000  0.4723310000000  0.4014830000000 1.0
C      1  0.5448220000000  0.4118920000000  0.4509540000000 1.0
C      1  0.4751940000000  0.4492520000000  0.5060990000000 1.0
C      1  0.5246970000000  0.3956490000000  0.4633130000000 1.0
C      1  0.5578640000000  0.4549150000000  0.5728780000000 1.0
C      1  0.4681410000000  0.4935690000000  0.3911500000000 1.0
C      1  0.4073690000000  0.4939740000000  0.4543130000000 1.0
C      1  0.4024740000000  0.4953580000000  0.5825900000000 1.0
C      1  0.5047450000000  0.5751720000000  0.4856100000000 1.0
C      1  0.5133750000000  0.4982930000000  0.4372700000000 1.0
C      1  0.5802150000000  0.4369280000000  0.5612640000000 1.0
C      1  0.4214930000000  0.4677960000000  0.4496760000000 1.0
C      1  0.4111850000000  0.5668630000000  0.4889420000000 1.0
C      1  0.4633830000000  0.4697680000000  0.5925490000000 1.0
C      1  0.4970660000000  0.5965500000000  0.4412200000000 1.0
C      1  0.5469380000000  0.5978870000000  0.4545830000000 1.0
C      1  0.4865290000000  0.4850760000000  0.4732330000000 1.0
C      1  0.4117550000000  0.5199790000000  0.5761190000000 1.0
C      1  0.5164670000000  0.4628400000000  0.5426130000000 1.0
C      1  0.4393050000000  0.4405990000000  0.5542660000000 1.0
C      1  0.5843640000000  0.4814540000000  0.4201740000000 1.0
C      1  0.5446430000000  0.6064500000000  0.4860020000000 1.0
C      1  0.5579670000000  0.5283470000000  0.4123170000000 1.0
C      1  0.4176210000000  0.4467090000000  0.5350780000000 1.0
C      1  0.5649690000000  0.5388470000000  0.6016530000000 1.0
C      1  0.5280370000000  0.4591860000000  0.4151230000000 1.0
C      1  0.4076940000000  0.5174490000000  0.4742500000000 1.0
C      1  0.4589760000000  0.5125140000000  0.5574160000000 1.0
C      1  0.5176610000000  0.5162380000000  0.4590960000000 1.0
C      1  0.5445440000000  0.4861990000000  0.4800770000000 1.0
C      1  0.5236980000000  0.4435250000000  0.5146600000000 1.0
C      1  0.4373940000000  0.4016780000000  0.5090730000000 1.0
C      1  0.5115000000000  0.6040980000000  0.5389700000000 1.0
C      1  0.5033210000000  0.6000030000000  0.5632830000000 1.0
C      1  0.4534950000000  0.4079500000000  0.5332320000000 1.0
END
