TITL C-884130-5973-53 769958.789449141 125000 -22228.6684728069 0 0 147 (C1) n - 1
REM
REM in /home/nfs/bkarasulu/CARBON/AIRSS/Generating-Clusters/ReaxFF-fromJPCA2015/Units_Real/with-SteepDescent/Only-C1/SD-CG/Try1-3A/FIRE-CG
REM
REM
REM
REM
REM
REM ./C.cell (11c1c37f851c82e70ff6c80c92926a4b)
REM
REM compiler GCC version 9.2.1 20190827 (Red Hat 9.2.1-1)
REM options -cpp -mtune=generic -march=x86-64 -g -O0 -fpre-include=/usr/include/finclude/math-vector-fortran.h
REM seed 1860720942 -1833994571 2037553017 383850267 1440783614 -929019676 698754428 1386306897 1316217026 703356920 1040682919 537864382 -598905373 229621576 681827956 11080742 -936583114 1892805376 487722335 -341877212 2013655629 2077924153 794732738 461967501 -1723074017 1188022334 -1491224410 1164374091 -635527609 308220824 -2128565190 -1203892254 1619169858
REM
CELL 1.54180   50.00000   50.00000   50.00000   90.00000   90.00000   90.00000
LATT -1
SFAC C  
C      1  0.5096840000000  0.4705070000000  0.4389450000000 1.0
C      1  0.5639340000000  0.5285650000000  0.4205980000000 1.0
C      1  0.5044290000000  0.4040320000000  0.4787710000000 1.0
C      1  0.4513590000000  0.4137270000000  0.5273260000000 1.0
C      1  0.4508110000000  0.5884230000000  0.5527310000000 1.0
C      1  0.4740050000000  0.5930870000000  0.5662720000000 1.0
C      1  0.4807840000000  0.5881620000000  0.4287700000000 1.0
C      1  0.4921100000000  0.4270040000000  0.4276130000000 1.0
C      1  0.4308780000000  0.5637690000000  0.4818360000000 1.0
C      1  0.4488550000000  0.4413710000000  0.4474610000000 1.0
C      1  0.5011770000000  0.4615690000000  0.4636070000000 1.0
C      1  0.5725600000000  0.5030820000000  0.4090390000000 1.0
C      1  0.4096390000000  0.5125030000000  0.5602640000000 1.0
C      1  0.6163510000000  0.5344240000000  0.4930200000000 1.0
C      1  0.5684950000000  0.5004200000000  0.5714790000000 1.0
C      1  0.4938940000000  0.4951940000000  0.6014310000000 1.0
C      1  0.3898680000000  0.4963380000000  0.5179490000000 1.0
C      1  0.6154300000000  0.5434540000000  0.4698210000000 1.0
C      1  0.4576470000000  0.4041220000000  0.4835570000000 1.0
C      1  0.5378790000000  0.4690000000000  0.4417680000000 1.0
C      1  0.6020660000000  0.5079520000000  0.5372280000000 1.0
C      1  0.4639990000000  0.5435640000000  0.4472500000000 1.0
C      1  0.5185380000000  0.4481150000000  0.4825660000000 1.0
C      1  0.5138820000000  0.4372450000000  0.4129530000000 1.0
C      1  0.4894290000000  0.5258610000000  0.4372800000000 1.0
C      1  0.4592920000000  0.5061430000000  0.5354880000000 1.0
C      1  0.5638540000000  0.5395410000000  0.5434190000000 1.0
C      1  0.5201120000000  0.6088380000000  0.4533840000000 1.0
C      1  0.4029480000000  0.4673090000000  0.5642270000000 1.0
C      1  0.4775630000000  0.5052830000000  0.4190680000000 1.0
C      1  0.5006290000000  0.5198340000000  0.5165230000000 1.0
C      1  0.5698040000000  0.5368490000000  0.4480730000000 1.0
C      1  0.4846310000000  0.4580100000000  0.5698010000000 1.0
C      1  0.5943800000000  0.4470980000000  0.4625840000000 1.0
C      1  0.4848110000000  0.5612990000000  0.5324080000000 1.0
C      1  0.4079620000000  0.5170510000000  0.4870630000000 1.0
C      1  0.5946210000000  0.4732260000000  0.4467750000000 1.0
C      1  0.5687350000000  0.4372880000000  0.4666600000000 1.0
C      1  0.4685970000000  0.4647870000000  0.4959280000000 1.0
C      1  0.4294440000000  0.5787200000000  0.5370960000000 1.0
C      1  0.4591180000000  0.5745790000000  0.4418140000000 1.0
C      1  0.5233440000000  0.5660330000000  0.4310130000000 1.0
C      1  0.4270050000000  0.5529540000000  0.5518400000000 1.0
C      1  0.4381240000000  0.5278210000000  0.4464960000000 1.0
C      1  0.4385290000000  0.4339980000000  0.5751400000000 1.0
C      1  0.4862600000000  0.5096670000000  0.5387150000000 1.0
C      1  0.5507540000000  0.5422280000000  0.4730930000000 1.0
C      1  0.4951770000000  0.5213950000000  0.3962850000000 1.0
C      1  0.4500070000000  0.5809460000000  0.4685800000000 1.0
C      1  0.5261030000000  0.4980830000000  0.5579550000000 1.0
C      1  0.5325490000000  0.4089520000000  0.4896680000000 1.0
C      1  0.5749050000000  0.4977690000000  0.4891540000000 1.0
C      1  0.4737740000000  0.4773580000000  0.5891410000000 1.0
C      1  0.4567910000000  0.4867510000000  0.4564700000000 1.0
C      1  0.5767020000000  0.4759960000000  0.5575330000000 1.0
C      1  0.4387350000000  0.5722800000000  0.5085170000000 1.0
C      1  0.4625840000000  0.5203200000000  0.4894880000000 1.0
C      1  0.5504450000000  0.5828540000000  0.5313110000000 1.0
C      1  0.4947570000000  0.5235510000000  0.5868660000000 1.0
C      1  0.5399190000000  0.5068810000000  0.5839170000000 1.0
C      1  0.5547230000000  0.4605220000000  0.4204290000000 1.0
C      1  0.3953430000000  0.4781690000000  0.4949500000000 1.0
C      1  0.5643500000000  0.4487560000000  0.5149180000000 1.0
C      1  0.5123770000000  0.4569400000000  0.5097840000000 1.0
C      1  0.4830520000000  0.3988610000000  0.4976340000000 1.0
C      1  0.4802750000000  0.4061350000000  0.5260140000000 1.0
C      1  0.4909360000000  0.4108720000000  0.4537610000000 1.0
C      1  0.5219300000000  0.4888280000000  0.6026620000000 1.0
C      1  0.5073040000000  0.5116090000000  0.4705990000000 1.0
C      1  0.4685120000000  0.4576020000000  0.5432890000000 1.0
C      1  0.4457270000000  0.4342780000000  0.5467520000000 1.0
C      1  0.5449830000000  0.4347740000000  0.5590360000000 1.0
C      1  0.5113040000000  0.4757890000000  0.3980420000000 1.0
C      1  0.6040750000000  0.4631510000000  0.4870140000000 1.0
C      1  0.4274350000000  0.4622850000000  0.5803090000000 1.0
C      1  0.4206430000000  0.4370140000000  0.4893710000000 1.0
C      1  0.4518550000000  0.5253940000000  0.5151890000000 1.0
C      1  0.6104350000000  0.5220820000000  0.5149010000000 1.0
C      1  0.5306820000000  0.4600710000000  0.6074920000000 1.0
C      1  0.5821170000000  0.5204900000000  0.5566640000000 1.0
C      1  0.5515680000000  0.5235060000000  0.5217620000000 1.0
C      1  0.4481610000000  0.4799640000000  0.5397870000000 1.0
C      1  0.4086040000000  0.5340130000000  0.5411010000000 1.0
C      1  0.5616790000000  0.4538350000000  0.5443640000000 1.0
C      1  0.5785980000000  0.4772850000000  0.4224770000000 1.0
C      1  0.5322880000000  0.4544150000000  0.4009680000000 1.0
C      1  0.4882070000000  0.5095530000000  0.4919870000000 1.0
C      1  0.4585540000000  0.5535190000000  0.5206900000000 1.0
C      1  0.5486080000000  0.5724730000000  0.4769960000000 1.0
C      1  0.4381690000000  0.4157030000000  0.5008370000000 1.0
C      1  0.5600050000000  0.4725900000000  0.4931490000000 1.0
C      1  0.5962970000000  0.4787800000000  0.5359740000000 1.0
C      1  0.4758180000000  0.4703440000000  0.4696420000000 1.0
C      1  0.5424960000000  0.4301980000000  0.4712280000000 1.0
C      1  0.5374710000000  0.4445440000000  0.5836160000000 1.0
C      1  0.5464850000000  0.5138640000000  0.4011530000000 1.0
C      1  0.4085660000000  0.4555710000000  0.5085570000000 1.0
C      1  0.4451730000000  0.4851770000000  0.5853030000000 1.0
C      1  0.4516060000000  0.5048590000000  0.4350910000000 1.0
C      1  0.5446800000000  0.4775190000000  0.4688340000000 1.0
C      1  0.4252290000000  0.4515850000000  0.4644780000000 1.0
C      1  0.4623700000000  0.4157770000000  0.4567380000000 1.0
C      1  0.4960670000000  0.5561830000000  0.4843120000000 1.0
C      1  0.5531700000000  0.5862900000000  0.5020830000000 1.0
C      1  0.4909560000000  0.6012850000000  0.4525960000000 1.0
C      1  0.5017420000000  0.5491510000000  0.5127080000000 1.0
C      1  0.4804030000000  0.5871670000000  0.4782690000000 1.0
C      1  0.5623140000000  0.5236540000000  0.4946650000000 1.0
C      1  0.5979740000000  0.4878630000000  0.4722170000000 1.0
C      1  0.5955240000000  0.5409720000000  0.4574010000000 1.0
C      1  0.3946990000000  0.4905210000000  0.5478770000000 1.0
C      1  0.4225420000000  0.5350080000000  0.4706030000000 1.0
C      1  0.5937230000000  0.4586450000000  0.5141250000000 1.0
C      1  0.5020560000000  0.5742120000000  0.4120300000000 1.0
C      1  0.5369940000000  0.6056430000000  0.5187900000000 1.0
C      1  0.4644940000000  0.4244810000000  0.5816870000000 1.0
C      1  0.5283880000000  0.4195010000000  0.5384250000000 1.0
C      1  0.5459730000000  0.5616400000000  0.5514090000000 1.0
C      1  0.4711840000000  0.5425890000000  0.4759030000000 1.0
C      1  0.4982090000000  0.5486620000000  0.4014440000000 1.0
C      1  0.4989160000000  0.5042880000000  0.5616220000000 1.0
C      1  0.4906500000000  0.6032380000000  0.5000490000000 1.0
C      1  0.4888070000000  0.4738120000000  0.4182720000000 1.0
C      1  0.5269380000000  0.4946100000000  0.4825550000000 1.0
C      1  0.4703130000000  0.4471440000000  0.4293020000000 1.0
C      1  0.4845200000000  0.4551630000000  0.5171750000000 1.0
C      1  0.4127060000000  0.4783500000000  0.4706610000000 1.0
C      1  0.5221020000000  0.4852430000000  0.5105720000000 1.0
C      1  0.5371880000000  0.4994620000000  0.5312240000000 1.0
C      1  0.5223370000000  0.5562440000000  0.5680810000000 1.0
C      1  0.4461870000000  0.5374420000000  0.5710310000000 1.0
C      1  0.3988950000000  0.5229470000000  0.5134150000000 1.0
C      1  0.4343450000000  0.5111630000000  0.5766400000000 1.0
C      1  0.5358420000000  0.5833460000000  0.4525760000000 1.0
C      1  0.5183020000000  0.5381130000000  0.4676620000000 1.0
C      1  0.4904140000000  0.5635260000000  0.5621900000000 1.0
C      1  0.5421330000000  0.4225280000000  0.5134940000000 1.0
C      1  0.5233040000000  0.5339430000000  0.5843700000000 1.0
C      1  0.5096620000000  0.6081870000000  0.5119240000000 1.0
C      1  0.5193510000000  0.5037240000000  0.3954390000000 1.0
C      1  0.4903870000000  0.4287430000000  0.5706250000000 1.0
C      1  0.5001100000000  0.4150330000000  0.5450660000000 1.0
C      1  0.4378850000000  0.4919060000000  0.4777260000000 1.0
C      1  0.4288540000000  0.4729270000000  0.5202310000000 1.0
C      1  0.4734490000000  0.5433680000000  0.5763580000000 1.0
C      1  0.5145350000000  0.5403590000000  0.4402850000000 1.0
C      1  0.4460940000000  0.4798470000000  0.5003450000000 1.0
END
