TITL C-883741-3679-391 -5.51945949855034 125000 -23916.5620825171 0 0 158 (C1) n - 1
REM
REM in /home/nfs/bkarasulu/CARBON/AIRSS/Generating-Clusters/ReaxFF-fromJPCA2015/Units_Real/with-SteepDescent/Only-C1/SD-CG/Try1-3A/FIRE-CG
REM
REM
REM
REM
REM
REM ./C.cell (11c1c37f851c82e70ff6c80c92926a4b)
REM
REM compiler GCC version 9.2.1 20190827 (Red Hat 9.2.1-1)
REM options -cpp -mtune=generic -march=x86-64 -g -O0 -fpre-include=/usr/include/finclude/math-vector-fortran.h
REM seed -774833592 1695067703 -2060104639 -802910557 1379088182 -693226092 -1383043470 1909005134 -1835878078 247797107 464014478 1410916437 -1722737184 1074690366 900149790 -704113406 -1685860129 1276308559 715159123 -1624694997 -1225994728 -1748257638 -1844707305 -1151826703 739708824 1463716362 -155781804 2072656115 -1680436694 -1503259041 -1285245071 -232280315 1251872290
REM
CELL 1.54180   50.00000   50.00000   50.00000   90.00000   90.00000   90.00000
LATT -1
SFAC C  
C      1  0.4628610000000  0.4446400000000  0.4899610000000 1.0
C      1  0.5163690000000  0.5061330000000  0.4367940000000 1.0
C      1  0.4243950000000  0.4365870000000  0.4596840000000 1.0
C      1  0.4950950000000  0.5443150000000  0.5266470000000 1.0
C      1  0.4294210000000  0.4161000000000  0.4793190000000 1.0
C      1  0.4241630000000  0.4890480000000  0.4527080000000 1.0
C      1  0.5816890000000  0.5248650000000  0.5709670000000 1.0
C      1  0.5103670000000  0.5772740000000  0.4917660000000 1.0
C      1  0.4205200000000  0.4580730000000  0.5332420000000 1.0
C      1  0.4465950000000  0.4097860000000  0.5281550000000 1.0
C      1  0.4137570000000  0.4771970000000  0.5550840000000 1.0
C      1  0.4483010000000  0.4798470000000  0.4650910000000 1.0
C      1  0.4863310000000  0.6068200000000  0.4632930000000 1.0
C      1  0.5850630000000  0.5018090000000  0.5536230000000 1.0
C      1  0.5018610000000  0.5444180000000  0.4161410000000 1.0
C      1  0.5186550000000  0.4202360000000  0.4396410000000 1.0
C      1  0.5791080000000  0.4436930000000  0.5007350000000 1.0
C      1  0.3941360000000  0.5138510000000  0.5163570000000 1.0
C      1  0.6072990000000  0.5219400000000  0.4719400000000 1.0
C      1  0.4310190000000  0.4863440000000  0.4239020000000 1.0
C      1  0.6034340000000  0.4882000000000  0.4492430000000 1.0
C      1  0.5523410000000  0.5522910000000  0.5339080000000 1.0
C      1  0.5883830000000  0.4654910000000  0.4467880000000 1.0
C      1  0.4350360000000  0.5311250000000  0.5143620000000 1.0
C      1  0.3957750000000  0.5074450000000  0.4882030000000 1.0
C      1  0.4395940000000  0.5566370000000  0.5594730000000 1.0
C      1  0.4489960000000  0.5943060000000  0.5006600000000 1.0
C      1  0.5955950000000  0.4813670000000  0.5033560000000 1.0
C      1  0.4487290000000  0.4537260000000  0.5392290000000 1.0
C      1  0.4371360000000  0.5054020000000  0.5739370000000 1.0
C      1  0.4092110000000  0.5579770000000  0.4916610000000 1.0
C      1  0.4479120000000  0.4629820000000  0.4191000000000 1.0
C      1  0.5478040000000  0.5323390000000  0.4876490000000 1.0
C      1  0.4471950000000  0.5302460000000  0.5761850000000 1.0
C      1  0.5099940000000  0.4348300000000  0.5187690000000 1.0
C      1  0.5185890000000  0.4042710000000  0.4645090000000 1.0
C      1  0.5022580000000  0.4657100000000  0.4371660000000 1.0
C      1  0.5933920000000  0.5518930000000  0.4970890000000 1.0
C      1  0.4105510000000  0.4554000000000  0.4810230000000 1.0
C      1  0.4063810000000  0.5010020000000  0.5391950000000 1.0
C      1  0.5194880000000  0.3905660000000  0.5073910000000 1.0
C      1  0.5716500000000  0.4645850000000  0.4690760000000 1.0
C      1  0.4952990000000  0.4284240000000  0.4250720000000 1.0
C      1  0.5414290000000  0.4408130000000  0.4404520000000 1.0
C      1  0.5935170000000  0.5463710000000  0.4677200000000 1.0
C      1  0.4910790000000  0.4919910000000  0.4417780000000 1.0
C      1  0.4611920000000  0.5764610000000  0.5520060000000 1.0
C      1  0.5388630000000  0.5561460000000  0.5870080000000 1.0
C      1  0.5523530000000  0.5554760000000  0.5052890000000 1.0
C      1  0.4567210000000  0.4186210000000  0.4815760000000 1.0
C      1  0.4918250000000  0.5621270000000  0.4836240000000 1.0
C      1  0.4479440000000  0.4276060000000  0.5517450000000 1.0
C      1  0.4456330000000  0.5096450000000  0.4149480000000 1.0
C      1  0.4924200000000  0.3948710000000  0.4737650000000 1.0
C      1  0.4030520000000  0.4837600000000  0.4726810000000 1.0
C      1  0.4839900000000  0.4767020000000  0.5970730000000 1.0
C      1  0.4891540000000  0.5542410000000  0.5869620000000 1.0
C      1  0.4914370000000  0.4232000000000  0.5680520000000 1.0
C      1  0.4864270000000  0.5748080000000  0.5662610000000 1.0
C      1  0.5401620000000  0.5074800000000  0.5302100000000 1.0
C      1  0.5172340000000  0.3930610000000  0.5367550000000 1.0
C      1  0.4402420000000  0.5727890000000  0.4571480000000 1.0
C      1  0.5485290000000  0.5283500000000  0.5476930000000 1.0
C      1  0.4761350000000  0.4806850000000  0.4636470000000 1.0
C      1  0.5490260000000  0.4618490000000  0.4161550000000 1.0
C      1  0.5114730000000  0.5869520000000  0.5560690000000 1.0
C      1  0.5255600000000  0.4638010000000  0.4530380000000 1.0
C      1  0.4700350000000  0.4066810000000  0.4609350000000 1.0
C      1  0.5133200000000  0.5184380000000  0.6070030000000 1.0
C      1  0.4911820000000  0.4009470000000  0.5481060000000 1.0
C      1  0.4960920000000  0.5192750000000  0.4027720000000 1.0
C      1  0.4686200000000  0.5267390000000  0.4775990000000 1.0
C      1  0.5134040000000  0.4675930000000  0.5806210000000 1.0
C      1  0.4731510000000  0.3977460000000  0.5252550000000 1.0
C      1  0.4841470000000  0.5571470000000  0.4376570000000 1.0
C      1  0.4860230000000  0.4587210000000  0.4809190000000 1.0
C      1  0.5952780000000  0.5016640000000  0.5246340000000 1.0
C      1  0.4158960000000  0.5334620000000  0.4494980000000 1.0
C      1  0.5582450000000  0.5769330000000  0.5473850000000 1.0
C      1  0.5233650000000  0.5037280000000  0.4059200000000 1.0
C      1  0.4988610000000  0.4569350000000  0.4086880000000 1.0
C      1  0.5230970000000  0.4942580000000  0.4789210000000 1.0
C      1  0.5360660000000  0.6017830000000  0.5130360000000 1.0
C      1  0.4721320000000  0.5015920000000  0.4047910000000 1.0
C      1  0.5153390000000  0.4384700000000  0.5731770000000 1.0
C      1  0.4108020000000  0.4433120000000  0.5095400000000 1.0
C      1  0.5562900000000  0.5319100000000  0.5865670000000 1.0
C      1  0.5467970000000  0.4809310000000  0.5179860000000 1.0
C      1  0.4851890000000  0.6062270000000  0.5185350000000 1.0
C      1  0.4884600000000  0.4495390000000  0.5287500000000 1.0
C      1  0.6079720000000  0.4945370000000  0.4785490000000 1.0
C      1  0.4769490000000  0.4739900000000  0.5395870000000 1.0
C      1  0.5261270000000  0.4725990000000  0.4044420000000 1.0
C      1  0.4294660000000  0.5780400000000  0.4842040000000 1.0
C      1  0.4370880000000  0.5342820000000  0.4291160000000 1.0
C      1  0.5394100000000  0.5088310000000  0.5977090000000 1.0
C      1  0.4442940000000  0.4399560000000  0.4381810000000 1.0
C      1  0.4415500000000  0.4662190000000  0.4905400000000 1.0
C      1  0.5369190000000  0.4283140000000  0.5589180000000 1.0
C      1  0.4875570000000  0.5054340000000  0.6022930000000 1.0
C      1  0.5865650000000  0.5252510000000  0.5098900000000 1.0
C      1  0.4691100000000  0.5038540000000  0.4966110000000 1.0
C      1  0.5697650000000  0.5250790000000  0.4282540000000 1.0
C      1  0.5256310000000  0.5140910000000  0.5532570000000 1.0
C      1  0.5292780000000  0.4188990000000  0.5352250000000 1.0
C      1  0.4611860000000  0.4631500000000  0.5849720000000 1.0
C      1  0.4332580000000  0.5058820000000  0.5271660000000 1.0
C      1  0.5695220000000  0.4838220000000  0.4930690000000 1.0
C      1  0.5254020000000  0.4765400000000  0.4992870000000 1.0
C      1  0.4553590000000  0.5426580000000  0.4977440000000 1.0
C      1  0.5112770000000  0.4530020000000  0.4945730000000 1.0
C      1  0.5625440000000  0.4383660000000  0.5516860000000 1.0
C      1  0.5337130000000  0.4907670000000  0.4545090000000 1.0
C      1  0.5360240000000  0.4051410000000  0.4877290000000 1.0
C      1  0.4020790000000  0.5351390000000  0.4748660000000 1.0
C      1  0.5681590000000  0.5130260000000  0.4916200000000 1.0
C      1  0.5747330000000  0.5740840000000  0.5017600000000 1.0
C      1  0.4253890000000  0.4187030000000  0.5084390000000 1.0
C      1  0.4530920000000  0.5582490000000  0.4357460000000 1.0
C      1  0.5636270000000  0.4831380000000  0.5665690000000 1.0
C      1  0.4438310000000  0.4929280000000  0.5041280000000 1.0
C      1  0.5141350000000  0.6015530000000  0.4481850000000 1.0
C      1  0.5203740000000  0.5232740000000  0.4821040000000 1.0
C      1  0.4075140000000  0.5440060000000  0.5183810000000 1.0
C      1  0.4748860000000  0.5282160000000  0.5867120000000 1.0
C      1  0.4149590000000  0.5578860000000  0.5460470000000 1.0
C      1  0.4896740000000  0.5886570000000  0.4416560000000 1.0
C      1  0.5408650000000  0.4838850000000  0.5845930000000 1.0
C      1  0.5863070000000  0.5007800000000  0.4278030000000 1.0
C      1  0.4739780000000  0.6061630000000  0.4902620000000 1.0
C      1  0.4905810000000  0.5409190000000  0.4644980000000 1.0
C      1  0.5117670000000  0.6008030000000  0.5302270000000 1.0
C      1  0.5623270000000  0.5917120000000  0.5222430000000 1.0
C      1  0.4978300000000  0.4825540000000  0.5602650000000 1.0
C      1  0.5714560000000  0.5476670000000  0.4465860000000 1.0
C      1  0.5447320000000  0.5257580000000  0.4129430000000 1.0
C      1  0.5305420000000  0.5491900000000  0.4213470000000 1.0
C      1  0.4780630000000  0.5588670000000  0.5077050000000 1.0
C      1  0.5369710000000  0.5779900000000  0.5676300000000 1.0
C      1  0.4690840000000  0.4232630000000  0.4370670000000 1.0
C      1  0.5605990000000  0.4232880000000  0.4881250000000 1.0
C      1  0.4357420000000  0.4791170000000  0.5756840000000 1.0
C      1  0.4845150000000  0.5212060000000  0.5400310000000 1.0
C      1  0.5108940000000  0.5350130000000  0.5061710000000 1.0
C      1  0.5570820000000  0.4661880000000  0.5441720000000 1.0
C      1  0.5475100000000  0.5636670000000  0.4421170000000 1.0
C      1  0.4909140000000  0.3897520000000  0.5021020000000 1.0
C      1  0.4724030000000  0.4724340000000  0.4063710000000 1.0
C      1  0.4991210000000  0.5105730000000  0.5607300000000 1.0
C      1  0.5310010000000  0.5899460000000  0.4857050000000 1.0
C      1  0.5383560000000  0.5878830000000  0.4558090000000 1.0
C      1  0.5749960000000  0.4740920000000  0.4229750000000 1.0
C      1  0.4656780000000  0.4357140000000  0.5745030000000 1.0
C      1  0.5742610000000  0.4334330000000  0.5260780000000 1.0
C      1  0.5612340000000  0.4380260000000  0.4638720000000 1.0
C      1  0.5141540000000  0.5470180000000  0.5994960000000 1.0
C      1  0.4795350000000  0.5002190000000  0.5225540000000 1.0
C      1  0.4601510000000  0.5942840000000  0.5285710000000 1.0
END
