TITL C-884141-4321-335 69.9008935657821 125000 -29599.4472342734 0 0 199 (C1) n - 1
REM
REM in /home/nfs/bkarasulu/CARBON/AIRSS/Generating-Clusters/ReaxFF-fromJPCA2015/Units_Real/with-SteepDescent/Only-C1/SD-CG/Try1-3A/FIRE-CG
REM
REM
REM
REM
REM
REM ./C.cell (11c1c37f851c82e70ff6c80c92926a4b)
REM
REM compiler GCC version 9.2.1 20190827 (Red Hat 9.2.1-1)
REM options -cpp -mtune=generic -march=x86-64 -g -O0 -fpre-include=/usr/include/finclude/math-vector-fortran.h
REM seed 1529447221 -579606935 -2136063084 522279805 506982173 1407625707 1119423965 -1245975672 -2064412310 -1087013265 367345926 -793123289 -330579676 -952867440 280784005 554646353 -94503813 -1600903041 -276597742 687775358 600592488 149198848 1231105798 952860392 -1891345354 -492512930 -653129600 -1255676969 -713792820 480781548 349917585 -152353379 827069749
REM
CELL 1.54180   50.00000   50.00000   50.00000   90.00000   90.00000   90.00000
LATT -1
SFAC C  
C      1  0.4223670000000  0.5352380000000  0.5700850000000 1.0
C      1  0.5095970000000  0.4245880000000  0.5886560000000 1.0
C      1  0.4733610000000  0.5093690000000  0.4124260000000 1.0
C      1  0.4580010000000  0.4229020000000  0.5330070000000 1.0
C      1  0.6046360000000  0.4770390000000  0.4577770000000 1.0
C      1  0.4288780000000  0.4965020000000  0.4074770000000 1.0
C      1  0.4875450000000  0.5127860000000  0.6001570000000 1.0
C      1  0.5831740000000  0.5333010000000  0.4116430000000 1.0
C      1  0.5813930000000  0.4298290000000  0.4613350000000 1.0
C      1  0.5143960000000  0.5338450000000  0.5146490000000 1.0
C      1  0.5207030000000  0.6046120000000  0.4540540000000 1.0
C      1  0.5379300000000  0.4264700000000  0.4453240000000 1.0
C      1  0.5926430000000  0.4816910000000  0.4308800000000 1.0
C      1  0.4162530000000  0.5764540000000  0.5040960000000 1.0
C      1  0.4871840000000  0.5315250000000  0.5529070000000 1.0
C      1  0.5359920000000  0.3962990000000  0.5148710000000 1.0
C      1  0.5212010000000  0.4839040000000  0.5668080000000 1.0
C      1  0.5163050000000  0.5135440000000  0.4960680000000 1.0
C      1  0.4186860000000  0.4097810000000  0.5231000000000 1.0
C      1  0.4648320000000  0.5609940000000  0.4024940000000 1.0
C      1  0.4018460000000  0.4673140000000  0.4429860000000 1.0
C      1  0.4390520000000  0.4477560000000  0.4230080000000 1.0
C      1  0.4513910000000  0.4944630000000  0.5584640000000 1.0
C      1  0.5207680000000  0.4078940000000  0.5329140000000 1.0
C      1  0.4880050000000  0.4199010000000  0.5269600000000 1.0
C      1  0.4071090000000  0.4324770000000  0.5371760000000 1.0
C      1  0.5066440000000  0.4357890000000  0.4864940000000 1.0
C      1  0.4816640000000  0.4155770000000  0.4158790000000 1.0
C      1  0.4301290000000  0.4273420000000  0.4412450000000 1.0
C      1  0.5958580000000  0.5435780000000  0.5298810000000 1.0
C      1  0.5143760000000  0.4398470000000  0.3801880000000 1.0
C      1  0.5393520000000  0.4896880000000  0.3828230000000 1.0
C      1  0.4992680000000  0.5576450000000  0.5504180000000 1.0
C      1  0.5162720000000  0.4527330000000  0.5322910000000 1.0
C      1  0.4555610000000  0.6004650000000  0.5026280000000 1.0
C      1  0.4549740000000  0.4683210000000  0.4767740000000 1.0
C      1  0.4829010000000  0.6031800000000  0.4933060000000 1.0
C      1  0.4907530000000  0.4451270000000  0.5414370000000 1.0
C      1  0.5629260000000  0.4095840000000  0.5082260000000 1.0
C      1  0.4274370000000  0.5658040000000  0.4407450000000 1.0
C      1  0.5470690000000  0.5432250000000  0.4438590000000 1.0
C      1  0.4988830000000  0.4644910000000  0.4856700000000 1.0
C      1  0.5209720000000  0.5632070000000  0.4091030000000 1.0
C      1  0.4980840000000  0.5704230000000  0.4234420000000 1.0
C      1  0.4745590000000  0.5834370000000  0.4186880000000 1.0
C      1  0.6045500000000  0.4866190000000  0.5213270000000 1.0
C      1  0.5375780000000  0.6175070000000  0.4709990000000 1.0
C      1  0.5132280000000  0.4808000000000  0.5371710000000 1.0
C      1  0.5399680000000  0.4934940000000  0.4492640000000 1.0
C      1  0.4373910000000  0.4867820000000  0.4640020000000 1.0
C      1  0.5549210000000  0.4800410000000  0.5994410000000 1.0
C      1  0.5011230000000  0.5152440000000  0.6263540000000 1.0
C      1  0.4427830000000  0.3992730000000  0.5386810000000 1.0
C      1  0.5021220000000  0.6117100000000  0.5624180000000 1.0
C      1  0.5589870000000  0.5245570000000  0.3970170000000 1.0
C      1  0.5273680000000  0.6084580000000  0.5500960000000 1.0
C      1  0.5412810000000  0.4215770000000  0.5479440000000 1.0
C      1  0.5612350000000  0.5487910000000  0.5913840000000 1.0
C      1  0.5331640000000  0.4753220000000  0.4281400000000 1.0
C      1  0.5042330000000  0.4859700000000  0.6344060000000 1.0
C      1  0.4023890000000  0.4271240000000  0.4790080000000 1.0
C      1  0.4011410000000  0.5134750000000  0.4339490000000 1.0
C      1  0.4613300000000  0.4667020000000  0.5054440000000 1.0
C      1  0.4492470000000  0.4507420000000  0.5745720000000 1.0
C      1  0.4743600000000  0.4402750000000  0.5663590000000 1.0
C      1  0.5713470000000  0.4610350000000  0.4213890000000 1.0
C      1  0.5140610000000  0.4392960000000  0.4571150000000 1.0
C      1  0.4521510000000  0.4127040000000  0.4550400000000 1.0
C      1  0.4354780000000  0.5060330000000  0.5134640000000 1.0
C      1  0.5887470000000  0.4469200000000  0.5357580000000 1.0
C      1  0.5354050000000  0.5195470000000  0.3851640000000 1.0
C      1  0.5475260000000  0.5053320000000  0.6057250000000 1.0
C      1  0.4795370000000  0.4144870000000  0.4980000000000 1.0
C      1  0.4966000000000  0.4987490000000  0.5766200000000 1.0
C      1  0.5217350000000  0.4677200000000  0.3727490000000 1.0
C      1  0.4965620000000  0.5221000000000  0.4444560000000 1.0
C      1  0.5132740000000  0.5422260000000  0.3906160000000 1.0
C      1  0.4475480000000  0.5963940000000  0.5328160000000 1.0
C      1  0.4871950000000  0.5086570000000  0.4966000000000 1.0
C      1  0.5340950000000  0.4318250000000  0.5746330000000 1.0
C      1  0.4867390000000  0.5710220000000  0.5266450000000 1.0
C      1  0.5144330000000  0.5397980000000  0.6186960000000 1.0
C      1  0.5330840000000  0.4596740000000  0.5881810000000 1.0
C      1  0.5637900000000  0.4628340000000  0.4767960000000 1.0
C      1  0.5886840000000  0.5073510000000  0.4216210000000 1.0
C      1  0.5498460000000  0.4717110000000  0.4044200000000 1.0
C      1  0.4410540000000  0.5867010000000  0.4557590000000 1.0
C      1  0.4677800000000  0.5528960000000  0.5164360000000 1.0
C      1  0.4895550000000  0.5985300000000  0.4634560000000 1.0
C      1  0.4439580000000  0.5381660000000  0.4723180000000 1.0
C      1  0.4332320000000  0.4904200000000  0.5359970000000 1.0
C      1  0.4702740000000  0.5363610000000  0.5976510000000 1.0
C      1  0.5686860000000  0.5424160000000  0.5212210000000 1.0
C      1  0.4368460000000  0.4603010000000  0.6143930000000 1.0
C      1  0.5367500000000  0.5877770000000  0.5711620000000 1.0
C      1  0.6026140000000  0.5520470000000  0.4788230000000 1.0
C      1  0.4035760000000  0.5118920000000  0.5664230000000 1.0
C      1  0.4815810000000  0.3746330000000  0.4815890000000 1.0
C      1  0.5875400000000  0.5679860000000  0.4562780000000 1.0
C      1  0.4776090000000  0.3852710000000  0.5067000000000 1.0
C      1  0.6093570000000  0.5252860000000  0.4767000000000 1.0
C      1  0.5880960000000  0.5384710000000  0.5845890000000 1.0
C      1  0.4161240000000  0.5544430000000  0.5489480000000 1.0
C      1  0.5141630000000  0.5705760000000  0.5781340000000 1.0
C      1  0.5413150000000  0.5326800000000  0.6082660000000 1.0
C      1  0.4044590000000  0.4730180000000  0.5054660000000 1.0
C      1  0.5019320000000  0.5917630000000  0.5128650000000 1.0
C      1  0.4282640000000  0.4752500000000  0.4332190000000 1.0
C      1  0.5434050000000  0.5648980000000  0.4261860000000 1.0
C      1  0.3977840000000  0.5539190000000  0.5023180000000 1.0
C      1  0.4660340000000  0.5946710000000  0.4439160000000 1.0
C      1  0.4886070000000  0.4794320000000  0.5087090000000 1.0
C      1  0.5204620000000  0.3860880000000  0.4694090000000 1.0
C      1  0.3861470000000  0.5176180000000  0.5421260000000 1.0
C      1  0.4901000000000  0.5556790000000  0.6093110000000 1.0
C      1  0.6089740000000  0.4594160000000  0.5170720000000 1.0
C      1  0.4761760000000  0.4024790000000  0.4415900000000 1.0
C      1  0.5784350000000  0.5815600000000  0.5088650000000 1.0
C      1  0.5273050000000  0.4434610000000  0.5072460000000 1.0
C      1  0.5664770000000  0.4111250000000  0.4790690000000 1.0
C      1  0.4633400000000  0.4379880000000  0.4092170000000 1.0
C      1  0.5288560000000  0.6007680000000  0.5217980000000 1.0
C      1  0.4353330000000  0.5899950000000  0.4854900000000 1.0
C      1  0.5907150000000  0.4556230000000  0.4715580000000 1.0
C      1  0.5827840000000  0.5566830000000  0.4306350000000 1.0
C      1  0.4544950000000  0.5150790000000  0.4582880000000 1.0
C      1  0.4845090000000  0.4136340000000  0.5764240000000 1.0
C      1  0.5626540000000  0.6094010000000  0.4816410000000 1.0
C      1  0.4921090000000  0.5674190000000  0.4712410000000 1.0
C      1  0.5229230000000  0.3899920000000  0.4961720000000 1.0
C      1  0.5089330000000  0.4499660000000  0.6036170000000 1.0
C      1  0.4935410000000  0.5519000000000  0.4470390000000 1.0
C      1  0.5669860000000  0.5897990000000  0.4596440000000 1.0
C      1  0.4195150000000  0.4601240000000  0.5295470000000 1.0
C      1  0.4797990000000  0.6034990000000  0.5779650000000 1.0
C      1  0.5944480000000  0.5131080000000  0.5739050000000 1.0
C      1  0.5343620000000  0.4977180000000  0.5254160000000 1.0
C      1  0.4245320000000  0.4607220000000  0.5846450000000 1.0
C      1  0.4478740000000  0.4984190000000  0.5875830000000 1.0
C      1  0.4922700000000  0.3827080000000  0.4568570000000 1.0
C      1  0.4435960000000  0.5278910000000  0.5890360000000 1.0
C      1  0.4050810000000  0.4389950000000  0.4515210000000 1.0
C      1  0.5739900000000  0.4873220000000  0.5744500000000 1.0
C      1  0.5821970000000  0.4640610000000  0.5567990000000 1.0
C      1  0.5264700000000  0.5275870000000  0.4741840000000 1.0
C      1  0.3960510000000  0.5431090000000  0.5304090000000 1.0
C      1  0.4936840000000  0.5810540000000  0.5952530000000 1.0
C      1  0.3987340000000  0.4518100000000  0.4899760000000 1.0
C      1  0.4096720000000  0.4847540000000  0.5759280000000 1.0
C      1  0.4519640000000  0.4150770000000  0.4839140000000 1.0
C      1  0.4184390000000  0.5474960000000  0.4612990000000 1.0
C      1  0.5691800000000  0.5071710000000  0.4892870000000 1.0
C      1  0.4892220000000  0.4680750000000  0.6164440000000 1.0
C      1  0.4788760000000  0.5056400000000  0.5537990000000 1.0
C      1  0.3945980000000  0.5099020000000  0.4751730000000 1.0
C      1  0.4472810000000  0.4478870000000  0.5230790000000 1.0
C      1  0.4183860000000  0.5233150000000  0.4147580000000 1.0
C      1  0.3896300000000  0.4938790000000  0.4506390000000 1.0
C      1  0.5561960000000  0.4794470000000  0.5189190000000 1.0
C      1  0.5568920000000  0.5989790000000  0.5096660000000 1.0
C      1  0.5440420000000  0.4026960000000  0.4615660000000 1.0
C      1  0.5433480000000  0.5886060000000  0.4425060000000 1.0
C      1  0.5638610000000  0.5344310000000  0.4934490000000 1.0
C      1  0.4614430000000  0.5238260000000  0.5125600000000 1.0
C      1  0.6002820000000  0.5638800000000  0.5073440000000 1.0
C      1  0.5641950000000  0.4382570000000  0.4382630000000 1.0
C      1  0.6207010000000  0.4807130000000  0.5012040000000 1.0
C      1  0.5788600000000  0.4959620000000  0.5142680000000 1.0
C      1  0.4630850000000  0.5998970000000  0.5552850000000 1.0
C      1  0.4826300000000  0.5064530000000  0.4653350000000 1.0
C      1  0.4595760000000  0.4773580000000  0.6077830000000 1.0
C      1  0.4249220000000  0.4137550000000  0.4940670000000 1.0
C      1  0.4498710000000  0.5452540000000  0.4977000000000 1.0
C      1  0.5548240000000  0.5652640000000  0.5686920000000 1.0
C      1  0.3947350000000  0.5390300000000  0.4773810000000 1.0
C      1  0.5218370000000  0.5513930000000  0.5317620000000 1.0
C      1  0.4822710000000  0.4735570000000  0.4630810000000 1.0
C      1  0.4249740000000  0.5770180000000  0.5321920000000 1.0
C      1  0.5485770000000  0.5467770000000  0.5421740000000 1.0
C      1  0.4786840000000  0.3900030000000  0.5591880000000 1.0
C      1  0.5465520000000  0.4994000000000  0.5643080000000 1.0
C      1  0.5058600000000  0.4689930000000  0.4218830000000 1.0
C      1  0.5581160000000  0.4892100000000  0.4696380000000 1.0
C      1  0.4651700000000  0.3807090000000  0.5345080000000 1.0
C      1  0.4182190000000  0.4962140000000  0.4897270000000 1.0
C      1  0.4527110000000  0.4966670000000  0.3913540000000 1.0
C      1  0.6025210000000  0.5353150000000  0.5573570000000 1.0
C      1  0.5057630000000  0.4182270000000  0.3972040000000 1.0
C      1  0.4952450000000  0.4561610000000  0.4429300000000 1.0
C      1  0.4397480000000  0.5467780000000  0.4201670000000 1.0
C      1  0.5511670000000  0.4574050000000  0.5015570000000 1.0
C      1  0.4579020000000  0.5257240000000  0.4311640000000 1.0
C      1  0.5471480000000  0.5469850000000  0.4730220000000 1.0
C      1  0.5664780000000  0.4251820000000  0.5316800000000 1.0
C      1  0.5271210000000  0.5197140000000  0.4467940000000 1.0
C      1  0.4889910000000  0.4877170000000  0.4180070000000 1.0
C      1  0.4856510000000  0.5463210000000  0.3905760000000 1.0
C      1  0.5453010000000  0.5172630000000  0.5437310000000 1.0
C      1  0.6156720000000  0.4968410000000  0.4762690000000 1.0
END
