TITL C-883734-4173-341 -0.157959140981182 125000 -6594.89573070291 0 0 46 (C1) n - 1
REM
REM in /home/nfs/bkarasulu/CARBON/AIRSS/Generating-Clusters/ReaxFF-fromJPCA2015/Units_Real/with-SteepDescent/Only-C1/SD-CG/Try1-3A/FIRE-CG
REM
REM
REM
REM
REM
REM ./C.cell (11c1c37f851c82e70ff6c80c92926a4b)
REM
REM compiler GCC version 9.2.1 20190827 (Red Hat 9.2.1-1)
REM options -cpp -mtune=generic -march=x86-64 -g -O0 -fpre-include=/usr/include/finclude/math-vector-fortran.h
REM seed 608733169 -1606574779 1338184829 1245538498 1571748622 -1158314689 -650457725 -612364266 -1475990019 -468252203 -2004378667 -1406487007 1655780862 -1505086911 -1713540396 781386769 726223934 395774012 5906314 1899537918 -53466051 -480925778 2141004468 -1568107620 -1641519771 -1017616244 2073990870 -2103419119 2122643323 -131622950 872188895 -334009980 703511984
REM
CELL 1.54180   50.00000   50.00000   50.00000   90.00000   90.00000   90.00000
LATT -1
SFAC C  
C      1  0.4671160000000  0.4991050000000  0.5010930000000 1.0
C      1  0.5373160000000  0.4536690000000  0.5440350000000 1.0
C      1  0.5015380000000  0.4676900000000  0.4366460000000 1.0
C      1  0.5488190000000  0.5182750000000  0.5386810000000 1.0
C      1  0.5113370000000  0.4903050000000  0.5759600000000 1.0
C      1  0.5494510000000  0.5291580000000  0.4467340000000 1.0
C      1  0.5395130000000  0.4427950000000  0.4930710000000 1.0
C      1  0.5364710000000  0.5061290000000  0.4492810000000 1.0
C      1  0.4300050000000  0.5103840000000  0.5115110000000 1.0
C      1  0.5589850000000  0.5102070000000  0.5123610000000 1.0
C      1  0.5063530000000  0.5454950000000  0.5214300000000 1.0
C      1  0.4768500000000  0.4657570000000  0.4455740000000 1.0
C      1  0.4277910000000  0.4904190000000  0.4957280000000 1.0
C      1  0.5403990000000  0.5338510000000  0.4192300000000 1.0
C      1  0.4549770000000  0.5043350000000  0.5252060000000 1.0
C      1  0.4556090000000  0.4651610000000  0.4602520000000 1.0
C      1  0.4957140000000  0.5604360000000  0.4680410000000 1.0
C      1  0.5233960000000  0.5406190000000  0.3970280000000 1.0
C      1  0.5465150000000  0.5469420000000  0.4732170000000 1.0
C      1  0.5117760000000  0.4479280000000  0.4915340000000 1.0
C      1  0.4607320000000  0.4546290000000  0.4997450000000 1.0
C      1  0.4824320000000  0.4943230000000  0.5856450000000 1.0
C      1  0.4588910000000  0.4850580000000  0.5711390000000 1.0
C      1  0.5462740000000  0.4677650000000  0.4783060000000 1.0
C      1  0.5017480000000  0.5506450000000  0.4183590000000 1.0
C      1  0.4867720000000  0.4460670000000  0.5374240000000 1.0
C      1  0.5237030000000  0.4826210000000  0.4591900000000 1.0
C      1  0.5009670000000  0.4880880000000  0.4803090000000 1.0
C      1  0.4563990000000  0.5348650000000  0.5316920000000 1.0
C      1  0.4838780000000  0.5114330000000  0.4822200000000 1.0
C      1  0.5339130000000  0.5426790000000  0.5241960000000 1.0
C      1  0.4548930000000  0.4792720000000  0.5435340000000 1.0
C      1  0.4394540000000  0.4659750000000  0.4835830000000 1.0
C      1  0.5289800000000  0.4746930000000  0.5607370000000 1.0
C      1  0.5570710000000  0.4801130000000  0.5023250000000 1.0
C      1  0.4579120000000  0.5358920000000  0.5606220000000 1.0
C      1  0.4833620000000  0.5414380000000  0.4866110000000 1.0
C      1  0.5499220000000  0.5359260000000  0.4998240000000 1.0
C      1  0.4942400000000  0.5563080000000  0.4388050000000 1.0
C      1  0.4798750000000  0.5477240000000  0.5155080000000 1.0
C      1  0.5518110000000  0.4561750000000  0.5178520000000 1.0
C      1  0.4610060000000  0.5132740000000  0.5805910000000 1.0
C      1  0.4889920000000  0.4617310000000  0.4893680000000 1.0
C      1  0.5107130000000  0.4432610000000  0.5435550000000 1.0
C      1  0.4611200000000  0.4546980000000  0.5292390000000 1.0
C      1  0.5250120000000  0.5666890000000  0.4730060000000 1.0
END
