TITL C-883727-9645-77 -5.82900350758674 125000 -8408.17939167453 0 0 58 (C1) n - 1
REM
REM in /home/nfs/bkarasulu/CARBON/AIRSS/Generating-Clusters/ReaxFF-fromJPCA2015/Units_Real/with-SteepDescent/Only-C1/SD-CG/Try1-3A/FIRE-CG
REM
REM
REM
REM
REM
REM ./C.cell (11c1c37f851c82e70ff6c80c92926a4b)
REM
REM compiler GCC version 9.2.1 20190827 (Red Hat 9.2.1-1)
REM options -cpp -mtune=generic -march=x86-64 -g -O0 -fpre-include=/usr/include/finclude/math-vector-fortran.h
REM seed -2126898291 -972559149 2129433787 -1505385324 1034453353 -127189215 -1075954123 509348469 1853904740 -1419475655 1871066436 712194493 2070650549 -1277432716 -1428418300 1958525994 1597397167 59899075 -1066637192 -656904810 57859214 -751468993 -1286273716 -747054730 1610587320 -1958568548 2078744026 -524583902 -1141607636 770974318 112831842 1225412247 993409716
REM
CELL 1.54180   50.00000   50.00000   50.00000   90.00000   90.00000   90.00000
LATT -1
SFAC C  
C      1  0.5589570000000  0.4584680000000  0.5045670000000 1.0
C      1  0.4458650000000  0.4902980000000  0.4516940000000 1.0
C      1  0.5662210000000  0.5566760000000  0.4832520000000 1.0
C      1  0.4752810000000  0.5268890000000  0.4512360000000 1.0
C      1  0.4818540000000  0.5698910000000  0.4812930000000 1.0
C      1  0.5599930000000  0.4930180000000  0.4683720000000 1.0
C      1  0.5186770000000  0.5097340000000  0.5283420000000 1.0
C      1  0.5347140000000  0.4680920000000  0.5516900000000 1.0
C      1  0.5624050000000  0.4853730000000  0.5156270000000 1.0
C      1  0.4947770000000  0.4674890000000  0.5297640000000 1.0
C      1  0.5209580000000  0.4495460000000  0.5341480000000 1.0
C      1  0.5210590000000  0.5222510000000  0.5678370000000 1.0
C      1  0.5366240000000  0.5144170000000  0.4308330000000 1.0
C      1  0.4445520000000  0.4702800000000  0.5289650000000 1.0
C      1  0.4749140000000  0.5565030000000  0.5255220000000 1.0
C      1  0.5571150000000  0.4863770000000  0.5450190000000 1.0
C      1  0.5349300000000  0.4402610000000  0.5109440000000 1.0
C      1  0.5110800000000  0.4357240000000  0.4953640000000 1.0
C      1  0.5234030000000  0.4671830000000  0.4562410000000 1.0
C      1  0.4766190000000  0.4467780000000  0.4647090000000 1.0
C      1  0.4847450000000  0.4275090000000  0.5068690000000 1.0
C      1  0.4987910000000  0.5021590000000  0.5721240000000 1.0
C      1  0.4637420000000  0.4358790000000  0.4887550000000 1.0
C      1  0.4697330000000  0.5230950000000  0.4967580000000 1.0
C      1  0.4357610000000  0.4924240000000  0.4927280000000 1.0
C      1  0.5050560000000  0.4936000000000  0.4845040000000 1.0
C      1  0.4850890000000  0.5131080000000  0.4756890000000 1.0
C      1  0.5037460000000  0.5531380000000  0.5231950000000 1.0
C      1  0.5200950000000  0.5356840000000  0.5409450000000 1.0
C      1  0.5535120000000  0.5346380000000  0.4406740000000 1.0
C      1  0.4678430000000  0.4357510000000  0.5303060000000 1.0
C      1  0.4685000000000  0.4628310000000  0.5444820000000 1.0
C      1  0.5446920000000  0.5074880000000  0.5605860000000 1.0
C      1  0.5545400000000  0.5074440000000  0.4954330000000 1.0
C      1  0.5469520000000  0.5410350000000  0.4963440000000 1.0
C      1  0.5199610000000  0.5532370000000  0.4980840000000 1.0
C      1  0.4621670000000  0.5674190000000  0.5011800000000 1.0
C      1  0.4408550000000  0.4991230000000  0.5223330000000 1.0
C      1  0.5073510000000  0.5633880000000  0.4731800000000 1.0
C      1  0.5642100000000  0.5487640000000  0.4597910000000 1.0
C      1  0.4665130000000  0.5113470000000  0.5232480000000 1.0
C      1  0.4472260000000  0.4456800000000  0.5124160000000 1.0
C      1  0.4736210000000  0.4959260000000  0.5597850000000 1.0
C      1  0.5105180000000  0.4872660000000  0.5469520000000 1.0
C      1  0.5063250000000  0.4478770000000  0.4677660000000 1.0
C      1  0.4877730000000  0.4766500000000  0.5002610000000 1.0
C      1  0.4609630000000  0.4661220000000  0.4472890000000 1.0
C      1  0.4967660000000  0.5475950000000  0.4481460000000 1.0
C      1  0.4613810000000  0.4813870000000  0.4909450000000 1.0
C      1  0.4573070000000  0.5344070000000  0.5375230000000 1.0
C      1  0.5256630000000  0.5044760000000  0.5012460000000 1.0
C      1  0.4472340000000  0.5317520000000  0.4599310000000 1.0
C      1  0.4659840000000  0.5222990000000  0.5619300000000 1.0
C      1  0.4504820000000  0.5431860000000  0.4872910000000 1.0
C      1  0.5134500000000  0.5293850000000  0.4349880000000 1.0
C      1  0.5592620000000  0.4671440000000  0.4778130000000 1.0
C      1  0.5411410000000  0.4863900000000  0.4461510000000 1.0
C      1  0.4310520000000  0.5081460000000  0.4669410000000 1.0
END
