TITL C-883726-8501-102 -5.80177368657532 125000 -16998.8432259072 0 0 113 (C1) n - 1
REM
REM in /home/nfs/bkarasulu/CARBON/AIRSS/Generating-Clusters/ReaxFF-fromJPCA2015/Units_Real/with-SteepDescent/Only-C1/SD-CG/Try1-3A/FIRE-CG
REM
REM
REM
REM
REM
REM ./C.cell (11c1c37f851c82e70ff6c80c92926a4b)
REM
REM compiler GCC version 9.2.1 20190827 (Red Hat 9.2.1-1)
REM options -cpp -mtune=generic -march=x86-64 -g -O0 -fpre-include=/usr/include/finclude/math-vector-fortran.h
REM seed 1404349729 -862825657 827616466 1973155352 1311766436 1037473007 -391077246 -324457818 227569578 1513931114 -747505280 1769626649 1282412495 -2027302292 -1473021050 2118298167 -550566514 281857110 833602085 -1912899119 -1889273335 1920831759 -9751453 995302434 -1235906783 379875235 -221551090 -2080218889 -1552367091 -1076944468 -65134042 1934654794 1531747074
REM
CELL 1.54180   50.00000   50.00000   50.00000   90.00000   90.00000   90.00000
LATT -1
SFAC C  
C      1  0.4816210000000  0.4832830000000  0.5028130000000 1.0
C      1  0.5463180000000  0.5681480000000  0.4544960000000 1.0
C      1  0.4324440000000  0.4776410000000  0.5621810000000 1.0
C      1  0.5371480000000  0.4112300000000  0.5324800000000 1.0
C      1  0.4654000000000  0.5149840000000  0.5401550000000 1.0
C      1  0.4763770000000  0.5425490000000  0.5293450000000 1.0
C      1  0.6057580000000  0.4970420000000  0.5085510000000 1.0
C      1  0.5308650000000  0.5289040000000  0.4272270000000 1.0
C      1  0.5271490000000  0.5014070000000  0.4312800000000 1.0
C      1  0.5666080000000  0.4182250000000  0.5045870000000 1.0
C      1  0.4666480000000  0.5482240000000  0.5026330000000 1.0
C      1  0.5313610000000  0.4257570000000  0.4416770000000 1.0
C      1  0.5499990000000  0.5376640000000  0.4528940000000 1.0
C      1  0.5660570000000  0.4698340000000  0.4462510000000 1.0
C      1  0.5555420000000  0.4952150000000  0.4367790000000 1.0
C      1  0.4467020000000  0.5691890000000  0.4975470000000 1.0
C      1  0.4904270000000  0.4168090000000  0.5465160000000 1.0
C      1  0.5066540000000  0.5326080000000  0.5923990000000 1.0
C      1  0.4976650000000  0.4749870000000  0.4622760000000 1.0
C      1  0.5056370000000  0.5825260000000  0.5299000000000 1.0
C      1  0.4652490000000  0.5047120000000  0.5882260000000 1.0
C      1  0.5449330000000  0.5262940000000  0.4807800000000 1.0
C      1  0.5106830000000  0.4937360000000  0.5287720000000 1.0
C      1  0.5093720000000  0.4039060000000  0.5302380000000 1.0
C      1  0.5336650000000  0.5136940000000  0.5254230000000 1.0
C      1  0.5759480000000  0.4395630000000  0.4955040000000 1.0
C      1  0.4945010000000  0.5589670000000  0.5448220000000 1.0
C      1  0.5358820000000  0.4805020000000  0.5727810000000 1.0
C      1  0.4604040000000  0.4457680000000  0.5300110000000 1.0
C      1  0.5451400000000  0.4013230000000  0.5060040000000 1.0
C      1  0.5718250000000  0.5653500000000  0.5144700000000 1.0
C      1  0.5015610000000  0.3966010000000  0.5025440000000 1.0
C      1  0.5191700000000  0.4499200000000  0.5436930000000 1.0
C      1  0.5913640000000  0.4858110000000  0.5295110000000 1.0
C      1  0.4460860000000  0.5029190000000  0.5178170000000 1.0
C      1  0.5245510000000  0.5822670000000  0.4413720000000 1.0
C      1  0.4469340000000  0.4598680000000  0.4862160000000 1.0
C      1  0.4168350000000  0.5053110000000  0.5192590000000 1.0
C      1  0.5324850000000  0.5435430000000  0.5832460000000 1.0
C      1  0.4184110000000  0.5013400000000  0.4568660000000 1.0
C      1  0.4063120000000  0.4789870000000  0.5041850000000 1.0
C      1  0.5082760000000  0.5419820000000  0.4146290000000 1.0
C      1  0.4805640000000  0.5745040000000  0.4204600000000 1.0
C      1  0.5561160000000  0.5288640000000  0.5749800000000 1.0
C      1  0.4247130000000  0.4748350000000  0.4528850000000 1.0
C      1  0.5133080000000  0.5907930000000  0.4668730000000 1.0
C      1  0.4779500000000  0.4072800000000  0.4873180000000 1.0
C      1  0.4835800000000  0.5267730000000  0.4083640000000 1.0
C      1  0.4237100000000  0.5250490000000  0.5635460000000 1.0
C      1  0.5252400000000  0.4652940000000  0.4703590000000 1.0
C      1  0.4860690000000  0.5938740000000  0.4795860000000 1.0
C      1  0.5031060000000  0.5224020000000  0.4818290000000 1.0
C      1  0.4583510000000  0.4790440000000  0.5770460000000 1.0
C      1  0.5079690000000  0.5719480000000  0.4183560000000 1.0
C      1  0.4573750000000  0.5838000000000  0.4746470000000 1.0
C      1  0.5250600000000  0.5424640000000  0.4916560000000 1.0
C      1  0.4131400000000  0.4647410000000  0.5272160000000 1.0
C      1  0.4620340000000  0.4772450000000  0.4176200000000 1.0
C      1  0.4838370000000  0.4977670000000  0.4150840000000 1.0
C      1  0.5273050000000  0.5415870000000  0.5194460000000 1.0
C      1  0.4856640000000  0.4604080000000  0.5166500000000 1.0
C      1  0.4771000000000  0.5334440000000  0.4773290000000 1.0
C      1  0.5441700000000  0.5046320000000  0.4983760000000 1.0
C      1  0.4109050000000  0.5381990000000  0.5140460000000 1.0
C      1  0.4526740000000  0.5210150000000  0.5677480000000 1.0
C      1  0.5420100000000  0.4528090000000  0.4496980000000 1.0
C      1  0.5328480000000  0.5688450000000  0.5289480000000 1.0
C      1  0.4551650000000  0.4858370000000  0.4984000000000 1.0
C      1  0.5072840000000  0.5527950000000  0.5711900000000 1.0
C      1  0.5682070000000  0.4642850000000  0.4913940000000 1.0
C      1  0.4542600000000  0.5677520000000  0.4252540000000 1.0
C      1  0.4837580000000  0.4261340000000  0.4658440000000 1.0
C      1  0.4856760000000  0.4703650000000  0.5659700000000 1.0
C      1  0.5730400000000  0.5192520000000  0.4431000000000 1.0
C      1  0.5399730000000  0.4753480000000  0.4944570000000 1.0
C      1  0.4996990000000  0.4934050000000  0.4848000000000 1.0
C      1  0.4519090000000  0.4634370000000  0.4414200000000 1.0
C      1  0.4221700000000  0.5278510000000  0.4499110000000 1.0
C      1  0.4148640000000  0.5401730000000  0.5408230000000 1.0
C      1  0.5120080000000  0.4158550000000  0.4622620000000 1.0
C      1  0.5760280000000  0.4811620000000  0.5524650000000 1.0
C      1  0.6022020000000  0.4914410000000  0.4773880000000 1.0
C      1  0.4709930000000  0.4531850000000  0.4621990000000 1.0
C      1  0.4327490000000  0.4552220000000  0.5441800000000 1.0
C      1  0.4582210000000  0.5396550000000  0.4148020000000 1.0
C      1  0.4491560000000  0.5219640000000  0.4368700000000 1.0
C      1  0.5232230000000  0.3995870000000  0.4851510000000 1.0
C      1  0.4998250000000  0.4404720000000  0.5583490000000 1.0
C      1  0.6000540000000  0.5234620000000  0.5165100000000 1.0
C      1  0.5086420000000  0.4815940000000  0.5833790000000 1.0
C      1  0.4423320000000  0.5723960000000  0.4530220000000 1.0
C      1  0.5717800000000  0.5087800000000  0.5627420000000 1.0
C      1  0.5531940000000  0.4617210000000  0.5604150000000 1.0
C      1  0.5846940000000  0.4689960000000  0.4692460000000 1.0
C      1  0.4568720000000  0.4119070000000  0.5072250000000 1.0
C      1  0.4976740000000  0.4972130000000  0.4414480000000 1.0
C      1  0.4950440000000  0.5055960000000  0.5925000000000 1.0
C      1  0.5880230000000  0.5458050000000  0.5163020000000 1.0
C      1  0.4650830000000  0.4173940000000  0.5352000000000 1.0
C      1  0.5356760000000  0.5753940000000  0.4812620000000 1.0
C      1  0.4949180000000  0.5891060000000  0.5051540000000 1.0
C      1  0.4728440000000  0.5178640000000  0.4536510000000 1.0
C      1  0.5912630000000  0.5094270000000  0.4606920000000 1.0
C      1  0.4221850000000  0.5543630000000  0.4640900000000 1.0
C      1  0.4163150000000  0.4999320000000  0.5505200000000 1.0
C      1  0.4462190000000  0.4386390000000  0.5056670000000 1.0
C      1  0.4182220000000  0.4672270000000  0.4800600000000 1.0
C      1  0.4202770000000  0.5565960000000  0.4930860000000 1.0
C      1  0.5444360000000  0.5081720000000  0.5590720000000 1.0
C      1  0.5500700000000  0.5807510000000  0.5082340000000 1.0
C      1  0.4885480000000  0.4944080000000  0.5460730000000 1.0
C      1  0.5142170000000  0.4653920000000  0.5197070000000 1.0
C      1  0.5402430000000  0.4364800000000  0.5500870000000 1.0
END
