TITL C-884135-4325-255 1.10309954849958 125000 -29644.8878977766 0 0 196 (C1) n - 1
REM
REM in /home/nfs/bkarasulu/CARBON/AIRSS/Generating-Clusters/ReaxFF-fromJPCA2015/Units_Real/with-SteepDescent/Only-C1/SD-CG/Try1-3A/FIRE-CG
REM
REM
REM
REM
REM
REM ./C.cell (11c1c37f851c82e70ff6c80c92926a4b)
REM
REM compiler GCC version 9.2.1 20190827 (Red Hat 9.2.1-1)
REM options -cpp -mtune=generic -march=x86-64 -g -O0 -fpre-include=/usr/include/finclude/math-vector-fortran.h
REM seed -884035102 1880970666 180882672 1093555622 -489401554 722868490 2679960 496696421 -1874372922 1005208148 -728867319 676787296 -1167711042 506493657 -1474530221 1417475561 127293815 605018832 -638510079 1785994473 -579265262 1589922950 963049359 889997175 -1407328400 -176071820 160241353 683993340 -1612884076 -187665308 -1591303710 1337057035 486341263
REM
CELL 1.54180   50.00000   50.00000   50.00000   90.00000   90.00000   90.00000
LATT -1
SFAC C  
C      1  0.4368630000000  0.5346330000000  0.4176180000000 1.0
C      1  0.5205740000000  0.5311600000000  0.5100750000000 1.0
C      1  0.4619630000000  0.3982240000000  0.5025410000000 1.0
C      1  0.4990250000000  0.5121880000000  0.6191400000000 1.0
C      1  0.4872030000000  0.4509770000000  0.5956040000000 1.0
C      1  0.4814610000000  0.5537680000000  0.4096250000000 1.0
C      1  0.5471660000000  0.5258070000000  0.5957640000000 1.0
C      1  0.4764450000000  0.4435010000000  0.5379050000000 1.0
C      1  0.5694910000000  0.5103080000000  0.4878350000000 1.0
C      1  0.3804780000000  0.5127150000000  0.4898090000000 1.0
C      1  0.5609270000000  0.4815410000000  0.5192390000000 1.0
C      1  0.5086980000000  0.5994310000000  0.5465910000000 1.0
C      1  0.4882130000000  0.4478790000000  0.4535830000000 1.0
C      1  0.3971430000000  0.4576630000000  0.5184350000000 1.0
C      1  0.5078460000000  0.4674750000000  0.3886220000000 1.0
C      1  0.4585410000000  0.5410800000000  0.5997110000000 1.0
C      1  0.4524540000000  0.5597040000000  0.4166490000000 1.0
C      1  0.4455020000000  0.5575320000000  0.4991710000000 1.0
C      1  0.4890670000000  0.5639010000000  0.4638230000000 1.0
C      1  0.4266220000000  0.4480550000000  0.4333250000000 1.0
C      1  0.4888310000000  0.5334750000000  0.3866710000000 1.0
C      1  0.5535750000000  0.4313090000000  0.4386110000000 1.0
C      1  0.5067500000000  0.4088600000000  0.4398990000000 1.0
C      1  0.5743960000000  0.4449880000000  0.5426600000000 1.0
C      1  0.4742070000000  0.5084830000000  0.3903050000000 1.0
C      1  0.5124240000000  0.6061180000000  0.4769790000000 1.0
C      1  0.4210730000000  0.4778590000000  0.4339890000000 1.0
C      1  0.4833010000000  0.4010280000000  0.4565000000000 1.0
C      1  0.4476570000000  0.4863530000000  0.4254020000000 1.0
C      1  0.5644370000000  0.5819350000000  0.5412000000000 1.0
C      1  0.4223840000000  0.4735200000000  0.5855790000000 1.0
C      1  0.4530680000000  0.5848200000000  0.5505480000000 1.0
C      1  0.4364550000000  0.4591360000000  0.5144190000000 1.0
C      1  0.5953050000000  0.5115280000000  0.4363830000000 1.0
C      1  0.5530360000000  0.6000070000000  0.5210320000000 1.0
C      1  0.5186500000000  0.3925430000000  0.5252150000000 1.0
C      1  0.4670240000000  0.4681540000000  0.6033210000000 1.0
C      1  0.4342910000000  0.5026060000000  0.4908440000000 1.0
C      1  0.5331380000000  0.5146860000000  0.4517850000000 1.0
C      1  0.5334630000000  0.4872810000000  0.5182960000000 1.0
C      1  0.5081880000000  0.5001730000000  0.4478150000000 1.0
C      1  0.4349620000000  0.4103870000000  0.5003810000000 1.0
C      1  0.3873220000000  0.5119830000000  0.5182480000000 1.0
C      1  0.4488220000000  0.4428030000000  0.4136420000000 1.0
C      1  0.4585480000000  0.4684710000000  0.4038300000000 1.0
C      1  0.5134300000000  0.4619130000000  0.5945650000000 1.0
C      1  0.5616250000000  0.4492330000000  0.5872930000000 1.0
C      1  0.5002960000000  0.5409470000000  0.5663700000000 1.0
C      1  0.3980700000000  0.5583410000000  0.5060660000000 1.0
C      1  0.5891140000000  0.4823060000000  0.4326720000000 1.0
C      1  0.5340000000000  0.4053120000000  0.4794090000000 1.0
C      1  0.5461710000000  0.4960100000000  0.5973260000000 1.0
C      1  0.5486950000000  0.5491640000000  0.4688920000000 1.0
C      1  0.5712290000000  0.5508840000000  0.4478620000000 1.0
C      1  0.4310450000000  0.5829060000000  0.4543590000000 1.0
C      1  0.5448910000000  0.5223440000000  0.4786520000000 1.0
C      1  0.6085180000000  0.4777230000000  0.5256760000000 1.0
C      1  0.5415670000000  0.4896790000000  0.5578850000000 1.0
C      1  0.4274130000000  0.5763560000000  0.5377380000000 1.0
C      1  0.5405870000000  0.6045900000000  0.4680700000000 1.0
C      1  0.5236170000000  0.4280940000000  0.5669950000000 1.0
C      1  0.5241990000000  0.6007710000000  0.5244140000000 1.0
C      1  0.4479640000000  0.4777730000000  0.5310520000000 1.0
C      1  0.4599600000000  0.5141740000000  0.4962120000000 1.0
C      1  0.4501600000000  0.5329820000000  0.5145070000000 1.0
C      1  0.4087930000000  0.5222560000000  0.5845820000000 1.0
C      1  0.4930110000000  0.4946080000000  0.5151660000000 1.0
C      1  0.4973550000000  0.4918530000000  0.5431950000000 1.0
C      1  0.4746530000000  0.4786300000000  0.4752070000000 1.0
C      1  0.5074200000000  0.4515080000000  0.5007560000000 1.0
C      1  0.4303840000000  0.4740570000000  0.4839900000000 1.0
C      1  0.5854500000000  0.4967590000000  0.5744650000000 1.0
C      1  0.6031900000000  0.5419660000000  0.4826340000000 1.0
C      1  0.5800530000000  0.4269310000000  0.4809030000000 1.0
C      1  0.5265850000000  0.4419260000000  0.5418420000000 1.0
C      1  0.4270660000000  0.4164110000000  0.5279440000000 1.0
C      1  0.4657940000000  0.4409990000000  0.4629340000000 1.0
C      1  0.4261590000000  0.4937940000000  0.5354250000000 1.0
C      1  0.5752580000000  0.5226950000000  0.5851310000000 1.0
C      1  0.4988290000000  0.5476470000000  0.5143400000000 1.0
C      1  0.5467510000000  0.4000790000000  0.5358250000000 1.0
C      1  0.5568630000000  0.5521390000000  0.5132390000000 1.0
C      1  0.4188690000000  0.5553740000000  0.4524910000000 1.0
C      1  0.4912830000000  0.5957720000000  0.5650040000000 1.0
C      1  0.5653480000000  0.4736000000000  0.5467110000000 1.0
C      1  0.4746630000000  0.5766130000000  0.5330140000000 1.0
C      1  0.5332960000000  0.4124100000000  0.4512890000000 1.0
C      1  0.5059660000000  0.4817670000000  0.4269920000000 1.0
C      1  0.5110010000000  0.4568240000000  0.4436460000000 1.0
C      1  0.4212170000000  0.5242460000000  0.4786760000000 1.0
C      1  0.4921370000000  0.5370900000000  0.4332870000000 1.0
C      1  0.4234000000000  0.5015490000000  0.5960790000000 1.0
C      1  0.4179020000000  0.4442800000000  0.5340950000000 1.0
C      1  0.5607810000000  0.4785170000000  0.4213830000000 1.0
C      1  0.5456110000000  0.5889800000000  0.4438320000000 1.0
C      1  0.5684810000000  0.4777750000000  0.5896250000000 1.0
C      1  0.5024800000000  0.5780450000000  0.4141600000000 1.0
C      1  0.4852680000000  0.3957490000000  0.4848040000000 1.0
C      1  0.3959000000000  0.5401290000000  0.5279680000000 1.0
C      1  0.4806340000000  0.4795110000000  0.3883110000000 1.0
C      1  0.3941850000000  0.5379370000000  0.4850010000000 1.0
C      1  0.6007880000000  0.4489480000000  0.5257000000000 1.0
C      1  0.6020680000000  0.4960380000000  0.5483640000000 1.0
C      1  0.5007720000000  0.4123190000000  0.5674330000000 1.0
C      1  0.3887570000000  0.4946530000000  0.4674150000000 1.0
C      1  0.4419680000000  0.4576330000000  0.5951700000000 1.0
C      1  0.4714700000000  0.5072800000000  0.5767910000000 1.0
C      1  0.5186410000000  0.4445170000000  0.4054450000000 1.0
C      1  0.4973880000000  0.5086540000000  0.5672150000000 1.0
C      1  0.5561290000000  0.5639830000000  0.5625530000000 1.0
C      1  0.4265340000000  0.5398670000000  0.5724280000000 1.0
C      1  0.4697830000000  0.4234700000000  0.4188900000000 1.0
C      1  0.5222900000000  0.5662120000000  0.3967710000000 1.0
C      1  0.5190430000000  0.5845740000000  0.4971950000000 1.0
C      1  0.5017280000000  0.4394040000000  0.5256540000000 1.0
C      1  0.4963840000000  0.3964230000000  0.5427400000000 1.0
C      1  0.5212490000000  0.5348480000000  0.4316450000000 1.0
C      1  0.5953460000000  0.5447610000000  0.5444010000000 1.0
C      1  0.5166310000000  0.5040290000000  0.5014720000000 1.0
C      1  0.5794370000000  0.5469420000000  0.5687870000000 1.0
C      1  0.5298430000000  0.5178240000000  0.4033700000000 1.0
C      1  0.4593830000000  0.4336810000000  0.5604440000000 1.0
C      1  0.4394840000000  0.5453600000000  0.4714050000000 1.0
C      1  0.5451850000000  0.5301980000000  0.5252930000000 1.0
C      1  0.4133850000000  0.5537700000000  0.5480850000000 1.0
C      1  0.5515380000000  0.4244430000000  0.4942470000000 1.0
C      1  0.5585490000000  0.4680700000000  0.4947320000000 1.0
C      1  0.4722960000000  0.4981210000000  0.6045210000000 1.0
C      1  0.3990850000000  0.4465880000000  0.4911190000000 1.0
C      1  0.4012320000000  0.4691000000000  0.4731780000000 1.0
C      1  0.5699430000000  0.4851300000000  0.4754560000000 1.0
C      1  0.4515480000000  0.4683510000000  0.4625780000000 1.0
C      1  0.4476640000000  0.5159690000000  0.6086690000000 1.0
C      1  0.5962800000000  0.5359390000000  0.4549710000000 1.0
C      1  0.3992160000000  0.4864480000000  0.5261790000000 1.0
C      1  0.5200020000000  0.4888820000000  0.5853850000000 1.0
C      1  0.4514660000000  0.5238130000000  0.5631930000000 1.0
C      1  0.5605910000000  0.4054930000000  0.5599720000000 1.0
C      1  0.4688390000000  0.5784000000000  0.5039240000000 1.0
C      1  0.4818460000000  0.5863420000000  0.4454270000000 1.0
C      1  0.4876010000000  0.5001090000000  0.4651290000000 1.0
C      1  0.4193520000000  0.4261450000000  0.4807230000000 1.0
C      1  0.5326310000000  0.4629120000000  0.4606740000000 1.0
C      1  0.6101310000000  0.4892020000000  0.4984920000000 1.0
C      1  0.4788910000000  0.5546090000000  0.5845340000000 1.0
C      1  0.4533690000000  0.5810930000000  0.4354290000000 1.0
C      1  0.5735300000000  0.4292290000000  0.5691720000000 1.0
C      1  0.5600080000000  0.6023340000000  0.4919390000000 1.0
C      1  0.5419210000000  0.5640920000000  0.4921890000000 1.0
C      1  0.5348820000000  0.5416720000000  0.5694690000000 1.0
C      1  0.5492430000000  0.4841800000000  0.4503550000000 1.0
C      1  0.5166490000000  0.5396500000000  0.3856230000000 1.0
C      1  0.5834860000000  0.5641340000000  0.5237440000000 1.0
C      1  0.4159280000000  0.5299200000000  0.4371150000000 1.0
C      1  0.4774920000000  0.5221660000000  0.4757970000000 1.0
C      1  0.6016660000000  0.4791010000000  0.4731330000000 1.0
C      1  0.5961920000000  0.5168580000000  0.5003490000000 1.0
C      1  0.4218620000000  0.5776640000000  0.5074090000000 1.0
C      1  0.4484040000000  0.4088900000000  0.5453600000000 1.0
C      1  0.4803230000000  0.4279460000000  0.5802010000000 1.0
C      1  0.5785920000000  0.4371880000000  0.4535680000000 1.0
C      1  0.5183480000000  0.4898560000000  0.4034750000000 1.0
C      1  0.5334820000000  0.4421780000000  0.5884820000000 1.0
C      1  0.4333150000000  0.4527510000000  0.5686420000000 1.0
C      1  0.5514150000000  0.4274670000000  0.5250390000000 1.0
C      1  0.5434510000000  0.5196930000000  0.5523030000000 1.0
C      1  0.4850140000000  0.6067220000000  0.4669040000000 1.0
C      1  0.5576030000000  0.5064190000000  0.4084710000000 1.0
C      1  0.4935550000000  0.5669440000000  0.4930160000000 1.0
C      1  0.5715900000000  0.5808370000000  0.4514780000000 1.0
C      1  0.5749760000000  0.5239800000000  0.4216320000000 1.0
C      1  0.5945850000000  0.4377340000000  0.5016850000000 1.0
C      1  0.5445810000000  0.4491230000000  0.4178590000000 1.0
C      1  0.5225370000000  0.4769520000000  0.5415250000000 1.0
C      1  0.5220410000000  0.5232650000000  0.6196120000000 1.0
C      1  0.4587940000000  0.4134450000000  0.4449260000000 1.0
C      1  0.4387900000000  0.5203150000000  0.5372230000000 1.0
C      1  0.5281180000000  0.5681340000000  0.4267990000000 1.0
C      1  0.6017890000000  0.5197820000000  0.5329960000000 1.0
C      1  0.5342890000000  0.4537730000000  0.4876560000000 1.0
C      1  0.4690860000000  0.3952420000000  0.5309760000000 1.0
C      1  0.4991190000000  0.4246950000000  0.4166700000000 1.0
C      1  0.4283940000000  0.4266790000000  0.4530320000000 1.0
C      1  0.4070260000000  0.5013690000000  0.4452530000000 1.0
C      1  0.4620770000000  0.6022900000000  0.4854550000000 1.0
C      1  0.5813090000000  0.5874640000000  0.4797740000000 1.0
C      1  0.4853080000000  0.4706970000000  0.4999990000000 1.0
C      1  0.4917330000000  0.5538490000000  0.5406840000000 1.0
C      1  0.5966590000000  0.4607540000000  0.4509160000000 1.0
C      1  0.4692660000000  0.5811590000000  0.5754040000000 1.0
C      1  0.4759110000000  0.5413350000000  0.4566130000000 1.0
C      1  0.4512540000000  0.5104570000000  0.4087350000000 1.0
C      1  0.4353950000000  0.5932490000000  0.4812610000000 1.0
C      1  0.5128250000000  0.3945570000000  0.4965310000000 1.0
C      1  0.4634040000000  0.4565410000000  0.5174110000000 1.0
C      1  0.5954500000000  0.5667450000000  0.4943660000000 1.0
END
