TITL C-884128-4793-237 31.7143022744153 125000 -20574.3470408762 0 0 138 (C1) n - 1
REM
REM in /home/nfs/bkarasulu/CARBON/AIRSS/Generating-Clusters/ReaxFF-fromJPCA2015/Units_Real/with-SteepDescent/Only-C1/SD-CG/Try1-3A/FIRE-CG
REM
REM
REM
REM
REM
REM ./C.cell (11c1c37f851c82e70ff6c80c92926a4b)
REM
REM compiler GCC version 9.2.1 20190827 (Red Hat 9.2.1-1)
REM options -cpp -mtune=generic -march=x86-64 -g -O0 -fpre-include=/usr/include/finclude/math-vector-fortran.h
REM seed 907418970 279365788 -26707453 -1404584880 1391871827 -96222057 -1309431847 -1934848207 1726816040 1883123569 -793511752 -1580048858 -1091366478 -650603136 -96241480 -1147503131 1809443078 1028988662 -1407584447 706291961 1758788526 81759179 716950034 -1346119970 -994916272 557395696 1499788334 -1239621190 -227978565 -1162719488 -1511154856 -572295669 1526826562
REM
CELL 1.54180   50.00000   50.00000   50.00000   90.00000   90.00000   90.00000
LATT -1
SFAC C  
C      1  0.4763190000000  0.4898040000000  0.5280250000000 1.0
C      1  0.5172260000000  0.5665710000000  0.5637410000000 1.0
C      1  0.5845570000000  0.4984630000000  0.5504660000000 1.0
C      1  0.4116960000000  0.5598730000000  0.5108750000000 1.0
C      1  0.4143350000000  0.4981380000000  0.5642590000000 1.0
C      1  0.4851360000000  0.4710880000000  0.4810750000000 1.0
C      1  0.4255110000000  0.5668670000000  0.4655900000000 1.0
C      1  0.4298600000000  0.5082170000000  0.4257520000000 1.0
C      1  0.4825700000000  0.4620220000000  0.5321700000000 1.0
C      1  0.4735640000000  0.5174920000000  0.5992320000000 1.0
C      1  0.4321470000000  0.4772430000000  0.5675770000000 1.0
C      1  0.5490860000000  0.4766300000000  0.5216650000000 1.0
C      1  0.5665930000000  0.4480610000000  0.5433760000000 1.0
C      1  0.4904760000000  0.4125780000000  0.4625450000000 1.0
C      1  0.4010470000000  0.4769490000000  0.5186520000000 1.0
C      1  0.5257510000000  0.5442770000000  0.4167660000000 1.0
C      1  0.5707740000000  0.5046810000000  0.4124040000000 1.0
C      1  0.4239340000000  0.5366140000000  0.4275770000000 1.0
C      1  0.4714600000000  0.5269510000000  0.4051650000000 1.0
C      1  0.5761130000000  0.4385640000000  0.4928560000000 1.0
C      1  0.5113130000000  0.5047030000000  0.5734860000000 1.0
C      1  0.4647760000000  0.4906400000000  0.5948840000000 1.0
C      1  0.5943520000000  0.5224370000000  0.5368530000000 1.0
C      1  0.4761130000000  0.5713030000000  0.5531360000000 1.0
C      1  0.6119280000000  0.4924760000000  0.5112320000000 1.0
C      1  0.4355300000000  0.4966400000000  0.4777670000000 1.0
C      1  0.4400140000000  0.4503510000000  0.4714030000000 1.0
C      1  0.5397140000000  0.4172320000000  0.5087630000000 1.0
C      1  0.5704060000000  0.5697500000000  0.5201400000000 1.0
C      1  0.4495860000000  0.5498870000000  0.4315910000000 1.0
C      1  0.4835570000000  0.4350240000000  0.4448620000000 1.0
C      1  0.4932670000000  0.5099200000000  0.3959410000000 1.0
C      1  0.5052610000000  0.5833630000000  0.5121510000000 1.0
C      1  0.5453810000000  0.5307470000000  0.5608700000000 1.0
C      1  0.5132760000000  0.5242590000000  0.5279690000000 1.0
C      1  0.4614140000000  0.5326180000000  0.5293840000000 1.0
C      1  0.4624870000000  0.4413610000000  0.5753490000000 1.0
C      1  0.4785710000000  0.5827880000000  0.4718520000000 1.0
C      1  0.5856360000000  0.4744870000000  0.4563380000000 1.0
C      1  0.5196490000000  0.5242230000000  0.5553560000000 1.0
C      1  0.4883180000000  0.4071950000000  0.5162670000000 1.0
C      1  0.6042350000000  0.5390430000000  0.4952310000000 1.0
C      1  0.4093520000000  0.5463170000000  0.4516420000000 1.0
C      1  0.4315150000000  0.4423860000000  0.5347930000000 1.0
C      1  0.5250400000000  0.5737960000000  0.4908240000000 1.0
C      1  0.5404420000000  0.4774970000000  0.4410180000000 1.0
C      1  0.5556550000000  0.5748580000000  0.4957030000000 1.0
C      1  0.4733630000000  0.5538180000000  0.5762230000000 1.0
C      1  0.4764780000000  0.4615220000000  0.6004110000000 1.0
C      1  0.4693080000000  0.5420120000000  0.4786390000000 1.0
C      1  0.5632910000000  0.4321700000000  0.5181070000000 1.0
C      1  0.4854920000000  0.4583390000000  0.4105930000000 1.0
C      1  0.4049330000000  0.5224100000000  0.4673960000000 1.0
C      1  0.5329330000000  0.5663690000000  0.4353130000000 1.0
C      1  0.5471730000000  0.4857300000000  0.5472280000000 1.0
C      1  0.5610220000000  0.5673050000000  0.4440820000000 1.0
C      1  0.5854340000000  0.4707210000000  0.5397080000000 1.0
C      1  0.4230840000000  0.5623590000000  0.5370960000000 1.0
C      1  0.5576200000000  0.4840860000000  0.4966780000000 1.0
C      1  0.5019810000000  0.5479960000000  0.5814550000000 1.0
C      1  0.5063340000000  0.5149420000000  0.4554880000000 1.0
C      1  0.3976990000000  0.4968830000000  0.5390500000000 1.0
C      1  0.5022570000000  0.4179410000000  0.5655000000000 1.0
C      1  0.5905000000000  0.5556450000000  0.4823120000000 1.0
C      1  0.5138540000000  0.4222440000000  0.5231210000000 1.0
C      1  0.4075500000000  0.5306140000000  0.5011640000000 1.0
C      1  0.5024020000000  0.4517990000000  0.5139640000000 1.0
C      1  0.4532960000000  0.5328100000000  0.5835480000000 1.0
C      1  0.5152910000000  0.5743750000000  0.4571010000000 1.0
C      1  0.5216440000000  0.5198960000000  0.4026870000000 1.0
C      1  0.5994230000000  0.4682150000000  0.5132150000000 1.0
C      1  0.4516220000000  0.5552900000000  0.4597300000000 1.0
C      1  0.5106000000000  0.4705010000000  0.4934040000000 1.0
C      1  0.4889450000000  0.4631970000000  0.4531800000000 1.0
C      1  0.4469350000000  0.4190570000000  0.5375030000000 1.0
C      1  0.4839650000000  0.4554350000000  0.5603150000000 1.0
C      1  0.4773630000000  0.4858580000000  0.4019200000000 1.0
C      1  0.4618660000000  0.5085570000000  0.5437370000000 1.0
C      1  0.4391170000000  0.4636810000000  0.5134170000000 1.0
C      1  0.4799830000000  0.5911960000000  0.4988370000000 1.0
C      1  0.4276570000000  0.5240340000000  0.5707330000000 1.0
C      1  0.4535160000000  0.5035300000000  0.4084890000000 1.0
C      1  0.5787470000000  0.5320410000000  0.4071340000000 1.0
C      1  0.5637530000000  0.4233210000000  0.4710810000000 1.0
C      1  0.5650230000000  0.4607460000000  0.4416190000000 1.0
C      1  0.5255160000000  0.4242820000000  0.5543800000000 1.0
C      1  0.5712910000000  0.5729000000000  0.4713740000000 1.0
C      1  0.4753490000000  0.4139920000000  0.5677590000000 1.0
C      1  0.5325430000000  0.4725350000000  0.4133480000000 1.0
C      1  0.4202260000000  0.5018700000000  0.4536990000000 1.0
C      1  0.5210530000000  0.5436710000000  0.4893210000000 1.0
C      1  0.5444930000000  0.4451670000000  0.5625750000000 1.0
C      1  0.4759000000000  0.4104500000000  0.4893450000000 1.0
C      1  0.5134960000000  0.4503130000000  0.4160770000000 1.0
C      1  0.4125420000000  0.5395150000000  0.5509850000000 1.0
C      1  0.5627660000000  0.5180130000000  0.4531690000000 1.0
C      1  0.5233720000000  0.4808530000000  0.5340460000000 1.0
C      1  0.5801790000000  0.4686330000000  0.4865850000000 1.0
C      1  0.5331980000000  0.4945190000000  0.4882250000000 1.0
C      1  0.4487290000000  0.4624220000000  0.4441670000000 1.0
C      1  0.5675950000000  0.5691850000000  0.5479080000000 1.0
C      1  0.5334130000000  0.4932540000000  0.5864040000000 1.0
C      1  0.4576470000000  0.5285420000000  0.5012040000000 1.0
C      1  0.4523580000000  0.4734340000000  0.4877160000000 1.0
C      1  0.5272870000000  0.4311440000000  0.4350810000000 1.0
C      1  0.5426060000000  0.4983630000000  0.4036590000000 1.0
C      1  0.5395440000000  0.4109440000000  0.4804730000000 1.0
C      1  0.5019000000000  0.5773730000000  0.5406190000000 1.0
C      1  0.5584350000000  0.5054330000000  0.5672300000000 1.0
C      1  0.4539210000000  0.4932220000000  0.5678770000000 1.0
C      1  0.6147930000000  0.5200650000000  0.5142080000000 1.0
C      1  0.4637560000000  0.4448400000000  0.4261150000000 1.0
C      1  0.5192310000000  0.4148850000000  0.4583350000000 1.0
C      1  0.4283710000000  0.5763400000000  0.4931830000000 1.0
C      1  0.4699980000000  0.4829360000000  0.4428450000000 1.0
C      1  0.4327060000000  0.5167130000000  0.4964150000000 1.0
C      1  0.4364390000000  0.4500820000000  0.5631310000000 1.0
C      1  0.4699750000000  0.4031480000000  0.5389590000000 1.0
C      1  0.5459650000000  0.5590360000000  0.5633120000000 1.0
C      1  0.4974040000000  0.5349230000000  0.4738690000000 1.0
C      1  0.4538660000000  0.5806910000000  0.5068060000000 1.0
C      1  0.5703920000000  0.5408620000000  0.4364520000000 1.0
C      1  0.5822640000000  0.4995760000000  0.4428820000000 1.0
C      1  0.4882520000000  0.5683300000000  0.4499040000000 1.0
C      1  0.5851470000000  0.5504640000000  0.5363720000000 1.0
C      1  0.5550970000000  0.4330370000000  0.4441810000000 1.0
C      1  0.3988170000000  0.5239810000000  0.5295910000000 1.0
C      1  0.4803830000000  0.5102740000000  0.4451130000000 1.0
C      1  0.5317100000000  0.4648670000000  0.5811410000000 1.0
C      1  0.4539710000000  0.5637950000000  0.5330050000000 1.0
C      1  0.5035640000000  0.5208100000000  0.5944850000000 1.0
C      1  0.4561730000000  0.4290220000000  0.4810210000000 1.0
C      1  0.4136550000000  0.4608030000000  0.5014000000000 1.0
C      1  0.5295170000000  0.5210340000000  0.5043230000000 1.0
C      1  0.4763350000000  0.5396170000000  0.4317510000000 1.0
C      1  0.5354090000000  0.5023250000000  0.4577430000000 1.0
C      1  0.5028410000000  0.4979440000000  0.5242150000000 1.0
C      1  0.5022130000000  0.4665420000000  0.5802660000000 1.0
END
