TITL C-883740-3686-36 938313.746201829 125000 -28206.8822278263 0 0 188 (C1) n - 1
REM
REM in /home/nfs/bkarasulu/CARBON/AIRSS/Generating-Clusters/ReaxFF-fromJPCA2015/Units_Real/with-SteepDescent/Only-C1/SD-CG/Try1-3A/FIRE-CG
REM
REM
REM
REM
REM
REM ./C.cell (11c1c37f851c82e70ff6c80c92926a4b)
REM
REM compiler GCC version 9.2.1 20190827 (Red Hat 9.2.1-1)
REM options -cpp -mtune=generic -march=x86-64 -g -O0 -fpre-include=/usr/include/finclude/math-vector-fortran.h
REM seed 1913429979 -606394563 1656611663 -1964590647 -380824082 1558076878 1499261838 1837542120 -1545895200 -618545965 1614226305 1923726289 833252720 -1110315877 -1517964534 129837864 985667463 -1373861329 -1514977283 -1664864515 1976591442 38164018 1293168089 25068369 -289515637 399593645 256188499 1570535363 1800569223 -2101181008 799867546 1994973610 -1770351930
REM
CELL 1.54180   50.00000   50.00000   50.00000   90.00000   90.00000   90.00000
LATT -1
SFAC C  
C      1  0.4707040000000  0.4497960000000  0.4053010000000 1.0
C      1  0.5132320000000  0.4100740000000  0.4463450000000 1.0
C      1  0.5579430000000  0.5289830000000  0.5750420000000 1.0
C      1  0.4582290000000  0.5309310000000  0.4940310000000 1.0
C      1  0.4129420000000  0.5569820000000  0.5615140000000 1.0
C      1  0.6114090000000  0.4792760000000  0.5414950000000 1.0
C      1  0.4295230000000  0.4731250000000  0.4160510000000 1.0
C      1  0.4975900000000  0.4333610000000  0.3991570000000 1.0
C      1  0.5851880000000  0.5659020000000  0.5577270000000 1.0
C      1  0.4753170000000  0.5960940000000  0.5531480000000 1.0
C      1  0.5241610000000  0.4756010000000  0.5038480000000 1.0
C      1  0.6159520000000  0.5163720000000  0.5006580000000 1.0
C      1  0.4715810000000  0.5131730000000  0.4529760000000 1.0
C      1  0.4979770000000  0.4567050000000  0.5736050000000 1.0
C      1  0.4654140000000  0.5029800000000  0.3962220000000 1.0
C      1  0.4618570000000  0.5908260000000  0.4761210000000 1.0
C      1  0.4133360000000  0.5439220000000  0.4360880000000 1.0
C      1  0.4112200000000  0.5747020000000  0.5104960000000 1.0
C      1  0.5235340000000  0.4416960000000  0.3970070000000 1.0
C      1  0.4906770000000  0.6203930000000  0.4782410000000 1.0
C      1  0.5028340000000  0.4112950000000  0.5521400000000 1.0
C      1  0.5823130000000  0.5357900000000  0.4869780000000 1.0
C      1  0.5262880000000  0.6034060000000  0.4504000000000 1.0
C      1  0.6032930000000  0.4926640000000  0.4787350000000 1.0
C      1  0.5201680000000  0.5131540000000  0.5518680000000 1.0
C      1  0.5120150000000  0.4940010000000  0.4145960000000 1.0
C      1  0.5416680000000  0.5338930000000  0.4652080000000 1.0
C      1  0.4096960000000  0.5185100000000  0.5308030000000 1.0
C      1  0.4340140000000  0.5045680000000  0.5381100000000 1.0
C      1  0.4626510000000  0.4918860000000  0.6109090000000 1.0
C      1  0.4628750000000  0.4526490000000  0.5770090000000 1.0
C      1  0.3977360000000  0.5035290000000  0.5102470000000 1.0
C      1  0.4753500000000  0.4075650000000  0.5617700000000 1.0
C      1  0.4356570000000  0.4250810000000  0.5368260000000 1.0
C      1  0.4674400000000  0.5877700000000  0.4327990000000 1.0
C      1  0.4036650000000  0.4663310000000  0.4579690000000 1.0
C      1  0.5126620000000  0.5991480000000  0.5211480000000 1.0
C      1  0.4000540000000  0.4540310000000  0.5111000000000 1.0
C      1  0.5626920000000  0.5584580000000  0.5772700000000 1.0
C      1  0.4903090000000  0.6106400000000  0.5338750000000 1.0
C      1  0.4652250000000  0.5529320000000  0.5679260000000 1.0
C      1  0.4655030000000  0.4311730000000  0.4265330000000 1.0
C      1  0.5496220000000  0.4269140000000  0.5612880000000 1.0
C      1  0.4129590000000  0.4578220000000  0.5694090000000 1.0
C      1  0.4457840000000  0.5909770000000  0.4506080000000 1.0
C      1  0.5705340000000  0.4592760000000  0.5439770000000 1.0
C      1  0.5165890000000  0.4671570000000  0.5533550000000 1.0
C      1  0.5223940000000  0.5039420000000  0.5006530000000 1.0
C      1  0.4530640000000  0.5302090000000  0.4660290000000 1.0
C      1  0.5585300000000  0.4865370000000  0.4397950000000 1.0
C      1  0.4988570000000  0.3818480000000  0.5176130000000 1.0
C      1  0.6036610000000  0.4947590000000  0.4472140000000 1.0
C      1  0.4763400000000  0.4732390000000  0.5235760000000 1.0
C      1  0.5173820000000  0.3901820000000  0.5399450000000 1.0
C      1  0.4806940000000  0.5131620000000  0.4991570000000 1.0
C      1  0.4431320000000  0.4134750000000  0.4654620000000 1.0
C      1  0.4726920000000  0.5450620000000  0.5365500000000 1.0
C      1  0.5372340000000  0.5731380000000  0.5789430000000 1.0
C      1  0.5308510000000  0.5383880000000  0.4159560000000 1.0
C      1  0.5398900000000  0.4239380000000  0.4983490000000 1.0
C      1  0.4271280000000  0.5281660000000  0.4146610000000 1.0
C      1  0.5603870000000  0.4780770000000  0.5867880000000 1.0
C      1  0.5346470000000  0.5223030000000  0.3906350000000 1.0
C      1  0.4935570000000  0.5033320000000  0.3895720000000 1.0
C      1  0.4825600000000  0.4734670000000  0.4519690000000 1.0
C      1  0.5586620000000  0.4844320000000  0.5349880000000 1.0
C      1  0.4008640000000  0.4811930000000  0.5567380000000 1.0
C      1  0.4005290000000  0.4968540000000  0.4612980000000 1.0
C      1  0.4768070000000  0.4439070000000  0.5246190000000 1.0
C      1  0.4565400000000  0.5504540000000  0.4463540000000 1.0
C      1  0.5532130000000  0.4896460000000  0.4667480000000 1.0
C      1  0.4562470000000  0.4746930000000  0.4024550000000 1.0
C      1  0.5563660000000  0.4063310000000  0.5136460000000 1.0
C      1  0.4672350000000  0.6161830000000  0.5180260000000 1.0
C      1  0.4200530000000  0.4310240000000  0.5126740000000 1.0
C      1  0.4849190000000  0.4845430000000  0.4981120000000 1.0
C      1  0.4964560000000  0.3941350000000  0.4654760000000 1.0
C      1  0.4993510000000  0.5516500000000  0.4729650000000 1.0
C      1  0.5524390000000  0.6051220000000  0.4631440000000 1.0
C      1  0.4689310000000  0.3858490000000  0.5201420000000 1.0
C      1  0.5738480000000  0.4793140000000  0.4229660000000 1.0
C      1  0.4229060000000  0.4735860000000  0.5921420000000 1.0
C      1  0.6083620000000  0.5454180000000  0.4952860000000 1.0
C      1  0.4735500000000  0.5482330000000  0.4220070000000 1.0
C      1  0.4483740000000  0.4716140000000  0.5087950000000 1.0
C      1  0.4600640000000  0.4885620000000  0.4604130000000 1.0
C      1  0.3987600000000  0.5414520000000  0.5433070000000 1.0
C      1  0.4513440000000  0.4682840000000  0.5995270000000 1.0
C      1  0.4910440000000  0.4365620000000  0.4832660000000 1.0
C      1  0.5914040000000  0.5181670000000  0.4396040000000 1.0
C      1  0.4675210000000  0.4324840000000  0.5000960000000 1.0
C      1  0.5313410000000  0.5090520000000  0.4733760000000 1.0
C      1  0.5707590000000  0.5826500000000  0.4633440000000 1.0
C      1  0.5119100000000  0.4215630000000  0.4980140000000 1.0
C      1  0.5958090000000  0.4947460000000  0.5587710000000 1.0
C      1  0.4600910000000  0.5167630000000  0.5399630000000 1.0
C      1  0.5500860000000  0.5412220000000  0.5249890000000 1.0
C      1  0.4361130000000  0.5465250000000  0.5727590000000 1.0
C      1  0.3960460000000  0.4801380000000  0.5274610000000 1.0
C      1  0.5134060000000  0.6175960000000  0.4732600000000 1.0
C      1  0.4026820000000  0.5702180000000  0.5386080000000 1.0
C      1  0.5033580000000  0.5225630000000  0.5134530000000 1.0
C      1  0.5484250000000  0.4486100000000  0.4036160000000 1.0
C      1  0.5750730000000  0.4937670000000  0.4861950000000 1.0
C      1  0.5344720000000  0.4903420000000  0.5507020000000 1.0
C      1  0.6147620000000  0.5011090000000  0.5236520000000 1.0
C      1  0.5790830000000  0.4142610000000  0.4976670000000 1.0
C      1  0.5089710000000  0.5230270000000  0.3738520000000 1.0
C      1  0.5258220000000  0.4605840000000  0.4492250000000 1.0
C      1  0.5007250000000  0.5479550000000  0.5273420000000 1.0
C      1  0.4329620000000  0.5203570000000  0.5837280000000 1.0
C      1  0.5178880000000  0.5823930000000  0.4325850000000 1.0
C      1  0.5402070000000  0.5647350000000  0.4270650000000 1.0
C      1  0.5032880000000  0.4330160000000  0.5284780000000 1.0
C      1  0.5675260000000  0.5807240000000  0.4945250000000 1.0
C      1  0.4883820000000  0.4831040000000  0.6123450000000 1.0
C      1  0.5714940000000  0.5365940000000  0.4577820000000 1.0
C      1  0.4135350000000  0.4980440000000  0.5792060000000 1.0
C      1  0.5367850000000  0.4945260000000  0.3985560000000 1.0
C      1  0.5415420000000  0.4893360000000  0.6063210000000 1.0
C      1  0.3947020000000  0.5331050000000  0.4814850000000 1.0
C      1  0.3984890000000  0.5255840000000  0.4537260000000 1.0
C      1  0.4768440000000  0.4951620000000  0.5475760000000 1.0
C      1  0.4252980000000  0.5006220000000  0.4157880000000 1.0
C      1  0.5962070000000  0.4332110000000  0.5130930000000 1.0
C      1  0.4657970000000  0.3933390000000  0.4663440000000 1.0
C      1  0.4156340000000  0.4981880000000  0.4863410000000 1.0
C      1  0.5435520000000  0.4052160000000  0.5418800000000 1.0
C      1  0.4987300000000  0.5265450000000  0.4551870000000 1.0
C      1  0.5421380000000  0.4178140000000  0.4488790000000 1.0
C      1  0.4723410000000  0.4257940000000  0.5847190000000 1.0
C      1  0.5952250000000  0.5703280000000  0.5055710000000 1.0
C      1  0.4405990000000  0.4320870000000  0.4430230000000 1.0
C      1  0.4902080000000  0.4649510000000  0.4783300000000 1.0
C      1  0.4554510000000  0.4042690000000  0.5404150000000 1.0
C      1  0.5723360000000  0.5293410000000  0.5132740000000 1.0
C      1  0.5044330000000  0.5411680000000  0.5995900000000 1.0
C      1  0.5611850000000  0.4518670000000  0.5714150000000 1.0
C      1  0.5578020000000  0.4761850000000  0.4006880000000 1.0
C      1  0.5075850000000  0.3916820000000  0.4919470000000 1.0
C      1  0.5641340000000  0.5628550000000  0.4437120000000 1.0
C      1  0.5928680000000  0.5589950000000  0.5312380000000 1.0
C      1  0.4593580000000  0.5562710000000  0.5084690000000 1.0
C      1  0.4389350000000  0.5767620000000  0.5192830000000 1.0
C      1  0.4401210000000  0.4278880000000  0.4910620000000 1.0
C      1  0.4383360000000  0.4510900000000  0.5534320000000 1.0
C      1  0.4579900000000  0.5158190000000  0.5966340000000 1.0
C      1  0.5182220000000  0.5222770000000  0.6082110000000 1.0
C      1  0.4566140000000  0.5292140000000  0.4068170000000 1.0
C      1  0.5540460000000  0.6074340000000  0.4925010000000 1.0
C      1  0.5896020000000  0.4463820000000  0.4576950000000 1.0
C      1  0.4802060000000  0.5291980000000  0.5834220000000 1.0
C      1  0.5143760000000  0.4826140000000  0.6121720000000 1.0
C      1  0.4025740000000  0.5529400000000  0.4953040000000 1.0
C      1  0.5008380000000  0.4352960000000  0.5933600000000 1.0
C      1  0.4896900000000  0.5748310000000  0.4225210000000 1.0
C      1  0.5946710000000  0.4669950000000  0.4374850000000 1.0
C      1  0.4372550000000  0.4756650000000  0.5344050000000 1.0
C      1  0.5404780000000  0.5210860000000  0.6019640000000 1.0
C      1  0.4767450000000  0.5667850000000  0.4850790000000 1.0
C      1  0.4935210000000  0.4201490000000  0.4258670000000 1.0
C      1  0.6012330000000  0.4621240000000  0.4785530000000 1.0
C      1  0.5431760000000  0.4425480000000  0.4340310000000 1.0
C      1  0.4679320000000  0.6150170000000  0.4896370000000 1.0
C      1  0.4422480000000  0.4851440000000  0.4841700000000 1.0
C      1  0.5686710000000  0.4263450000000  0.4672820000000 1.0
C      1  0.5692780000000  0.5008790000000  0.5134910000000 1.0
C      1  0.5405530000000  0.5305710000000  0.5506070000000 1.0
C      1  0.5141290000000  0.5219130000000  0.4311310000000 1.0
C      1  0.5757910000000  0.5007130000000  0.5763410000000 1.0
C      1  0.4228640000000  0.4545670000000  0.4389450000000 1.0
C      1  0.4834580000000  0.5763210000000  0.5723800000000 1.0
C      1  0.5269660000000  0.5534280000000  0.4799480000000 1.0
C      1  0.5052770000000  0.4744310000000  0.4353500000000 1.0
C      1  0.4023470000000  0.4563920000000  0.4842740000000 1.0
C      1  0.5178630000000  0.4590790000000  0.5270520000000 1.0
C      1  0.4317750000000  0.5661680000000  0.4418120000000 1.0
C      1  0.5354500000000  0.4651540000000  0.4771650000000 1.0
C      1  0.5261170000000  0.6138300000000  0.4990910000000 1.0
C      1  0.5168520000000  0.5712670000000  0.5214880000000 1.0
C      1  0.4515220000000  0.5980170000000  0.5348280000000 1.0
C      1  0.4944360000000  0.5102230000000  0.5633430000000 1.0
C      1  0.4630190000000  0.3881000000000  0.4930930000000 1.0
C      1  0.5828000000000  0.4552090000000  0.4993860000000 1.0
C      1  0.5403260000000  0.5625860000000  0.5070730000000 1.0
C      1  0.5552550000000  0.4439250000000  0.4856980000000 1.0
C      1  0.5981450000000  0.4513630000000  0.5366830000000 1.0
C      1  0.5086670000000  0.5677350000000  0.5848110000000 1.0
END
