TITL C-883729-9652-292 -4.31836242252942 125000 -9711.18716956147 0 0 66 (C1) n - 1
REM
REM in /home/nfs/bkarasulu/CARBON/AIRSS/Generating-Clusters/ReaxFF-fromJPCA2015/Units_Real/with-SteepDescent/Only-C1/SD-CG/Try1-3A/FIRE-CG
REM
REM
REM
REM
REM
REM ./C.cell (11c1c37f851c82e70ff6c80c92926a4b)
REM
REM compiler GCC version 9.2.1 20190827 (Red Hat 9.2.1-1)
REM options -cpp -mtune=generic -march=x86-64 -g -O0 -fpre-include=/usr/include/finclude/math-vector-fortran.h
REM seed -400198367 -1865978983 -1625642504 1343538127 -1735952179 -2072010313 -1601551719 -1917586061 -1445694476 110757482 808732257 -416394362 -908007233 937792398 1458837174 -1623033991 1157776939 1934584900 1131248974 1683644463 871097198 1753743261 715109982 1941160678 637324318 378530455 -1462942503 2067633895 -1376240085 -25234526 1575688336 592453622 1076733653
REM
CELL 1.54180   50.00000   50.00000   50.00000   90.00000   90.00000   90.00000
LATT -1
SFAC C  
C      1  0.5693000000000  0.5107510000000  0.5254010000000 1.0
C      1  0.4914650000000  0.4290010000000  0.5359860000000 1.0
C      1  0.5048130000000  0.4595830000000  0.4545320000000 1.0
C      1  0.4944830000000  0.5280440000000  0.5678770000000 1.0
C      1  0.5257220000000  0.4284890000000  0.4937880000000 1.0
C      1  0.5658740000000  0.4813530000000  0.4821610000000 1.0
C      1  0.5201970000000  0.4692910000000  0.5234780000000 1.0
C      1  0.5495740000000  0.4659150000000  0.5251890000000 1.0
C      1  0.4992340000000  0.5684120000000  0.4750520000000 1.0
C      1  0.4726520000000  0.4863400000000  0.5857150000000 1.0
C      1  0.4750960000000  0.4398890000000  0.4777820000000 1.0
C      1  0.4464760000000  0.4420870000000  0.4847650000000 1.0
C      1  0.5246090000000  0.5860760000000  0.5091510000000 1.0
C      1  0.4551450000000  0.4744700000000  0.4317510000000 1.0
C      1  0.4475470000000  0.5004360000000  0.4389710000000 1.0
C      1  0.5679590000000  0.5075550000000  0.4959130000000 1.0
C      1  0.4880340000000  0.5585760000000  0.5031380000000 1.0
C      1  0.4639160000000  0.4646340000000  0.5673660000000 1.0
C      1  0.4889640000000  0.5153440000000  0.5391260000000 1.0
C      1  0.5175200000000  0.4865160000000  0.5665900000000 1.0
C      1  0.5636690000000  0.4583490000000  0.5005610000000 1.0
C      1  0.4745050000000  0.5019340000000  0.4796650000000 1.0
C      1  0.5785940000000  0.5463460000000  0.5056980000000 1.0
C      1  0.5041140000000  0.4876050000000  0.5393600000000 1.0
C      1  0.5291100000000  0.5226710000000  0.4295100000000 1.0
C      1  0.5482210000000  0.4427740000000  0.4806560000000 1.0
C      1  0.4962530000000  0.5109120000000  0.4616740000000 1.0
C      1  0.5660160000000  0.5354050000000  0.4843820000000 1.0
C      1  0.5267610000000  0.5425410000000  0.5392150000000 1.0
C      1  0.5496950000000  0.4672170000000  0.4617280000000 1.0
C      1  0.4282830000000  0.4606370000000  0.4988320000000 1.0
C      1  0.4852470000000  0.4375170000000  0.4490440000000 1.0
C      1  0.5646040000000  0.4852740000000  0.5414040000000 1.0
C      1  0.4379440000000  0.4992160000000  0.5383520000000 1.0
C      1  0.4591890000000  0.5510150000000  0.4947580000000 1.0
C      1  0.5286620000000  0.4729400000000  0.4428070000000 1.0
C      1  0.4449790000000  0.5323610000000  0.5135120000000 1.0
C      1  0.4715350000000  0.5451720000000  0.4411600000000 1.0
C      1  0.4269000000000  0.5085220000000  0.5117720000000 1.0
C      1  0.5119530000000  0.5098450000000  0.5010110000000 1.0
C      1  0.4419750000000  0.4712990000000  0.5481760000000 1.0
C      1  0.4582260000000  0.5199400000000  0.5364680000000 1.0
C      1  0.4289940000000  0.4538800000000  0.5282740000000 1.0
C      1  0.4966550000000  0.5833300000000  0.5192720000000 1.0
C      1  0.4932840000000  0.5032480000000  0.4326610000000 1.0
C      1  0.5219330000000  0.4962820000000  0.4250020000000 1.0
C      1  0.5264710000000  0.5473350000000  0.4423800000000 1.0
C      1  0.4682470000000  0.4537020000000  0.4345260000000 1.0
C      1  0.4615670000000  0.5488690000000  0.4672050000000 1.0
C      1  0.4982070000000  0.5569620000000  0.4483750000000 1.0
C      1  0.5198780000000  0.5206370000000  0.4758990000000 1.0
C      1  0.4880750000000  0.4460340000000  0.5617970000000 1.0
C      1  0.5464810000000  0.4995960000000  0.5589670000000 1.0
C      1  0.4940810000000  0.4623220000000  0.4818950000000 1.0
C      1  0.5502660000000  0.5244380000000  0.5445290000000 1.0
C      1  0.5267980000000  0.5726990000000  0.4821440000000 1.0
C      1  0.4969560000000  0.5031610000000  0.5830050000000 1.0
C      1  0.5108430000000  0.4397540000000  0.5172350000000 1.0
C      1  0.4684850000000  0.5182040000000  0.4283130000000 1.0
C      1  0.4476750000000  0.4984970000000  0.4693190000000 1.0
C      1  0.4916540000000  0.4871350000000  0.4988890000000 1.0
C      1  0.5125300000000  0.4550580000000  0.5730900000000 1.0
C      1  0.5052410000000  0.5333310000000  0.5189770000000 1.0
C      1  0.5379830000000  0.5465040000000  0.4713170000000 1.0
C      1  0.4285790000000  0.4895430000000  0.4896330000000 1.0
C      1  0.5141020000000  0.5472260000000  0.5638210000000 1.0
END
