TITL C-884141-4321-105 87.9333608951469 125000 -28192.6671197981 0 0 190 (C1) n - 1
REM
REM in /home/nfs/bkarasulu/CARBON/AIRSS/Generating-Clusters/ReaxFF-fromJPCA2015/Units_Real/with-SteepDescent/Only-C1/SD-CG/Try1-3A/FIRE-CG
REM
REM
REM
REM
REM
REM ./C.cell (11c1c37f851c82e70ff6c80c92926a4b)
REM
REM compiler GCC version 9.2.1 20190827 (Red Hat 9.2.1-1)
REM options -cpp -mtune=generic -march=x86-64 -g -O0 -fpre-include=/usr/include/finclude/math-vector-fortran.h
REM seed 985260031 -517025865 547226079 1375064755 43540166 1935964181 2094281647 1725120327 1651967797 1374077804 -343039735 -1359955287 2002369918 903590254 -315980532 -1373229149 1501677818 -361445724 -1277620584 1097727079 234873198 1971658345 -1348567065 -540025555 -860754577 -876920093 -156868316 1597568739 -41255701 -2114796994 1261436142 -958274620 2003286033
REM
CELL 1.54180   50.00000   50.00000   50.00000   90.00000   90.00000   90.00000
LATT -1
SFAC C  
C      1  0.4197920000000  0.4118870000000  0.4947500000000 1.0
C      1  0.4078450000000  0.5569610000000  0.5206190000000 1.0
C      1  0.5337050000000  0.3790110000000  0.4796350000000 1.0
C      1  0.5416480000000  0.4858680000000  0.6084550000000 1.0
C      1  0.4019190000000  0.4900900000000  0.5430120000000 1.0
C      1  0.5101600000000  0.4859600000000  0.5574600000000 1.0
C      1  0.5119660000000  0.4456230000000  0.5975850000000 1.0
C      1  0.5191200000000  0.5967330000000  0.4433490000000 1.0
C      1  0.4628030000000  0.4106660000000  0.4394220000000 1.0
C      1  0.3965630000000  0.5197440000000  0.4828070000000 1.0
C      1  0.5880840000000  0.4551320000000  0.4645230000000 1.0
C      1  0.5201250000000  0.5793220000000  0.4179980000000 1.0
C      1  0.4871760000000  0.3941930000000  0.4869480000000 1.0
C      1  0.5871840000000  0.5023960000000  0.5392140000000 1.0
C      1  0.5601580000000  0.4930090000000  0.4074390000000 1.0
C      1  0.5851100000000  0.4399130000000  0.5361240000000 1.0
C      1  0.4704490000000  0.6066550000000  0.4678460000000 1.0
C      1  0.4425800000000  0.5216700000000  0.5067300000000 1.0
C      1  0.5296520000000  0.5456930000000  0.4517390000000 1.0
C      1  0.4761180000000  0.5664050000000  0.5031920000000 1.0
C      1  0.4709660000000  0.4913870000000  0.4446680000000 1.0
C      1  0.5672230000000  0.4727820000000  0.4763880000000 1.0
C      1  0.5431840000000  0.4456890000000  0.5364330000000 1.0
C      1  0.4883480000000  0.6092760000000  0.5415080000000 1.0
C      1  0.5095720000000  0.5541240000000  0.4697300000000 1.0
C      1  0.5127090000000  0.3809480000000  0.4956800000000 1.0
C      1  0.5692630000000  0.4666720000000  0.4207050000000 1.0
C      1  0.5556140000000  0.3772080000000  0.4634190000000 1.0
C      1  0.5246420000000  0.5238290000000  0.3932440000000 1.0
C      1  0.5769080000000  0.5363340000000  0.4367130000000 1.0
C      1  0.4387930000000  0.4666030000000  0.4844640000000 1.0
C      1  0.4166800000000  0.5412580000000  0.5640250000000 1.0
C      1  0.4784870000000  0.4368720000000  0.4299060000000 1.0
C      1  0.5082930000000  0.5408700000000  0.6013800000000 1.0
C      1  0.5168860000000  0.5644790000000  0.4976410000000 1.0
C      1  0.4590190000000  0.5673050000000  0.5725410000000 1.0
C      1  0.5023450000000  0.5271510000000  0.4790500000000 1.0
C      1  0.4054610000000  0.4664720000000  0.5613320000000 1.0
C      1  0.5593810000000  0.4985880000000  0.5885370000000 1.0
C      1  0.4955590000000  0.4682480000000  0.6101000000000 1.0
C      1  0.4075690000000  0.4375430000000  0.4911100000000 1.0
C      1  0.5368120000000  0.4966320000000  0.3910390000000 1.0
C      1  0.5235370000000  0.5141890000000  0.4949210000000 1.0
C      1  0.5313420000000  0.4299120000000  0.4197080000000 1.0
C      1  0.5008260000000  0.5389950000000  0.5723470000000 1.0
C      1  0.5419440000000  0.6074240000000  0.4905520000000 1.0
C      1  0.5208370000000  0.5206120000000  0.4411320000000 1.0
C      1  0.5737930000000  0.5194670000000  0.5188100000000 1.0
C      1  0.4679760000000  0.4980660000000  0.5437360000000 1.0
C      1  0.5119610000000  0.4920860000000  0.6145940000000 1.0
C      1  0.5215340000000  0.4233200000000  0.4906540000000 1.0
C      1  0.4758330000000  0.3932060000000  0.5518310000000 1.0
C      1  0.4454270000000  0.4351130000000  0.5472980000000 1.0
C      1  0.5655750000000  0.5551030000000  0.5442310000000 1.0
C      1  0.4320270000000  0.5881910000000  0.5067110000000 1.0
C      1  0.4506660000000  0.5302220000000  0.6024360000000 1.0
C      1  0.5358410000000  0.5911340000000  0.5624630000000 1.0
C      1  0.5752060000000  0.5617690000000  0.5706010000000 1.0
C      1  0.4791720000000  0.4166750000000  0.5088880000000 1.0
C      1  0.4391380000000  0.5475610000000  0.5847540000000 1.0
C      1  0.4760190000000  0.3996750000000  0.4623780000000 1.0
C      1  0.5106760000000  0.4391470000000  0.5426500000000 1.0
C      1  0.5471370000000  0.5922680000000  0.5370430000000 1.0
C      1  0.4257990000000  0.5844520000000  0.4773010000000 1.0
C      1  0.5421250000000  0.5980760000000  0.4621120000000 1.0
C      1  0.4992790000000  0.5650550000000  0.5210840000000 1.0
C      1  0.4683790000000  0.5170480000000  0.6191060000000 1.0
C      1  0.3978200000000  0.4780650000000  0.4660920000000 1.0
C      1  0.6071000000000  0.4610100000000  0.4884470000000 1.0
C      1  0.4395480000000  0.4159990000000  0.4733440000000 1.0
C      1  0.5387230000000  0.5467280000000  0.5413300000000 1.0
C      1  0.5805700000000  0.5638530000000  0.4751620000000 1.0
C      1  0.4662470000000  0.5287730000000  0.5148420000000 1.0
C      1  0.5007350000000  0.3858000000000  0.5405280000000 1.0
C      1  0.5677930000000  0.5213710000000  0.4134370000000 1.0
C      1  0.4946160000000  0.6200130000000  0.5126940000000 1.0
C      1  0.4496620000000  0.6107780000000  0.5143570000000 1.0
C      1  0.5153540000000  0.4406420000000  0.3983230000000 1.0
C      1  0.5491390000000  0.4588100000000  0.4908570000000 1.0
C      1  0.4181170000000  0.5641790000000  0.5458140000000 1.0
C      1  0.4166470000000  0.5434390000000  0.4467140000000 1.0
C      1  0.4399250000000  0.5478370000000  0.4282320000000 1.0
C      1  0.5493050000000  0.5722730000000  0.5865400000000 1.0
C      1  0.5201330000000  0.4744640000000  0.4506200000000 1.0
C      1  0.4728510000000  0.4580060000000  0.4521610000000 1.0
C      1  0.5591760000000  0.5918710000000  0.5116660000000 1.0
C      1  0.4040790000000  0.5185800000000  0.4527330000000 1.0
C      1  0.5538070000000  0.5581360000000  0.4397540000000 1.0
C      1  0.5562830000000  0.4424830000000  0.4303730000000 1.0
C      1  0.5648340000000  0.4307390000000  0.4571030000000 1.0
C      1  0.4702300000000  0.4719760000000  0.5330360000000 1.0
C      1  0.4956290000000  0.5082870000000  0.5450690000000 1.0
C      1  0.4693610000000  0.4532510000000  0.4058700000000 1.0
C      1  0.4885040000000  0.5380620000000  0.4074950000000 1.0
C      1  0.4602190000000  0.5439900000000  0.5386920000000 1.0
C      1  0.6012500000000  0.3965260000000  0.4552850000000 1.0
C      1  0.5065450000000  0.4252960000000  0.5159070000000 1.0
C      1  0.6018200000000  0.4568620000000  0.5174170000000 1.0
C      1  0.4282250000000  0.4026030000000  0.5225190000000 1.0
C      1  0.4174910000000  0.4926610000000  0.4468320000000 1.0
C      1  0.4461890000000  0.5918180000000  0.4585410000000 1.0
C      1  0.4350040000000  0.4190930000000  0.4447990000000 1.0
C      1  0.4110030000000  0.5606350000000  0.4708760000000 1.0
C      1  0.4794770000000  0.5544850000000  0.4548590000000 1.0
C      1  0.4429440000000  0.5828640000000  0.5543840000000 1.0
C      1  0.5282860000000  0.5322140000000  0.5636420000000 1.0
C      1  0.4936470000000  0.4570100000000  0.3898490000000 1.0
C      1  0.5076390000000  0.5192330000000  0.4150410000000 1.0
C      1  0.4953030000000  0.4644850000000  0.5453060000000 1.0
C      1  0.5950470000000  0.5423620000000  0.5714160000000 1.0
C      1  0.5505900000000  0.5113070000000  0.5050230000000 1.0
C      1  0.4890120000000  0.4087370000000  0.5712350000000 1.0
C      1  0.5135810000000  0.4734450000000  0.4241490000000 1.0
C      1  0.5500200000000  0.3953450000000  0.5330160000000 1.0
C      1  0.6093790000000  0.4901170000000  0.4918540000000 1.0
C      1  0.4589360000000  0.6035530000000  0.5410360000000 1.0
C      1  0.4557100000000  0.4096520000000  0.5333900000000 1.0
C      1  0.5845780000000  0.5478710000000  0.5220130000000 1.0
C      1  0.4164450000000  0.4369490000000  0.5560670000000 1.0
C      1  0.6049860000000  0.4860000000000  0.5212220000000 1.0
C      1  0.4915850000000  0.5029480000000  0.4640540000000 1.0
C      1  0.5770570000000  0.5703630000000  0.5021720000000 1.0
C      1  0.5183600000000  0.6137480000000  0.5014820000000 1.0
C      1  0.4493140000000  0.4742970000000  0.4104750000000 1.0
C      1  0.4783390000000  0.5779890000000  0.4320510000000 1.0
C      1  0.5235910000000  0.3832200000000  0.5246030000000 1.0
C      1  0.5884930000000  0.4976800000000  0.4481360000000 1.0
C      1  0.5504450000000  0.4201150000000  0.5244330000000 1.0
C      1  0.5370900000000  0.5471170000000  0.6012280000000 1.0
C      1  0.4261540000000  0.4726670000000  0.5768860000000 1.0
C      1  0.5075380000000  0.4285640000000  0.4656120000000 1.0
C      1  0.4484630000000  0.5062800000000  0.4567440000000 1.0
C      1  0.4707740000000  0.6171670000000  0.4953630000000 1.0
C      1  0.6157530000000  0.5426270000000  0.5344830000000 1.0
C      1  0.3883620000000  0.4907960000000  0.4909110000000 1.0
C      1  0.5899250000000  0.5365670000000  0.4623030000000 1.0
C      1  0.5382090000000  0.4917800000000  0.5248940000000 1.0
C      1  0.5443080000000  0.5657140000000  0.4110740000000 1.0
C      1  0.5638940000000  0.5800440000000  0.4580060000000 1.0
C      1  0.4955410000000  0.5660240000000  0.4112930000000 1.0
C      1  0.5106120000000  0.4826760000000  0.3978110000000 1.0
C      1  0.4667700000000  0.4692630000000  0.6115690000000 1.0
C      1  0.4479160000000  0.4918390000000  0.4808400000000 1.0
C      1  0.4890500000000  0.4662760000000  0.4977310000000 1.0
C      1  0.5666130000000  0.4840920000000  0.5610720000000 1.0
C      1  0.4488390000000  0.5750650000000  0.4345900000000 1.0
C      1  0.4245640000000  0.5112780000000  0.4957510000000 1.0
C      1  0.4236170000000  0.4603200000000  0.5089820000000 1.0
C      1  0.4915360000000  0.6012010000000  0.4488470000000 1.0
C      1  0.4991380000000  0.4573830000000  0.4679480000000 1.0
C      1  0.4600000000000  0.5296710000000  0.4144850000000 1.0
C      1  0.4532010000000  0.4925850000000  0.6179470000000 1.0
C      1  0.5914990000000  0.4704550000000  0.4387220000000 1.0
C      1  0.4769960000000  0.5383170000000  0.4907140000000 1.0
C      1  0.5079050000000  0.4258420000000  0.4372730000000 1.0
C      1  0.5128080000000  0.5075470000000  0.5206040000000 1.0
C      1  0.4548910000000  0.4460600000000  0.4753290000000 1.0
C      1  0.4464370000000  0.4573070000000  0.5297350000000 1.0
C      1  0.5063840000000  0.4284560000000  0.5732980000000 1.0
C      1  0.5487220000000  0.5399190000000  0.3995130000000 1.0
C      1  0.5211980000000  0.5465870000000  0.5190010000000 1.0
C      1  0.6074770000000  0.5233780000000  0.5540220000000 1.0
C      1  0.4505570000000  0.5674330000000  0.5159690000000 1.0
C      1  0.4722990000000  0.4429050000000  0.4972500000000 1.0
C      1  0.5481910000000  0.5251020000000  0.5848200000000 1.0
C      1  0.4265630000000  0.4692960000000  0.4282300000000 1.0
C      1  0.4602260000000  0.5356850000000  0.4638860000000 1.0
C      1  0.5469470000000  0.4334070000000  0.4812610000000 1.0
C      1  0.5385450000000  0.4918370000000  0.5539270000000 1.0
C      1  0.4024710000000  0.4493810000000  0.4648850000000 1.0
C      1  0.4485410000000  0.4808470000000  0.5910190000000 1.0
C      1  0.5744890000000  0.4123450000000  0.5298760000000 1.0
C      1  0.6025800000000  0.5105360000000  0.4702620000000 1.0
C      1  0.5674690000000  0.4551000000000  0.5526540000000 1.0
C      1  0.4618170000000  0.5008440000000  0.4168910000000 1.0
C      1  0.5105550000000  0.5995670000000  0.5549430000000 1.0
C      1  0.5351390000000  0.4598410000000  0.6015190000000 1.0
C      1  0.4107870000000  0.4156580000000  0.5399960000000 1.0
C      1  0.4813930000000  0.5557070000000  0.5571710000000 1.0
C      1  0.3992620000000  0.5489390000000  0.4948470000000 1.0
C      1  0.4196900000000  0.4442030000000  0.4405720000000 1.0
C      1  0.5403700000000  0.4648250000000  0.5154910000000 1.0
C      1  0.5332130000000  0.4998320000000  0.4589690000000 1.0
C      1  0.4468760000000  0.5165040000000  0.5495350000000 1.0
C      1  0.4985260000000  0.5177250000000  0.6160950000000 1.0
C      1  0.4000360000000  0.4807230000000  0.5158000000000 1.0
C      1  0.4183950000000  0.5145020000000  0.5514650000000 1.0
C      1  0.5624790000000  0.4976900000000  0.4640240000000 1.0
C      1  0.4790280000000  0.4908580000000  0.4868740000000 1.0
C      1  0.5767510000000  0.4009810000000  0.4570170000000 1.0
END
