TITL C-883729-9652-461 2.53412518640462 125000 -8432.17807438672 0 0 59 (C1) n - 1
REM
REM in /home/nfs/bkarasulu/CARBON/AIRSS/Generating-Clusters/ReaxFF-fromJPCA2015/Units_Real/with-SteepDescent/Only-C1/SD-CG/Try1-3A/FIRE-CG
REM
REM
REM
REM
REM
REM ./C.cell (11c1c37f851c82e70ff6c80c92926a4b)
REM
REM compiler GCC version 9.2.1 20190827 (Red Hat 9.2.1-1)
REM options -cpp -mtune=generic -march=x86-64 -g -O0 -fpre-include=/usr/include/finclude/math-vector-fortran.h
REM seed 1449575473 -1175269943 1349622401 -1233517491 546452512 -1066325571 -1298691396 -1220637122 1078585636 -640854404 1171567306 1576390381 -925854828 805941506 -2124472375 1369290670 1380298680 1730688568 499558448 948258254 -1685188352 -821220183 183491416 1603839062 1169562468 305543023 485434073 1399512032 -124972328 -1015893338 1964022909 -480195762 -68657222
REM
CELL 1.54180   50.00000   50.00000   50.00000   90.00000   90.00000   90.00000
LATT -1
SFAC C  
C      1  0.4488370000000  0.5194460000000  0.4654990000000 1.0
C      1  0.5722280000000  0.4466400000000  0.5092370000000 1.0
C      1  0.4748330000000  0.4901000000000  0.4935810000000 1.0
C      1  0.4538160000000  0.4701140000000  0.4961790000000 1.0
C      1  0.4493180000000  0.4637290000000  0.5291030000000 1.0
C      1  0.4586290000000  0.4486120000000  0.4722040000000 1.0
C      1  0.5153630000000  0.4333800000000  0.5384230000000 1.0
C      1  0.5130850000000  0.4949800000000  0.5326620000000 1.0
C      1  0.5163140000000  0.4669610000000  0.5643240000000 1.0
C      1  0.5658920000000  0.4887020000000  0.4904280000000 1.0
C      1  0.4856780000000  0.4372100000000  0.4665290000000 1.0
C      1  0.5270390000000  0.4706230000000  0.4502540000000 1.0
C      1  0.5599210000000  0.4602630000000  0.5331930000000 1.0
C      1  0.5386790000000  0.4870530000000  0.4258420000000 1.0
C      1  0.4842090000000  0.4962790000000  0.4375720000000 1.0
C      1  0.4296300000000  0.5307020000000  0.4830380000000 1.0
C      1  0.5093980000000  0.4961790000000  0.5598770000000 1.0
C      1  0.4914720000000  0.5415400000000  0.5537690000000 1.0
C      1  0.4239560000000  0.5254070000000  0.5116680000000 1.0
C      1  0.5570770000000  0.5342440000000  0.5069810000000 1.0
C      1  0.4561490000000  0.5679260000000  0.5078500000000 1.0
C      1  0.4980260000000  0.4788180000000  0.4821660000000 1.0
C      1  0.5169810000000  0.5115410000000  0.5119850000000 1.0
C      1  0.5097910000000  0.4375620000000  0.5118590000000 1.0
C      1  0.4728050000000  0.5210330000000  0.4503570000000 1.0
C      1  0.4758140000000  0.5183250000000  0.4998830000000 1.0
C      1  0.4360690000000  0.4900390000000  0.5376560000000 1.0
C      1  0.5212880000000  0.4897170000000  0.4935620000000 1.0
C      1  0.4772810000000  0.5158530000000  0.5246750000000 1.0
C      1  0.4977660000000  0.5662750000000  0.5381460000000 1.0
C      1  0.5657390000000  0.4871040000000  0.5237500000000 1.0
C      1  0.4677000000000  0.5475350000000  0.4891040000000 1.0
C      1  0.4513230000000  0.4567580000000  0.4456540000000 1.0
C      1  0.5049910000000  0.4449550000000  0.4872280000000 1.0
C      1  0.5250880000000  0.5345920000000  0.4493400000000 1.0
C      1  0.5580880000000  0.5094900000000  0.5381340000000 1.0
C      1  0.5448340000000  0.5308630000000  0.4683220000000 1.0
C      1  0.4907900000000  0.5604070000000  0.4755860000000 1.0
C      1  0.5340810000000  0.5152220000000  0.4269210000000 1.0
C      1  0.5049510000000  0.4896460000000  0.4560530000000 1.0
C      1  0.4964510000000  0.5401200000000  0.4563930000000 1.0
C      1  0.5330530000000  0.5381370000000  0.5167850000000 1.0
C      1  0.4322480000000  0.4824730000000  0.4979160000000 1.0
C      1  0.5363570000000  0.4520320000000  0.5489540000000 1.0
C      1  0.5417660000000  0.4774350000000  0.4780580000000 1.0
C      1  0.5652120000000  0.5208580000000  0.4839060000000 1.0
C      1  0.5155810000000  0.5255910000000  0.5610280000000 1.0
C      1  0.4716350000000  0.4559910000000  0.5424450000000 1.0
C      1  0.4370920000000  0.5193240000000  0.5367800000000 1.0
C      1  0.4668470000000  0.5258240000000  0.5471010000000 1.0
C      1  0.5411170000000  0.5306120000000  0.5457790000000 1.0
C      1  0.5191440000000  0.5653910000000  0.5185140000000 1.0
C      1  0.4211220000000  0.5048020000000  0.4909240000000 1.0
C      1  0.5003820000000  0.4507050000000  0.4457720000000 1.0
C      1  0.4792060000000  0.4673140000000  0.4346700000000 1.0
C      1  0.4944130000000  0.4480930000000  0.5560620000000 1.0
C      1  0.5800800000000  0.4610710000000  0.4843360000000 1.0
C      1  0.5024000000000  0.5768000000000  0.4976930000000 1.0
C      1  0.4809670000000  0.5815990000000  0.5182960000000 1.0
END
