TITL C-884130-5973-306 2.61182149119838 125000 -13604.961968247 0 0 91 (C1) n - 1
REM
REM in /home/nfs/bkarasulu/CARBON/AIRSS/Generating-Clusters/ReaxFF-fromJPCA2015/Units_Real/with-SteepDescent/Only-C1/SD-CG/Try1-3A/FIRE-CG
REM
REM
REM
REM
REM
REM ./C.cell (11c1c37f851c82e70ff6c80c92926a4b)
REM
REM compiler GCC version 9.2.1 20190827 (Red Hat 9.2.1-1)
REM options -cpp -mtune=generic -march=x86-64 -g -O0 -fpre-include=/usr/include/finclude/math-vector-fortran.h
REM seed -904441370 1318963043 1708659240 1736709969 -549100080 -230543822 -1372445498 1958646377 1189664775 -1891667982 241260794 1656492469 -1813901488 1734133555 1991862491 -1745387897 -1729111694 -1535962300 -1790567202 -1934115288 -1734830843 -1288218427 1156860613 -82665409 1027066415 -1144373203 -873177978 -1022170206 1790415055 -1831888560 -687527782 925286457 -1740127476
REM
CELL 1.54180   50.00000   50.00000   50.00000   90.00000   90.00000   90.00000
LATT -1
SFAC C  
C      1  0.5145800000000  0.5174120000000  0.4322380000000 1.0
C      1  0.5186390000000  0.4913330000000  0.4189080000000 1.0
C      1  0.5341070000000  0.5609950000000  0.5043150000000 1.0
C      1  0.5414860000000  0.4744410000000  0.4275670000000 1.0
C      1  0.4954530000000  0.5698010000000  0.4607230000000 1.0
C      1  0.4268320000000  0.5310260000000  0.5030860000000 1.0
C      1  0.5739850000000  0.5465550000000  0.5425850000000 1.0
C      1  0.5157110000000  0.4308770000000  0.5179970000000 1.0
C      1  0.4964340000000  0.5654790000000  0.5366610000000 1.0
C      1  0.5761050000000  0.5117370000000  0.5209230000000 1.0
C      1  0.5137840000000  0.5124860000000  0.5100830000000 1.0
C      1  0.5115480000000  0.5122350000000  0.4615120000000 1.0
C      1  0.5046380000000  0.4476040000000  0.4319330000000 1.0
C      1  0.5197860000000  0.4915340000000  0.5821920000000 1.0
C      1  0.4377720000000  0.4836740000000  0.5490910000000 1.0
C      1  0.4427630000000  0.4551760000000  0.5531230000000 1.0
C      1  0.4916460000000  0.5799310000000  0.4881650000000 1.0
C      1  0.5152790000000  0.4699090000000  0.4816940000000 1.0
C      1  0.4487020000000  0.4846860000000  0.5069180000000 1.0
C      1  0.4554240000000  0.5120390000000  0.4275680000000 1.0
C      1  0.5119430000000  0.5165990000000  0.5400430000000 1.0
C      1  0.5469760000000  0.5573880000000  0.4446070000000 1.0
C      1  0.4299600000000  0.5486690000000  0.4779110000000 1.0
C      1  0.4729600000000  0.4859870000000  0.4900560000000 1.0
C      1  0.4489420000000  0.4716450000000  0.4378520000000 1.0
C      1  0.4937500000000  0.4489170000000  0.5778080000000 1.0
C      1  0.4641580000000  0.5828080000000  0.4942960000000 1.0
C      1  0.4710360000000  0.4399980000000  0.4704560000000 1.0
C      1  0.4464340000000  0.4219780000000  0.5121090000000 1.0
C      1  0.4954500000000  0.4740590000000  0.4206850000000 1.0
C      1  0.4455740000000  0.4507380000000  0.4572510000000 1.0
C      1  0.5415760000000  0.4554890000000  0.5546180000000 1.0
C      1  0.5432810000000  0.4297150000000  0.5141940000000 1.0
C      1  0.4297090000000  0.4594300000000  0.5047890000000 1.0
C      1  0.5883810000000  0.5073110000000  0.4938630000000 1.0
C      1  0.5145150000000  0.5392030000000  0.5808860000000 1.0
C      1  0.4625490000000  0.4188530000000  0.4957250000000 1.0
C      1  0.5658430000000  0.5516460000000  0.4672820000000 1.0
C      1  0.5816990000000  0.4806330000000  0.4950690000000 1.0
C      1  0.5551890000000  0.4371670000000  0.4879980000000 1.0
C      1  0.4429130000000  0.5620320000000  0.5373510000000 1.0
C      1  0.5152150000000  0.4197390000000  0.4682920000000 1.0
C      1  0.5202770000000  0.4629230000000  0.5753920000000 1.0
C      1  0.5539800000000  0.4876830000000  0.4503260000000 1.0
C      1  0.4809200000000  0.4648840000000  0.5366240000000 1.0
C      1  0.5792660000000  0.5184420000000  0.5498030000000 1.0
C      1  0.4561220000000  0.5409690000000  0.4341090000000 1.0
C      1  0.4685890000000  0.4855150000000  0.4214800000000 1.0
C      1  0.4936470000000  0.4300530000000  0.4520250000000 1.0
C      1  0.4349550000000  0.5351390000000  0.5306560000000 1.0
C      1  0.4865570000000  0.4644700000000  0.4808470000000 1.0
C      1  0.5056580000000  0.5414550000000  0.5521000000000 1.0
C      1  0.4342280000000  0.5388790000000  0.4516590000000 1.0
C      1  0.4616680000000  0.4870850000000  0.5333390000000 1.0
C      1  0.4373690000000  0.5137520000000  0.5531910000000 1.0
C      1  0.4226000000000  0.4901470000000  0.4710000000000 1.0
C      1  0.5061910000000  0.4590740000000  0.5229430000000 1.0
C      1  0.5594920000000  0.5608370000000  0.5646950000000 1.0
C      1  0.4836020000000  0.4099260000000  0.5054700000000 1.0
C      1  0.4532860000000  0.5837690000000  0.5205820000000 1.0
C      1  0.5716070000000  0.4564290000000  0.5024630000000 1.0
C      1  0.4694890000000  0.5747730000000  0.5426160000000 1.0
C      1  0.4690810000000  0.5617380000000  0.4523440000000 1.0
C      1  0.5273230000000  0.5430880000000  0.4278200000000 1.0
C      1  0.4716380000000  0.5068040000000  0.4736800000000 1.0
C      1  0.4251550000000  0.5033160000000  0.4962750000000 1.0
C      1  0.4784670000000  0.5198030000000  0.5853810000000 1.0
C      1  0.5818430000000  0.5250710000000  0.4701910000000 1.0
C      1  0.5586870000000  0.5706640000000  0.4882800000000 1.0
C      1  0.4330430000000  0.4420000000000  0.5276300000000 1.0
C      1  0.5554920000000  0.5142640000000  0.5665280000000 1.0
C      1  0.4580550000000  0.5179860000000  0.5710770000000 1.0
C      1  0.5617300000000  0.5347430000000  0.5174460000000 1.0
C      1  0.4460130000000  0.4990970000000  0.4533290000000 1.0
C      1  0.4943890000000  0.5192860000000  0.4839650000000 1.0
C      1  0.5045140000000  0.5145680000000  0.5936790000000 1.0
C      1  0.5333880000000  0.4481940000000  0.4376690000000 1.0
C      1  0.5185920000000  0.4806410000000  0.5082460000000 1.0
C      1  0.5193250000000  0.5667130000000  0.4437920000000 1.0
C      1  0.5095390000000  0.4133800000000  0.4969300000000 1.0
C      1  0.4713900000000  0.4474420000000  0.5588190000000 1.0
C      1  0.5444470000000  0.5389550000000  0.5788190000000 1.0
C      1  0.5401170000000  0.4335760000000  0.4627260000000 1.0
C      1  0.5360800000000  0.5327160000000  0.5070830000000 1.0
C      1  0.4507640000000  0.5693530000000  0.4739470000000 1.0
C      1  0.4252950000000  0.4610750000000  0.4756960000000 1.0
C      1  0.5560870000000  0.4473830000000  0.5325910000000 1.0
C      1  0.5313490000000  0.4915560000000  0.4693260000000 1.0
C      1  0.5768830000000  0.5076320000000  0.4472380000000 1.0
C      1  0.5080750000000  0.5734790000000  0.5110600000000 1.0
C      1  0.5310100000000  0.5003420000000  0.5566890000000 1.0
END
