TITL C-883732-77-228 25.5294760290519 125000 -20143.8542300218 0 0 136 (C1) n - 1
REM
REM in /home/nfs/bkarasulu/CARBON/AIRSS/Generating-Clusters/ReaxFF-fromJPCA2015/Units_Real/with-SteepDescent/Only-C1/SD-CG/Try1-3A/FIRE-CG
REM
REM
REM
REM
REM
REM ./C.cell (11c1c37f851c82e70ff6c80c92926a4b)
REM
REM compiler GCC version 9.2.1 20190827 (Red Hat 9.2.1-1)
REM options -cpp -mtune=generic -march=x86-64 -g -O0 -fpre-include=/usr/include/finclude/math-vector-fortran.h
REM seed 2142631703 -1282491506 -1837163483 -316191116 1174268230 1356865915 1382919887 -113150122 -749470984 -1406116113 1111653489 1461760035 1627337441 -228258797 1959821083 1354527205 -1756660647 961824238 1126542599 1225668174 446740942 -875264852 -558876122 -763047766 -477421461 -11182186 -1893591906 1072465034 -1345856507 613448960 1471407842 745652975 -1022794984
REM
CELL 1.54180   50.00000   50.00000   50.00000   90.00000   90.00000   90.00000
LATT -1
SFAC C  
C      1  0.4691780000000  0.4324280000000  0.4238530000000 1.0
C      1  0.4380060000000  0.5659230000000  0.5469650000000 1.0
C      1  0.5517240000000  0.5785240000000  0.4724170000000 1.0
C      1  0.5169370000000  0.5334160000000  0.4892530000000 1.0
C      1  0.4549610000000  0.4065130000000  0.4713950000000 1.0
C      1  0.5194930000000  0.5774560000000  0.4325440000000 1.0
C      1  0.5423400000000  0.5650550000000  0.4472980000000 1.0
C      1  0.4477860000000  0.4953390000000  0.4714190000000 1.0
C      1  0.5376320000000  0.5422380000000  0.5082190000000 1.0
C      1  0.5550170000000  0.4402000000000  0.5316170000000 1.0
C      1  0.4812170000000  0.4480430000000  0.5804790000000 1.0
C      1  0.4552250000000  0.5349120000000  0.4528350000000 1.0
C      1  0.4674460000000  0.4045560000000  0.4982140000000 1.0
C      1  0.5329020000000  0.4478380000000  0.5775040000000 1.0
C      1  0.5552270000000  0.4649910000000  0.6201360000000 1.0
C      1  0.5195850000000  0.5443890000000  0.5679030000000 1.0
C      1  0.5615610000000  0.5674200000000  0.5303140000000 1.0
C      1  0.5143820000000  0.5806290000000  0.5434060000000 1.0
C      1  0.5798030000000  0.5507360000000  0.5447200000000 1.0
C      1  0.4357010000000  0.4657350000000  0.5552440000000 1.0
C      1  0.4639500000000  0.5278790000000  0.4008410000000 1.0
C      1  0.5029530000000  0.5242570000000  0.5241870000000 1.0
C      1  0.5129090000000  0.5056170000000  0.5974500000000 1.0
C      1  0.5284400000000  0.4592940000000  0.3980720000000 1.0
C      1  0.4917960000000  0.5480050000000  0.5744470000000 1.0
C      1  0.5288110000000  0.4210910000000  0.4567860000000 1.0
C      1  0.5438510000000  0.5206760000000  0.5270300000000 1.0
C      1  0.5404680000000  0.5131910000000  0.5932070000000 1.0
C      1  0.5533030000000  0.4248860000000  0.4728960000000 1.0
C      1  0.4970280000000  0.4051570000000  0.4945440000000 1.0
C      1  0.5804090000000  0.5331930000000  0.4605180000000 1.0
C      1  0.4713620000000  0.5576130000000  0.4080730000000 1.0
C      1  0.5431730000000  0.4434010000000  0.4914260000000 1.0
C      1  0.5525630000000  0.4551830000000  0.5565670000000 1.0
C      1  0.4209500000000  0.5641610000000  0.4778210000000 1.0
C      1  0.5510580000000  0.5163190000000  0.4280280000000 1.0
C      1  0.4478310000000  0.4257210000000  0.4113160000000 1.0
C      1  0.4835100000000  0.5607440000000  0.4704100000000 1.0
C      1  0.4825720000000  0.4586650000000  0.4177650000000 1.0
C      1  0.4904900000000  0.4497980000000  0.4902380000000 1.0
C      1  0.5938630000000  0.4894570000000  0.4871360000000 1.0
C      1  0.5905120000000  0.5208020000000  0.5340000000000 1.0
C      1  0.4812070000000  0.4091450000000  0.5529310000000 1.0
C      1  0.4041480000000  0.4683600000000  0.4843110000000 1.0
C      1  0.5223530000000  0.4768180000000  0.5218890000000 1.0
C      1  0.4702890000000  0.4453280000000  0.4699770000000 1.0
C      1  0.4822590000000  0.5441140000000  0.4469470000000 1.0
C      1  0.4674050000000  0.4761000000000  0.5128910000000 1.0
C      1  0.5738320000000  0.4438170000000  0.4664940000000 1.0
C      1  0.4055000000000  0.5156950000000  0.4776450000000 1.0
C      1  0.4573100000000  0.4181640000000  0.5459740000000 1.0
C      1  0.4837810000000  0.5898720000000  0.4669530000000 1.0
C      1  0.4269310000000  0.4358680000000  0.5142020000000 1.0
C      1  0.5190320000000  0.6109310000000  0.4716690000000 1.0
C      1  0.4491940000000  0.5240350000000  0.4786520000000 1.0
C      1  0.5075540000000  0.4793520000000  0.6059410000000 1.0
C      1  0.5218880000000  0.5256250000000  0.5452870000000 1.0
C      1  0.4315610000000  0.4856190000000  0.4485260000000 1.0
C      1  0.4772530000000  0.4880170000000  0.4672230000000 1.0
C      1  0.5822370000000  0.5044830000000  0.4619910000000 1.0
C      1  0.5417860000000  0.4146420000000  0.5267010000000 1.0
C      1  0.5657850000000  0.4940810000000  0.4416420000000 1.0
C      1  0.4065430000000  0.4892170000000  0.4635280000000 1.0
C      1  0.5066330000000  0.4344270000000  0.5749300000000 1.0
C      1  0.5578110000000  0.5408060000000  0.4430090000000 1.0
C      1  0.5739070000000  0.4651540000000  0.4472600000000 1.0
C      1  0.4423400000000  0.4915740000000  0.5678660000000 1.0
C      1  0.5045010000000  0.5240950000000  0.4395240000000 1.0
C      1  0.4340900000000  0.4253700000000  0.4737000000000 1.0
C      1  0.4776850000000  0.4679000000000  0.5383930000000 1.0
C      1  0.4680060000000  0.4825480000000  0.4103280000000 1.0
C      1  0.4137780000000  0.5400390000000  0.4633070000000 1.0
C      1  0.5402570000000  0.5887400000000  0.5004250000000 1.0
C      1  0.4464680000000  0.5656440000000  0.4206110000000 1.0
C      1  0.5192710000000  0.4018520000000  0.5135250000000 1.0
C      1  0.5123070000000  0.4685930000000  0.4949310000000 1.0
C      1  0.5458860000000  0.4932350000000  0.5175490000000 1.0
C      1  0.4782750000000  0.5395190000000  0.5200360000000 1.0
C      1  0.4636170000000  0.5787430000000  0.5394370000000 1.0
C      1  0.5376770000000  0.5692470000000  0.5211820000000 1.0
C      1  0.4398540000000  0.5193520000000  0.4139320000000 1.0
C      1  0.4929730000000  0.5044750000000  0.4515860000000 1.0
C      1  0.5244800000000  0.3983340000000  0.5404780000000 1.0
C      1  0.4772700000000  0.4198170000000  0.4543100000000 1.0
C      1  0.4881410000000  0.5698410000000  0.5555820000000 1.0
C      1  0.4639260000000  0.5868930000000  0.5105560000000 1.0
C      1  0.5636880000000  0.5483560000000  0.5667290000000 1.0
C      1  0.5152040000000  0.6056020000000  0.4988980000000 1.0
C      1  0.5121910000000  0.4575530000000  0.4224950000000 1.0
C      1  0.5246130000000  0.5189880000000  0.4165930000000 1.0
C      1  0.5246560000000  0.4489410000000  0.4487480000000 1.0
C      1  0.4801490000000  0.4724890000000  0.5958380000000 1.0
C      1  0.5921660000000  0.5469240000000  0.4850980000000 1.0
C      1  0.5444660000000  0.5417860000000  0.5854960000000 1.0
C      1  0.5305710000000  0.4605590000000  0.6039260000000 1.0
C      1  0.4634920000000  0.4517920000000  0.4975780000000 1.0
C      1  0.5069300000000  0.5081130000000  0.5003080000000 1.0
C      1  0.4078360000000  0.4786930000000  0.5108520000000 1.0
C      1  0.4862280000000  0.5982240000000  0.4950240000000 1.0
C      1  0.4317180000000  0.5414200000000  0.4341800000000 1.0
C      1  0.4399660000000  0.5138460000000  0.5480110000000 1.0
C      1  0.5723530000000  0.5668060000000  0.4841050000000 1.0
C      1  0.5030420000000  0.4805120000000  0.5442620000000 1.0
C      1  0.4416910000000  0.4915950000000  0.4214580000000 1.0
C      1  0.4872400000000  0.5162050000000  0.5822920000000 1.0
C      1  0.5133400000000  0.6032910000000  0.5533430000000 1.0
C      1  0.4358940000000  0.5480230000000  0.4988170000000 1.0
C      1  0.5667650000000  0.4809180000000  0.5600480000000 1.0
C      1  0.5306930000000  0.4619140000000  0.4738250000000 1.0
C      1  0.4811980000000  0.4953090000000  0.4955810000000 1.0
C      1  0.5770090000000  0.4829470000000  0.6099430000000 1.0
C      1  0.4813690000000  0.5052730000000  0.3972520000000 1.0
C      1  0.4987710000000  0.5671490000000  0.4156240000000 1.0
C      1  0.5034750000000  0.4106230000000  0.4669090000000 1.0
C      1  0.6182020000000  0.4836060000000  0.4874840000000 1.0
C      1  0.4160500000000  0.5204360000000  0.5315810000000 1.0
C      1  0.4075650000000  0.5072770000000  0.5067930000000 1.0
C      1  0.5063780000000  0.4066030000000  0.5621980000000 1.0
C      1  0.4407280000000  0.5776530000000  0.4951940000000 1.0
C      1  0.4234100000000  0.5479100000000  0.5279650000000 1.0
C      1  0.4221180000000  0.4601480000000  0.5302610000000 1.0
C      1  0.5825780000000  0.4924350000000  0.5383120000000 1.0
C      1  0.5658180000000  0.4507150000000  0.5066320000000 1.0
C      1  0.4876070000000  0.5041970000000  0.5538570000000 1.0
C      1  0.4670450000000  0.5187980000000  0.5380430000000 1.0
C      1  0.5738860000000  0.4797980000000  0.5116740000000 1.0
C      1  0.4643820000000  0.4951940000000  0.5866480000000 1.0
C      1  0.4488140000000  0.4159500000000  0.5180480000000 1.0
C      1  0.4605750000000  0.4485230000000  0.5580940000000 1.0
C      1  0.4145270000000  0.4401810000000  0.4870650000000 1.0
C      1  0.5630200000000  0.4951980000000  0.5859870000000 1.0
C      1  0.5062950000000  0.5991360000000  0.4494200000000 1.0
C      1  0.4911860000000  0.5464530000000  0.4943810000000 1.0
C      1  0.5112000000000  0.5063030000000  0.3944340000000 1.0
C      1  0.5239920000000  0.4805920000000  0.3904910000000 1.0
C      1  0.5929850000000  0.5321090000000  0.5098840000000 1.0
END
