TITL C-883726-8501-382 107.237635430841 125000 -24864.8405590246 0 0 167 (C1) n - 1
REM
REM in /home/nfs/bkarasulu/CARBON/AIRSS/Generating-Clusters/ReaxFF-fromJPCA2015/Units_Real/with-SteepDescent/Only-C1/SD-CG/Try1-3A/FIRE-CG
REM
REM
REM
REM
REM
REM ./C.cell (11c1c37f851c82e70ff6c80c92926a4b)
REM
REM compiler GCC version 9.2.1 20190827 (Red Hat 9.2.1-1)
REM options -cpp -mtune=generic -march=x86-64 -g -O0 -fpre-include=/usr/include/finclude/math-vector-fortran.h
REM seed -1272102058 -831182585 597861998 1462284927 -122653437 -1360700614 2138524476 -775341327 -1647491017 -1891845376 -578804904 -2008483199 2018442369 -1938428402 241714362 119196808 739863684 -150262581 -1434186214 162718148 1542694199 -1825823142 -454770643 1877069306 -1512629700 -650482103 -142648917 -752303218 -818562377 854223139 1039473285 544425834 -91940897
REM
CELL 1.54180   50.00000   50.00000   50.00000   90.00000   90.00000   90.00000
LATT -1
SFAC C  
C      1  0.5010640000000  0.5005420000000  0.4169000000000 1.0
C      1  0.5632010000000  0.5431210000000  0.5026520000000 1.0
C      1  0.5815050000000  0.5621240000000  0.4565320000000 1.0
C      1  0.4184750000000  0.5679770000000  0.5340990000000 1.0
C      1  0.4368220000000  0.5211770000000  0.4418260000000 1.0
C      1  0.5508620000000  0.5538390000000  0.5657480000000 1.0
C      1  0.5503210000000  0.4705860000000  0.4768590000000 1.0
C      1  0.4007900000000  0.5100910000000  0.5671000000000 1.0
C      1  0.4819360000000  0.4841380000000  0.5868950000000 1.0
C      1  0.5267690000000  0.4799550000000  0.5451570000000 1.0
C      1  0.5422260000000  0.5146170000000  0.5850730000000 1.0
C      1  0.5231650000000  0.5395840000000  0.4503460000000 1.0
C      1  0.5385680000000  0.5441610000000  0.5889960000000 1.0
C      1  0.5400240000000  0.5758550000000  0.4263910000000 1.0
C      1  0.5751790000000  0.4260580000000  0.5123210000000 1.0
C      1  0.4280820000000  0.5553040000000  0.5085320000000 1.0
C      1  0.5549140000000  0.5729770000000  0.5055160000000 1.0
C      1  0.4434410000000  0.6067530000000  0.4728480000000 1.0
C      1  0.4656800000000  0.5774520000000  0.4427880000000 1.0
C      1  0.5238620000000  0.5060650000000  0.3984900000000 1.0
C      1  0.5248460000000  0.4209310000000  0.5684230000000 1.0
C      1  0.4481470000000  0.4259200000000  0.4823470000000 1.0
C      1  0.5153900000000  0.4891650000000  0.4433920000000 1.0
C      1  0.5119230000000  0.4316960000000  0.5931210000000 1.0
C      1  0.5525780000000  0.4978090000000  0.4881480000000 1.0
C      1  0.5871230000000  0.5355900000000  0.5230550000000 1.0
C      1  0.4909840000000  0.4715900000000  0.4836370000000 1.0
C      1  0.4722260000000  0.4215180000000  0.5702280000000 1.0
C      1  0.4964510000000  0.5703610000000  0.5116060000000 1.0
C      1  0.5267800000000  0.4059270000000  0.5146230000000 1.0
C      1  0.5507180000000  0.4270110000000  0.5541750000000 1.0
C      1  0.5925280000000  0.4948040000000  0.5513420000000 1.0
C      1  0.4874190000000  0.4483860000000  0.4969900000000 1.0
C      1  0.5515870000000  0.4161930000000  0.5268130000000 1.0
C      1  0.3981270000000  0.4701260000000  0.4642430000000 1.0
C      1  0.5214890000000  0.4825520000000  0.6132770000000 1.0
C      1  0.4785660000000  0.5106190000000  0.5438180000000 1.0
C      1  0.4097680000000  0.5085510000000  0.4348410000000 1.0
C      1  0.4308660000000  0.5587220000000  0.4793910000000 1.0
C      1  0.4908430000000  0.4172430000000  0.4865700000000 1.0
C      1  0.4796990000000  0.4834020000000  0.4089920000000 1.0
C      1  0.5637640000000  0.5596010000000  0.5439820000000 1.0
C      1  0.4005710000000  0.5472760000000  0.5374430000000 1.0
C      1  0.4518630000000  0.4195330000000  0.5100750000000 1.0
C      1  0.6024180000000  0.5142500000000  0.5091100000000 1.0
C      1  0.4682460000000  0.5729510000000  0.5176940000000 1.0
C      1  0.4590760000000  0.4806860000000  0.3921880000000 1.0
C      1  0.5639850000000  0.4676150000000  0.4453590000000 1.0
C      1  0.5086280000000  0.5974640000000  0.5143550000000 1.0
C      1  0.5377560000000  0.4555950000000  0.4990000000000 1.0
C      1  0.3967630000000  0.4718190000000  0.5329500000000 1.0
C      1  0.4648360000000  0.5277470000000  0.5042010000000 1.0
C      1  0.5684800000000  0.5181000000000  0.4311700000000 1.0
C      1  0.4735310000000  0.4566730000000  0.4031490000000 1.0
C      1  0.5386470000000  0.4124570000000  0.4647140000000 1.0
C      1  0.4776670000000  0.4065060000000  0.5118870000000 1.0
C      1  0.6091580000000  0.4651030000000  0.5151730000000 1.0
C      1  0.4580580000000  0.5027310000000  0.4575740000000 1.0
C      1  0.3959470000000  0.5232600000000  0.4759840000000 1.0
C      1  0.4451640000000  0.4856880000000  0.5493500000000 1.0
C      1  0.5007330000000  0.4043410000000  0.5297150000000 1.0
C      1  0.5415200000000  0.4828300000000  0.4332720000000 1.0
C      1  0.5454110000000  0.4855010000000  0.4042190000000 1.0
C      1  0.4335340000000  0.4490430000000  0.4418400000000 1.0
C      1  0.5443170000000  0.4329420000000  0.4189170000000 1.0
C      1  0.5030290000000  0.4934560000000  0.5048880000000 1.0
C      1  0.4326310000000  0.4864450000000  0.5969270000000 1.0
C      1  0.5762780000000  0.4950090000000  0.4154250000000 1.0
C      1  0.4943520000000  0.5786830000000  0.5565890000000 1.0
C      1  0.5784270000000  0.5206360000000  0.5462820000000 1.0
C      1  0.4209870000000  0.5244410000000  0.5828510000000 1.0
C      1  0.5427370000000  0.4661400000000  0.5257440000000 1.0
C      1  0.5741540000000  0.4442480000000  0.5576230000000 1.0
C      1  0.4871390000000  0.5150880000000  0.5206620000000 1.0
C      1  0.4696570000000  0.5059760000000  0.5678790000000 1.0
C      1  0.4802190000000  0.4566440000000  0.5479050000000 1.0
C      1  0.6096280000000  0.5180950000000  0.4794630000000 1.0
C      1  0.4666720000000  0.5926700000000  0.4858680000000 1.0
C      1  0.4478960000000  0.4842680000000  0.4773280000000 1.0
C      1  0.5605890000000  0.5243620000000  0.4790080000000 1.0
C      1  0.4698000000000  0.5351310000000  0.6088070000000 1.0
C      1  0.4360900000000  0.4963320000000  0.4006830000000 1.0
C      1  0.5272990000000  0.4193970000000  0.4387500000000 1.0
C      1  0.4387700000000  0.5463400000000  0.5739970000000 1.0
C      1  0.4960470000000  0.4970850000000  0.6089820000000 1.0
C      1  0.5803490000000  0.4377390000000  0.4868470000000 1.0
C      1  0.5811370000000  0.4712240000000  0.5684450000000 1.0
C      1  0.5948740000000  0.4664340000000  0.4892940000000 1.0
C      1  0.5898460000000  0.4827520000000  0.4374880000000 1.0
C      1  0.4117820000000  0.4532260000000  0.5165170000000 1.0
C      1  0.5761480000000  0.5140850000000  0.4583480000000 1.0
C      1  0.4945600000000  0.4537370000000  0.5254160000000 1.0
C      1  0.4008570000000  0.4810480000000  0.5617380000000 1.0
C      1  0.5196850000000  0.4578300000000  0.6005710000000 1.0
C      1  0.4020640000000  0.4991690000000  0.5236120000000 1.0
C      1  0.4323100000000  0.5084930000000  0.6053860000000 1.0
C      1  0.4535810000000  0.5497200000000  0.5152850000000 1.0
C      1  0.4918650000000  0.5584450000000  0.5771270000000 1.0
C      1  0.5322560000000  0.4551570000000  0.4031620000000 1.0
C      1  0.4455150000000  0.5011570000000  0.4993800000000 1.0
C      1  0.4663620000000  0.5793010000000  0.5474360000000 1.0
C      1  0.4429860000000  0.5228070000000  0.4115690000000 1.0
C      1  0.3938070000000  0.4984970000000  0.4587220000000 1.0
C      1  0.5274060000000  0.4567430000000  0.4734640000000 1.0
C      1  0.4365540000000  0.4530760000000  0.4727330000000 1.0
C      1  0.6096150000000  0.4909420000000  0.5285750000000 1.0
C      1  0.5462980000000  0.5792350000000  0.5322050000000 1.0
C      1  0.4793780000000  0.5410850000000  0.4797100000000 1.0
C      1  0.4916570000000  0.4632830000000  0.5725990000000 1.0
C      1  0.4135320000000  0.4862690000000  0.4167420000000 1.0
C      1  0.4929230000000  0.6011690000000  0.4728500000000 1.0
C      1  0.5218760000000  0.5345510000000  0.3935920000000 1.0
C      1  0.5055890000000  0.4788190000000  0.5281980000000 1.0
C      1  0.4570830000000  0.4624280000000  0.5372860000000 1.0
C      1  0.4475350000000  0.4237420000000  0.5567550000000 1.0
C      1  0.4929320000000  0.5411710000000  0.3917050000000 1.0
C      1  0.5175090000000  0.6020940000000  0.4870870000000 1.0
C      1  0.5390790000000  0.5278770000000  0.5136090000000 1.0
C      1  0.5107120000000  0.5782690000000  0.4291650000000 1.0
C      1  0.4388870000000  0.4390420000000  0.5306430000000 1.0
C      1  0.4403240000000  0.5683350000000  0.5555100000000 1.0
C      1  0.5451540000000  0.5346600000000  0.4294510000000 1.0
C      1  0.5254330000000  0.5580590000000  0.4737310000000 1.0
C      1  0.4312800000000  0.4974420000000  0.5245060000000 1.0
C      1  0.4736770000000  0.4246000000000  0.4390420000000 1.0
C      1  0.5030310000000  0.5547220000000  0.4896070000000 1.0
C      1  0.5701940000000  0.4717370000000  0.5250520000000 1.0
C      1  0.5981500000000  0.4935810000000  0.4643480000000 1.0
C      1  0.5657790000000  0.4378740000000  0.4385180000000 1.0
C      1  0.5121290000000  0.5121190000000  0.4633990000000 1.0
C      1  0.4590180000000  0.5658220000000  0.4702730000000 1.0
C      1  0.4830020000000  0.5164350000000  0.4635260000000 1.0
C      1  0.5485440000000  0.5204380000000  0.5393480000000 1.0
C      1  0.4422630000000  0.5962380000000  0.4446140000000 1.0
C      1  0.5662090000000  0.4252990000000  0.4646630000000 1.0
C      1  0.4992110000000  0.5533820000000  0.4382490000000 1.0
C      1  0.5097820000000  0.5463730000000  0.5957050000000 1.0
C      1  0.5657130000000  0.4807130000000  0.5894080000000 1.0
C      1  0.4906170000000  0.5936170000000  0.4439990000000 1.0
C      1  0.5779770000000  0.4881270000000  0.5033290000000 1.0
C      1  0.5488250000000  0.4948640000000  0.6060420000000 1.0
C      1  0.4101990000000  0.4560600000000  0.4878870000000 1.0
C      1  0.5048660000000  0.4646480000000  0.4582400000000 1.0
C      1  0.5209100000000  0.4076620000000  0.4867920000000 1.0
C      1  0.4652130000000  0.5384230000000  0.4005010000000 1.0
C      1  0.4999080000000  0.4119940000000  0.5573710000000 1.0
C      1  0.3909850000000  0.5213640000000  0.5416880000000 1.0
C      1  0.5415630000000  0.5527440000000  0.4077980000000 1.0
C      1  0.4668990000000  0.5390570000000  0.5803940000000 1.0
C      1  0.6016250000000  0.5436880000000  0.4677170000000 1.0
C      1  0.5023450000000  0.4367100000000  0.4360910000000 1.0
C      1  0.4275070000000  0.4750710000000  0.5716880000000 1.0
C      1  0.5056920000000  0.4477410000000  0.4084910000000 1.0
C      1  0.4830680000000  0.4426260000000  0.5893450000000 1.0
C      1  0.4685440000000  0.4146540000000  0.4654720000000 1.0
C      1  0.5891760000000  0.4457270000000  0.5314380000000 1.0
C      1  0.5415780000000  0.5826630000000  0.4801640000000 1.0
C      1  0.4095430000000  0.4644450000000  0.4372140000000 1.0
C      1  0.5261740000000  0.5091370000000  0.4947660000000 1.0
C      1  0.4951320000000  0.5265440000000  0.6128880000000 1.0
C      1  0.5181490000000  0.5893210000000  0.5405590000000 1.0
C      1  0.4877330000000  0.5321780000000  0.4203090000000 1.0
C      1  0.4569890000000  0.5112790000000  0.6151040000000 1.0
C      1  0.4557080000000  0.4416460000000  0.4253590000000 1.0
C      1  0.5334030000000  0.5050270000000  0.5584600000000 1.0
C      1  0.5561900000000  0.5753910000000  0.4518220000000 1.0
C      1  0.4186200000000  0.5384950000000  0.4637790000000 1.0
END
