TITL C-884133-6611-157 -0.316730761407337 125000 -8266.8624595268 0 0 57 (C1) n - 1
REM
REM in /home/nfs/bkarasulu/CARBON/AIRSS/Generating-Clusters/ReaxFF-fromJPCA2015/Units_Real/with-SteepDescent/Only-C1/SD-CG/Try1-3A/FIRE-CG
REM
REM
REM
REM
REM
REM ./C.cell (11c1c37f851c82e70ff6c80c92926a4b)
REM
REM compiler GCC version 9.2.1 20190827 (Red Hat 9.2.1-1)
REM options -cpp -mtune=generic -march=x86-64 -g -O0 -fpre-include=/usr/include/finclude/math-vector-fortran.h
REM seed -1372837719 1327535326 1289229527 1612995289 -1430415663 -1289698380 -37244202 919208344 -1801000163 -501022217 1221134228 -1006295411 -198913484 -643441473 -2062616077 2143857401 1601546406 1345733473 -1177033308 1753039297 50703329 -895176449 -1635385762 -14555330 -474078096 -549057443 -1924070526 1513127750 -337910644 -2037589817 -1417080217 -1315148783 1119178701
REM
CELL 1.54180   50.00000   50.00000   50.00000   90.00000   90.00000   90.00000
LATT -1
SFAC C  
C      1  0.4387360000000  0.4663770000000  0.5346290000000 1.0
C      1  0.4780430000000  0.4448760000000  0.5225420000000 1.0
C      1  0.5322250000000  0.4516450000000  0.4935880000000 1.0
C      1  0.4957010000000  0.4884660000000  0.5642170000000 1.0
C      1  0.4242940000000  0.4987740000000  0.5111590000000 1.0
C      1  0.4564290000000  0.5516910000000  0.4924000000000 1.0
C      1  0.4453970000000  0.4813670000000  0.5577660000000 1.0
C      1  0.4934600000000  0.5601250000000  0.4757990000000 1.0
C      1  0.4917980000000  0.5227090000000  0.4341280000000 1.0
C      1  0.5120550000000  0.5160330000000  0.4803040000000 1.0
C      1  0.4546170000000  0.5213740000000  0.5624040000000 1.0
C      1  0.4639870000000  0.4344360000000  0.4980650000000 1.0
C      1  0.5145590000000  0.5103650000000  0.5531580000000 1.0
C      1  0.4536130000000  0.4946630000000  0.4575600000000 1.0
C      1  0.4431460000000  0.5327470000000  0.4894290000000 1.0
C      1  0.5612860000000  0.5012820000000  0.5288020000000 1.0
C      1  0.4579940000000  0.4663650000000  0.4620990000000 1.0
C      1  0.5038710000000  0.4448180000000  0.5346090000000 1.0
C      1  0.5344780000000  0.4623800000000  0.4701060000000 1.0
C      1  0.5080160000000  0.4632350000000  0.5573870000000 1.0
C      1  0.5499180000000  0.4919040000000  0.4457530000000 1.0
C      1  0.5650930000000  0.4901370000000  0.4736660000000 1.0
C      1  0.5410160000000  0.4946820000000  0.5489540000000 1.0
C      1  0.5377460000000  0.5407980000000  0.4536230000000 1.0
C      1  0.4555680000000  0.5065950000000  0.4830650000000 1.0
C      1  0.5561410000000  0.5396640000000  0.4783330000000 1.0
C      1  0.5068450000000  0.5024400000000  0.4214800000000 1.0
C      1  0.5296330000000  0.4399480000000  0.5190990000000 1.0
C      1  0.4723370000000  0.4923590000000  0.5026290000000 1.0
C      1  0.4806180000000  0.5625850000000  0.5015490000000 1.0
C      1  0.5256730000000  0.4807960000000  0.4339580000000 1.0
C      1  0.4803130000000  0.5436580000000  0.5260920000000 1.0
C      1  0.5372040000000  0.5190120000000  0.4928430000000 1.0
C      1  0.4319800000000  0.5269300000000  0.5153890000000 1.0
C      1  0.5498940000000  0.5208500000000  0.4360340000000 1.0
C      1  0.5135920000000  0.4612660000000  0.4512350000000 1.0
C      1  0.5566450000000  0.5616210000000  0.5009750000000 1.0
C      1  0.4460230000000  0.4553490000000  0.4868250000000 1.0
C      1  0.4984190000000  0.5058060000000  0.5043270000000 1.0
C      1  0.5788640000000  0.5152980000000  0.4758840000000 1.0
C      1  0.4666890000000  0.4722240000000  0.5239390000000 1.0
C      1  0.4275940000000  0.4701020000000  0.5063980000000 1.0
C      1  0.4794620000000  0.4335760000000  0.4746510000000 1.0
C      1  0.4493030000000  0.5098270000000  0.4103260000000 1.0
C      1  0.5513220000000  0.4453630000000  0.5394250000000 1.0
C      1  0.4534610000000  0.5350830000000  0.5365160000000 1.0
C      1  0.5714590000000  0.5287330000000  0.5332110000000 1.0
C      1  0.5014130000000  0.5236740000000  0.5281660000000 1.0
C      1  0.5578180000000  0.5549100000000  0.5285900000000 1.0
C      1  0.4674120000000  0.4941650000000  0.5704450000000 1.0
C      1  0.4617580000000  0.5126160000000  0.4330090000000 1.0
C      1  0.4847480000000  0.4520640000000  0.4551230000000 1.0
C      1  0.5520050000000  0.4950270000000  0.5009250000000 1.0
C      1  0.5350610000000  0.5608220000000  0.5508250000000 1.0
C      1  0.5066680000000  0.5376210000000  0.4581880000000 1.0
C      1  0.5187900000000  0.5418770000000  0.5625890000000 1.0
C      1  0.5378130000000  0.4668890000000  0.5558100000000 1.0
END
