TITL C-883726-8501-189 27.3469398106213 125000 -18108.1341487374 0 0 124 (C1) n - 1
REM
REM in /home/nfs/bkarasulu/CARBON/AIRSS/Generating-Clusters/ReaxFF-fromJPCA2015/Units_Real/with-SteepDescent/Only-C1/SD-CG/Try1-3A/FIRE-CG
REM
REM
REM
REM
REM
REM ./C.cell (11c1c37f851c82e70ff6c80c92926a4b)
REM
REM compiler GCC version 9.2.1 20190827 (Red Hat 9.2.1-1)
REM options -cpp -mtune=generic -march=x86-64 -g -O0 -fpre-include=/usr/include/finclude/math-vector-fortran.h
REM seed 62638634 609858780 -195265802 274924713 -1954458224 -1114017390 577914362 -115165721 -797144639 -1672095187 -1145524392 451472816 -1734181453 -872077702 -489780092 1781712230 821411759 -254779293 -1449654462 1564210269 -1896435589 1649295916 1706618013 -386891041 -146315725 1050919854 -1149102204 2102736645 1608322243 253714589 -973969375 2014308912 32227525
REM
CELL 1.54180   50.00000   50.00000   50.00000   90.00000   90.00000   90.00000
LATT -1
SFAC C  
C      1  0.4749910000000  0.6013240000000  0.5217260000000 1.0
C      1  0.4896370000000  0.5093290000000  0.5454000000000 1.0
C      1  0.5176570000000  0.5304080000000  0.5022290000000 1.0
C      1  0.5285690000000  0.4180260000000  0.4457460000000 1.0
C      1  0.4702310000000  0.5509160000000  0.5081440000000 1.0
C      1  0.4509900000000  0.4137900000000  0.4840220000000 1.0
C      1  0.4355540000000  0.5038730000000  0.5626900000000 1.0
C      1  0.4360620000000  0.5342080000000  0.5562350000000 1.0
C      1  0.4344970000000  0.5155600000000  0.4353060000000 1.0
C      1  0.5091150000000  0.4059260000000  0.4620990000000 1.0
C      1  0.5742510000000  0.5366320000000  0.4362570000000 1.0
C      1  0.4245850000000  0.4848790000000  0.5434200000000 1.0
C      1  0.5279610000000  0.5678440000000  0.4423450000000 1.0
C      1  0.4934440000000  0.4113120000000  0.5372650000000 1.0
C      1  0.4898200000000  0.5050260000000  0.4132430000000 1.0
C      1  0.4704250000000  0.5565530000000  0.4279340000000 1.0
C      1  0.4728000000000  0.5034760000000  0.4862200000000 1.0
C      1  0.5570990000000  0.4527040000000  0.4806900000000 1.0
C      1  0.5176420000000  0.4939920000000  0.4139870000000 1.0
C      1  0.4602570000000  0.5310500000000  0.4437100000000 1.0
C      1  0.5531900000000  0.4231670000000  0.4877630000000 1.0
C      1  0.3982350000000  0.5435090000000  0.4592550000000 1.0
C      1  0.5741510000000  0.5515540000000  0.4607970000000 1.0
C      1  0.5738860000000  0.5105850000000  0.4855760000000 1.0
C      1  0.4099190000000  0.4532540000000  0.4342990000000 1.0
C      1  0.5871590000000  0.4936140000000  0.5056700000000 1.0
C      1  0.5451550000000  0.5792720000000  0.5399820000000 1.0
C      1  0.5086570000000  0.5806790000000  0.4544840000000 1.0
C      1  0.5174400000000  0.5439070000000  0.4209170000000 1.0
C      1  0.4793280000000  0.5980320000000  0.4940010000000 1.0
C      1  0.4336170000000  0.5459120000000  0.5276750000000 1.0
C      1  0.4374830000000  0.4462290000000  0.5165290000000 1.0
C      1  0.4178610000000  0.5617290000000  0.4631920000000 1.0
C      1  0.4853460000000  0.5109090000000  0.4432190000000 1.0
C      1  0.5007130000000  0.4504950000000  0.4156670000000 1.0
C      1  0.4771040000000  0.4207920000000  0.5143900000000 1.0
C      1  0.4412140000000  0.5206730000000  0.4844320000000 1.0
C      1  0.5459840000000  0.4138900000000  0.5142420000000 1.0
C      1  0.5516580000000  0.5077890000000  0.5384230000000 1.0
C      1  0.4176830000000  0.5153990000000  0.4600480000000 1.0
C      1  0.5351260000000  0.4873990000000  0.5524980000000 1.0
C      1  0.5263670000000  0.4802280000000  0.5093160000000 1.0
C      1  0.5193020000000  0.4691230000000  0.4321770000000 1.0
C      1  0.5615050000000  0.5235270000000  0.4181500000000 1.0
C      1  0.4481620000000  0.5456730000000  0.5800610000000 1.0
C      1  0.5199410000000  0.4466110000000  0.5392490000000 1.0
C      1  0.4566080000000  0.4927760000000  0.5777120000000 1.0
C      1  0.5686730000000  0.4437650000000  0.4548190000000 1.0
C      1  0.4888800000000  0.5546580000000  0.5643710000000 1.0
C      1  0.4683960000000  0.4666970000000  0.5488430000000 1.0
C      1  0.5764920000000  0.5403960000000  0.5382440000000 1.0
C      1  0.4916950000000  0.4524390000000  0.5361020000000 1.0
C      1  0.5087160000000  0.4962990000000  0.5488000000000 1.0
C      1  0.5821500000000  0.5518130000000  0.5130520000000 1.0
C      1  0.4450090000000  0.5697820000000  0.4700250000000 1.0
C      1  0.5733310000000  0.4539460000000  0.5279830000000 1.0
C      1  0.4851620000000  0.5931610000000  0.4653240000000 1.0
C      1  0.4928560000000  0.5198630000000  0.5960710000000 1.0
C      1  0.5857660000000  0.4576210000000  0.4744590000000 1.0
C      1  0.4902420000000  0.4470760000000  0.5075190000000 1.0
C      1  0.5383500000000  0.4286790000000  0.5539120000000 1.0
C      1  0.5489590000000  0.5675210000000  0.4628910000000 1.0
C      1  0.4406140000000  0.4946620000000  0.4154120000000 1.0
C      1  0.5200930000000  0.4964020000000  0.4734430000000 1.0
C      1  0.4479900000000  0.5634540000000  0.5086280000000 1.0
C      1  0.5350320000000  0.5167500000000  0.4098870000000 1.0
C      1  0.5047910000000  0.5794450000000  0.5627780000000 1.0
C      1  0.4766680000000  0.4872320000000  0.4621190000000 1.0
C      1  0.5239010000000  0.4905240000000  0.5952290000000 1.0
C      1  0.5235520000000  0.4392540000000  0.4278070000000 1.0
C      1  0.5538960000000  0.4182590000000  0.4583460000000 1.0
C      1  0.5327170000000  0.5080340000000  0.5130580000000 1.0
C      1  0.5596630000000  0.5298460000000  0.5585860000000 1.0
C      1  0.4725680000000  0.4553180000000  0.4191440000000 1.0
C      1  0.4404810000000  0.4602500000000  0.5416910000000 1.0
C      1  0.5398740000000  0.4656520000000  0.5304710000000 1.0
C      1  0.5105240000000  0.3901540000000  0.4869500000000 1.0
C      1  0.4546000000000  0.5419710000000  0.4705980000000 1.0
C      1  0.4642410000000  0.4866230000000  0.5070610000000 1.0
C      1  0.5081720000000  0.4158910000000  0.4888960000000 1.0
C      1  0.4151360000000  0.4814540000000  0.4954180000000 1.0
C      1  0.4719930000000  0.4904040000000  0.5334810000000 1.0
C      1  0.4893910000000  0.5404820000000  0.4135550000000 1.0
C      1  0.5817130000000  0.5382020000000  0.4858880000000 1.0
C      1  0.5225380000000  0.5917440000000  0.5254480000000 1.0
C      1  0.4990180000000  0.5976370000000  0.5410250000000 1.0
C      1  0.5174420000000  0.5717980000000  0.5044940000000 1.0
C      1  0.5398150000000  0.5224740000000  0.4507050000000 1.0
C      1  0.5370700000000  0.5403140000000  0.5747810000000 1.0
C      1  0.4771670000000  0.5435750000000  0.5889100000000 1.0
C      1  0.4525720000000  0.4669770000000  0.4629320000000 1.0
C      1  0.5412560000000  0.4732050000000  0.5801170000000 1.0
C      1  0.4072240000000  0.4892520000000  0.4691630000000 1.0
C      1  0.5014650000000  0.5126030000000  0.4869740000000 1.0
C      1  0.4677170000000  0.4828530000000  0.4105930000000 1.0
C      1  0.4972740000000  0.5358980000000  0.5443630000000 1.0
C      1  0.5057890000000  0.4437190000000  0.5830960000000 1.0
C      1  0.4943820000000  0.4229260000000  0.5638940000000 1.0
C      1  0.5050200000000  0.4735400000000  0.4637510000000 1.0
C      1  0.4214620000000  0.4688860000000  0.4515670000000 1.0
C      1  0.4474720000000  0.4193250000000  0.5113600000000 1.0
C      1  0.4554840000000  0.4221870000000  0.4600650000000 1.0
C      1  0.4982300000000  0.5480820000000  0.5163440000000 1.0
C      1  0.5431320000000  0.5721880000000  0.4916360000000 1.0
C      1  0.5344050000000  0.4450050000000  0.5792280000000 1.0
C      1  0.5820240000000  0.4991100000000  0.5346640000000 1.0
C      1  0.5489160000000  0.5034040000000  0.4699640000000 1.0
C      1  0.5209050000000  0.5204210000000  0.5903240000000 1.0
C      1  0.4145490000000  0.4982590000000  0.5190570000000 1.0
C      1  0.5896140000000  0.4648940000000  0.5022730000000 1.0
C      1  0.5119440000000  0.5271400000000  0.4458450000000 1.0
C      1  0.4432790000000  0.4675150000000  0.4957660000000 1.0
C      1  0.4271180000000  0.5234580000000  0.5106360000000 1.0
C      1  0.5010020000000  0.4714750000000  0.5934410000000 1.0
C      1  0.4523250000000  0.5833700000000  0.5222360000000 1.0
C      1  0.5087480000000  0.4634220000000  0.4922700000000 1.0
C      1  0.4664120000000  0.5769960000000  0.4488270000000 1.0
C      1  0.5607200000000  0.5720770000000  0.5160690000000 1.0
C      1  0.4603880000000  0.4450300000000  0.4451340000000 1.0
C      1  0.4794540000000  0.4918600000000  0.5935090000000 1.0
C      1  0.5608630000000  0.4270360000000  0.5350540000000 1.0
C      1  0.5868040000000  0.4731370000000  0.5480010000000 1.0
C      1  0.5165450000000  0.4028330000000  0.5141560000000 1.0
C      1  0.5317830000000  0.5668330000000  0.5630840000000 1.0
END
