TITL C-884141-4321-439 -4.46226968286392 125000 -11493.5579263284 0 0 77 (C1) n - 1
REM
REM in /home/nfs/bkarasulu/CARBON/AIRSS/Generating-Clusters/ReaxFF-fromJPCA2015/Units_Real/with-SteepDescent/Only-C1/SD-CG/Try1-3A/FIRE-CG
REM
REM
REM
REM
REM
REM ./C.cell (11c1c37f851c82e70ff6c80c92926a4b)
REM
REM compiler GCC version 9.2.1 20190827 (Red Hat 9.2.1-1)
REM options -cpp -mtune=generic -march=x86-64 -g -O0 -fpre-include=/usr/include/finclude/math-vector-fortran.h
REM seed -1553550134 -1125355481 -874479689 -1879203095 835184033 1180928579 -1648777397 1492393761 -1596520872 873823509 1509591568 200168027 -839520667 268700446 -1112283425 -929960527 -1937336813 476382623 -1258196582 -1032981167 1942203445 -122395113 243889715 88391410 167225637 1657992847 236186804 1702569966 1611543921 1102072733 -1336954557 -1383879813 1899999863
REM
CELL 1.54180   50.00000   50.00000   50.00000   90.00000   90.00000   90.00000
LATT -1
SFAC C  
C      1  0.5825900000000  0.5228820000000  0.5247960000000 1.0
C      1  0.4719500000000  0.4778220000000  0.5632580000000 1.0
C      1  0.4423730000000  0.4842780000000  0.4431430000000 1.0
C      1  0.5169900000000  0.5411240000000  0.5522910000000 1.0
C      1  0.5039850000000  0.5674890000000  0.5015510000000 1.0
C      1  0.5126250000000  0.4276460000000  0.5378010000000 1.0
C      1  0.4446850000000  0.5348060000000  0.4977070000000 1.0
C      1  0.5324510000000  0.4295640000000  0.5189800000000 1.0
C      1  0.5389240000000  0.5394190000000  0.5321400000000 1.0
C      1  0.4754400000000  0.5734470000000  0.5048130000000 1.0
C      1  0.5613540000000  0.5464400000000  0.4677640000000 1.0
C      1  0.5342710000000  0.4978020000000  0.5005630000000 1.0
C      1  0.5455930000000  0.5701500000000  0.4750000000000 1.0
C      1  0.5139430000000  0.4750340000000  0.5417300000000 1.0
C      1  0.4516650000000  0.4465970000000  0.4973670000000 1.0
C      1  0.5397950000000  0.4296670000000  0.4917470000000 1.0
C      1  0.5646040000000  0.5472440000000  0.5213850000000 1.0
C      1  0.4653190000000  0.4438980000000  0.5230230000000 1.0
C      1  0.5647160000000  0.5593880000000  0.4946640000000 1.0
C      1  0.4562980000000  0.4642270000000  0.5426300000000 1.0
C      1  0.4942690000000  0.5571370000000  0.5523020000000 1.0
C      1  0.4199430000000  0.5021650000000  0.5335040000000 1.0
C      1  0.4277340000000  0.5031500000000  0.4597490000000 1.0
C      1  0.5134960000000  0.4407660000000  0.5671740000000 1.0
C      1  0.4598790000000  0.5659150000000  0.5292640000000 1.0
C      1  0.4623820000000  0.5207900000000  0.4402390000000 1.0
C      1  0.5558990000000  0.4799430000000  0.5126730000000 1.0
C      1  0.4338770000000  0.4765140000000  0.5288730000000 1.0
C      1  0.4390270000000  0.5305120000000  0.4537550000000 1.0
C      1  0.4930820000000  0.4511570000000  0.4299940000000 1.0
C      1  0.5808240000000  0.5060440000000  0.5473080000000 1.0
C      1  0.5026060000000  0.5262400000000  0.4695480000000 1.0
C      1  0.4743040000000  0.5075450000000  0.5653190000000 1.0
C      1  0.4825840000000  0.4950390000000  0.5044830000000 1.0
C      1  0.5764540000000  0.4775810000000  0.4608280000000 1.0
C      1  0.5433490000000  0.4733640000000  0.5404380000000 1.0
C      1  0.5099720000000  0.5395400000000  0.4942130000000 1.0
C      1  0.4324680000000  0.4683130000000  0.5008970000000 1.0
C      1  0.4985770000000  0.5162130000000  0.5508190000000 1.0
C      1  0.4905730000000  0.4301890000000  0.5183420000000 1.0
C      1  0.5083820000000  0.5556730000000  0.4424310000000 1.0
C      1  0.4327170000000  0.5267040000000  0.5444860000000 1.0
C      1  0.4461990000000  0.5514680000000  0.4734100000000 1.0
C      1  0.4938260000000  0.5739870000000  0.4584700000000 1.0
C      1  0.5280680000000  0.4733040000000  0.4362130000000 1.0
C      1  0.4679930000000  0.4343990000000  0.4758200000000 1.0
C      1  0.5566710000000  0.4535190000000  0.4951240000000 1.0
C      1  0.5168570000000  0.5776800000000  0.4767430000000 1.0
C      1  0.4938260000000  0.4283090000000  0.4879410000000 1.0
C      1  0.4599690000000  0.4972020000000  0.4234330000000 1.0
C      1  0.5148630000000  0.5283450000000  0.4428140000000 1.0
C      1  0.5580520000000  0.4640930000000  0.5638090000000 1.0
C      1  0.5338580000000  0.5045200000000  0.4499090000000 1.0
C      1  0.5392350000000  0.4453910000000  0.5798850000000 1.0
C      1  0.4692810000000  0.5694200000000  0.4765670000000 1.0
C      1  0.4988800000000  0.4666720000000  0.5655000000000 1.0
C      1  0.4053040000000  0.5050400000000  0.5074020000000 1.0
C      1  0.4668250000000  0.5562000000000  0.5565710000000 1.0
C      1  0.5237730000000  0.4887250000000  0.4750510000000 1.0
C      1  0.5191720000000  0.4480010000000  0.4449940000000 1.0
C      1  0.4645330000000  0.5145060000000  0.4940190000000 1.0
C      1  0.5792740000000  0.5034770000000  0.4768420000000 1.0
C      1  0.4386290000000  0.5466670000000  0.5238690000000 1.0
C      1  0.5795180000000  0.5008970000000  0.5060720000000 1.0
C      1  0.4825650000000  0.4787340000000  0.4278550000000 1.0
C      1  0.5173430000000  0.4327580000000  0.4726390000000 1.0
C      1  0.5588190000000  0.5181540000000  0.4609890000000 1.0
C      1  0.4781380000000  0.5122780000000  0.4683600000000 1.0
C      1  0.4707930000000  0.4436460000000  0.4483070000000 1.0
C      1  0.5738040000000  0.4872480000000  0.5633800000000 1.0
C      1  0.4999890000000  0.4975280000000  0.5280220000000 1.0
C      1  0.5272540000000  0.5239770000000  0.5095010000000 1.0
C      1  0.5500430000000  0.4669950000000  0.4702850000000 1.0
C      1  0.4692280000000  0.4729230000000  0.4549120000000 1.0
C      1  0.4548640000000  0.5290040000000  0.5628940000000 1.0
C      1  0.4188240000000  0.4900600000000  0.4853270000000 1.0
C      1  0.4917590000000  0.4854510000000  0.4780770000000 1.0
END
