TITL C-883726-8501-209 26.0002483679266 125000 -8404.69503658631 0 0 58 (C1) n - 1
REM
REM in /home/nfs/bkarasulu/CARBON/AIRSS/Generating-Clusters/ReaxFF-fromJPCA2015/Units_Real/with-SteepDescent/Only-C1/SD-CG/Try1-3A/FIRE-CG
REM
REM
REM
REM
REM
REM ./C.cell (11c1c37f851c82e70ff6c80c92926a4b)
REM
REM compiler GCC version 9.2.1 20190827 (Red Hat 9.2.1-1)
REM options -cpp -mtune=generic -march=x86-64 -g -O0 -fpre-include=/usr/include/finclude/math-vector-fortran.h
REM seed 1101198472 1898127429 1605401333 -530718325 1219071797 -1691029560 113599623 -137833311 1940484688 -533379676 -652614043 1230200600 1002895795 -1897898939 1822841581 1805963422 -2096478133 -529431464 1371304452 1825479231 1474723662 47206746 431609321 185797786 -454502222 553023579 -1871505269 1133920068 -860214812 -1107144753 -704448654 -2082886691 554746794
REM
CELL 1.54180   50.00000   50.00000   50.00000   90.00000   90.00000   90.00000
LATT -1
SFAC C  
C      1  0.5432100000000  0.5464240000000  0.4869920000000 1.0
C      1  0.4421790000000  0.4919540000000  0.5429810000000 1.0
C      1  0.4356120000000  0.5042410000000  0.4980880000000 1.0
C      1  0.5082790000000  0.5387600000000  0.5589540000000 1.0
C      1  0.5276370000000  0.5515220000000  0.5249780000000 1.0
C      1  0.5613480000000  0.5236630000000  0.4859000000000 1.0
C      1  0.5335270000000  0.4864790000000  0.5499780000000 1.0
C      1  0.4212500000000  0.5029240000000  0.5252800000000 1.0
C      1  0.5363670000000  0.5445820000000  0.4585410000000 1.0
C      1  0.5365180000000  0.5026500000000  0.5735070000000 1.0
C      1  0.4739760000000  0.5210080000000  0.4366170000000 1.0
C      1  0.5504170000000  0.5355650000000  0.5354500000000 1.0
C      1  0.5328320000000  0.4717630000000  0.4623990000000 1.0
C      1  0.4904250000000  0.4666220000000  0.5374250000000 1.0
C      1  0.4484100000000  0.4414970000000  0.4835560000000 1.0
C      1  0.4737010000000  0.4905250000000  0.4836100000000 1.0
C      1  0.4590660000000  0.4417130000000  0.5107680000000 1.0
C      1  0.5092420000000  0.4618630000000  0.4445250000000 1.0
C      1  0.5587850000000  0.4513580000000  0.4728900000000 1.0
C      1  0.4606250000000  0.4503350000000  0.4574820000000 1.0
C      1  0.5494970000000  0.5179690000000  0.4579760000000 1.0
C      1  0.5111530000000  0.4959900000000  0.5865840000000 1.0
C      1  0.4404250000000  0.5190060000000  0.4729470000000 1.0
C      1  0.4834520000000  0.5701670000000  0.4922780000000 1.0
C      1  0.5814020000000  0.4824780000000  0.5258790000000 1.0
C      1  0.4900270000000  0.4475410000000  0.4599390000000 1.0
C      1  0.5237860000000  0.5322040000000  0.5038350000000 1.0
C      1  0.5019040000000  0.5286250000000  0.4331780000000 1.0
C      1  0.5198340000000  0.4739780000000  0.4901980000000 1.0
C      1  0.4895860000000  0.5132110000000  0.5572050000000 1.0
C      1  0.5313050000000  0.4436370000000  0.5166940000000 1.0
C      1  0.5134040000000  0.5026860000000  0.5054820000000 1.0
C      1  0.4888880000000  0.5001140000000  0.5818040000000 1.0
C      1  0.5566850000000  0.4893200000000  0.5285960000000 1.0
C      1  0.5082360000000  0.5496570000000  0.4512180000000 1.0
C      1  0.4722210000000  0.4922230000000  0.4302030000000 1.0
C      1  0.5032640000000  0.5590410000000  0.5394790000000 1.0
C      1  0.5059970000000  0.4429620000000  0.5305940000000 1.0
C      1  0.4706430000000  0.5333410000000  0.5113870000000 1.0
C      1  0.5620270000000  0.5170930000000  0.5147390000000 1.0
C      1  0.5356880000000  0.5296890000000  0.5604510000000 1.0
C      1  0.4610280000000  0.4678630000000  0.5290450000000 1.0
C      1  0.4583570000000  0.5123940000000  0.5584620000000 1.0
C      1  0.5400010000000  0.4951680000000  0.4475980000000 1.0
C      1  0.4582820000000  0.5290960000000  0.5357150000000 1.0
C      1  0.5005040000000  0.4836590000000  0.4284980000000 1.0
C      1  0.5010760000000  0.4514990000000  0.4873230000000 1.0
C      1  0.4875030000000  0.5121510000000  0.4964350000000 1.0
C      1  0.4798400000000  0.5608660000000  0.5205270000000 1.0
C      1  0.4617490000000  0.5338730000000  0.4596470000000 1.0
C      1  0.4533260000000  0.4957930000000  0.4640920000000 1.0
C      1  0.4830910000000  0.5536730000000  0.4673910000000 1.0
C      1  0.4531270000000  0.4757250000000  0.4448480000000 1.0
C      1  0.5071360000000  0.4910890000000  0.5374470000000 1.0
C      1  0.5488840000000  0.4455130000000  0.4972200000000 1.0
C      1  0.4552740000000  0.4847510000000  0.5044780000000 1.0
C      1  0.4876320000000  0.4352290000000  0.5089110000000 1.0
C      1  0.5203610000000  0.5052750000000  0.4317760000000 1.0
END
