TITL C-884133-6611-142 -1.62435643635069 125000 -7589.08819225055 0 0 52 (C1) n - 1
REM
REM in /home/nfs/bkarasulu/CARBON/AIRSS/Generating-Clusters/ReaxFF-fromJPCA2015/Units_Real/with-SteepDescent/Only-C1/SD-CG/Try1-3A/FIRE-CG
REM
REM
REM
REM
REM
REM ./C.cell (11c1c37f851c82e70ff6c80c92926a4b)
REM
REM compiler GCC version 9.2.1 20190827 (Red Hat 9.2.1-1)
REM options -cpp -mtune=generic -march=x86-64 -g -O0 -fpre-include=/usr/include/finclude/math-vector-fortran.h
REM seed -149947188 1842333938 -718889961 878328645 -1844589865 -845231393 879077731 -2051370144 -980677906 1009779207 -1509390086 -43138885 239877048 1210751684 -757226692 -268049037 -982680107 1129614893 -1036737365 685297428 846185414 -38766045 950295768 442748498 2064123004 -590175975 -629511101 1212611860 -146321668 328687287 1477938324 -56499175 1237516238
REM
CELL 1.54180   50.00000   50.00000   50.00000   90.00000   90.00000   90.00000
LATT -1
SFAC C  
C      1  0.4887720000000  0.4760180000000  0.4977900000000 1.0
C      1  0.4791930000000  0.5364110000000  0.5453680000000 1.0
C      1  0.5027340000000  0.5493980000000  0.5558710000000 1.0
C      1  0.4431330000000  0.4616600000000  0.4936640000000 1.0
C      1  0.5105100000000  0.4505450000000  0.4553460000000 1.0
C      1  0.4656560000000  0.5171520000000  0.5625780000000 1.0
C      1  0.4696970000000  0.4306430000000  0.5013690000000 1.0
C      1  0.5111820000000  0.5009510000000  0.4321360000000 1.0
C      1  0.4554830000000  0.4912490000000  0.5579070000000 1.0
C      1  0.4675160000000  0.5486950000000  0.4570000000000 1.0
C      1  0.4858040000000  0.5115590000000  0.4323840000000 1.0
C      1  0.5173630000000  0.5640670000000  0.5117680000000 1.0
C      1  0.5136590000000  0.5691040000000  0.5387240000000 1.0
C      1  0.4763310000000  0.4929760000000  0.5751890000000 1.0
C      1  0.5054600000000  0.4850640000000  0.5738040000000 1.0
C      1  0.4510190000000  0.5351140000000  0.5010990000000 1.0
C      1  0.5228410000000  0.5482010000000  0.4536720000000 1.0
C      1  0.5076700000000  0.4929830000000  0.4835850000000 1.0
C      1  0.4644570000000  0.4411560000000  0.4505660000000 1.0
C      1  0.5236800000000  0.5076980000000  0.5799170000000 1.0
C      1  0.5174790000000  0.5183610000000  0.4939170000000 1.0
C      1  0.4817950000000  0.4351580000000  0.5234720000000 1.0
C      1  0.4758070000000  0.5388530000000  0.5160550000000 1.0
C      1  0.5553190000000  0.5158110000000  0.5269230000000 1.0
C      1  0.4964740000000  0.5546110000000  0.4643050000000 1.0
C      1  0.5134830000000  0.4640360000000  0.5551280000000 1.0
C      1  0.4611260000000  0.4948230000000  0.4381800000000 1.0
C      1  0.4857010000000  0.5391930000000  0.4402960000000 1.0
C      1  0.4422180000000  0.5056840000000  0.4598830000000 1.0
C      1  0.5444070000000  0.5340630000000  0.4494670000000 1.0
C      1  0.5102370000000  0.4539310000000  0.4977280000000 1.0
C      1  0.4663190000000  0.4724930000000  0.5405840000000 1.0
C      1  0.5358680000000  0.4974720000000  0.4359780000000 1.0
C      1  0.5603780000000  0.4862770000000  0.5287850000000 1.0
C      1  0.4928790000000  0.4401890000000  0.4444590000000 1.0
C      1  0.5012080000000  0.5435890000000  0.4975670000000 1.0
C      1  0.5470280000000  0.5370660000000  0.5447660000000 1.0
C      1  0.5391240000000  0.5612460000000  0.5304810000000 1.0
C      1  0.5232620000000  0.4673760000000  0.4745110000000 1.0
C      1  0.5464290000000  0.5207750000000  0.4985460000000 1.0
C      1  0.4400940000000  0.4846270000000  0.4777790000000 1.0
C      1  0.4636880000000  0.4673280000000  0.4405760000000 1.0
C      1  0.5674160000000  0.4856900000000  0.5010280000000 1.0
C      1  0.5396310000000  0.4654600000000  0.5405280000000 1.0
C      1  0.5571890000000  0.5088080000000  0.4504260000000 1.0
C      1  0.4628840000000  0.4770000000000  0.5116590000000 1.0
C      1  0.4880480000000  0.4523630000000  0.5449220000000 1.0
C      1  0.4481450000000  0.5329960000000  0.4710930000000 1.0
C      1  0.5306940000000  0.4594780000000  0.5160020000000 1.0
C      1  0.4547950000000  0.4375080000000  0.4795270000000 1.0
C      1  0.5258800000000  0.5334840000000  0.5652320000000 1.0
C      1  0.5628350000000  0.5036060000000  0.4804590000000 1.0
END
