TITL C-884133-6611-217 -9.15122473526659 125000 -12771.865280914 0 0 85 (C1) n - 1
REM
REM in /home/nfs/bkarasulu/CARBON/AIRSS/Generating-Clusters/ReaxFF-fromJPCA2015/Units_Real/with-SteepDescent/Only-C1/SD-CG/Try1-3A/FIRE-CG
REM
REM
REM
REM
REM
REM ./C.cell (11c1c37f851c82e70ff6c80c92926a4b)
REM
REM compiler GCC version 9.2.1 20190827 (Red Hat 9.2.1-1)
REM options -cpp -mtune=generic -march=x86-64 -g -O0 -fpre-include=/usr/include/finclude/math-vector-fortran.h
REM seed -1130537174 19868793 -365654817 -1948451381 -1896630525 -725155380 -2129869800 -989074942 -596895762 2105291196 1243456052 1869215613 1448315529 1441033611 -1499788698 1386992765 -1739817479 -986728342 1320707129 625168275 1088328907 -248987410 1593639349 858413915 467938226 1734715930 1585478154 -183571625 -1814357311 -1856887046 -1993099044 456383664 1290236317
REM
CELL 1.54180   50.00000   50.00000   50.00000   90.00000   90.00000   90.00000
LATT -1
SFAC C  
C      1  0.4912890000000  0.4944760000000  0.5420420000000 1.0
C      1  0.5618490000000  0.4707170000000  0.5330700000000 1.0
C      1  0.5128210000000  0.5478570000000  0.5738960000000 1.0
C      1  0.4346950000000  0.4450200000000  0.5163440000000 1.0
C      1  0.5013750000000  0.4291380000000  0.4558690000000 1.0
C      1  0.5595350000000  0.4587070000000  0.4659120000000 1.0
C      1  0.4763930000000  0.5911800000000  0.5142350000000 1.0
C      1  0.5378880000000  0.4458310000000  0.4802460000000 1.0
C      1  0.5148980000000  0.4501900000000  0.4403450000000 1.0
C      1  0.5312750000000  0.5764460000000  0.5041300000000 1.0
C      1  0.5155230000000  0.4973430000000  0.4215910000000 1.0
C      1  0.4671970000000  0.4287550000000  0.4928890000000 1.0
C      1  0.4514570000000  0.4483190000000  0.4486570000000 1.0
C      1  0.5371060000000  0.5680510000000  0.4774460000000 1.0
C      1  0.4847170000000  0.5892610000000  0.4855440000000 1.0
C      1  0.4414740000000  0.5443820000000  0.4782540000000 1.0
C      1  0.5085720000000  0.4634210000000  0.5205920000000 1.0
C      1  0.4179430000000  0.4768050000000  0.4854460000000 1.0
C      1  0.4791080000000  0.5172790000000  0.5807220000000 1.0
C      1  0.4561720000000  0.5717230000000  0.5256580000000 1.0
C      1  0.4297600000000  0.4906910000000  0.5272920000000 1.0
C      1  0.5116340000000  0.5526410000000  0.4636620000000 1.0
C      1  0.4465370000000  0.5584040000000  0.5024910000000 1.0
C      1  0.4727340000000  0.5492600000000  0.5402410000000 1.0
C      1  0.5041680000000  0.5919150000000  0.5071440000000 1.0
C      1  0.5274630000000  0.5222750000000  0.5806280000000 1.0
C      1  0.5612620000000  0.5292840000000  0.5445970000000 1.0
C      1  0.4328700000000  0.5154130000000  0.4812940000000 1.0
C      1  0.5464280000000  0.5561670000000  0.5165610000000 1.0
C      1  0.4845410000000  0.5675590000000  0.4659360000000 1.0
C      1  0.4964880000000  0.5218160000000  0.5047820000000 1.0
C      1  0.4609920000000  0.5407900000000  0.4306590000000 1.0
C      1  0.4742050000000  0.4773840000000  0.4787140000000 1.0
C      1  0.5696140000000  0.4888670000000  0.5111700000000 1.0
C      1  0.4738190000000  0.4344520000000  0.5434690000000 1.0
C      1  0.5148050000000  0.5293330000000  0.4825740000000 1.0
C      1  0.4614270000000  0.5527450000000  0.4572060000000 1.0
C      1  0.5270400000000  0.4791050000000  0.5055180000000 1.0
C      1  0.4807130000000  0.5404630000000  0.5170510000000 1.0
C      1  0.4435700000000  0.4896260000000  0.5519800000000 1.0
C      1  0.4442050000000  0.5049910000000  0.5060890000000 1.0
C      1  0.5510000000000  0.4826610000000  0.5587330000000 1.0
C      1  0.5419580000000  0.4887260000000  0.4280920000000 1.0
C      1  0.4582810000000  0.4528130000000  0.4773620000000 1.0
C      1  0.4842790000000  0.4778710000000  0.5657500000000 1.0
C      1  0.5297560000000  0.4664980000000  0.5687680000000 1.0
C      1  0.4442590000000  0.4766730000000  0.4428200000000 1.0
C      1  0.4609710000000  0.5142710000000  0.4192960000000 1.0
C      1  0.4766590000000  0.4359100000000  0.4440820000000 1.0
C      1  0.5110690000000  0.4211400000000  0.5097030000000 1.0
C      1  0.4985210000000  0.4803610000000  0.4646000000000 1.0
C      1  0.5489910000000  0.4450700000000  0.5292680000000 1.0
C      1  0.5296740000000  0.5690320000000  0.5634490000000 1.0
C      1  0.5085380000000  0.5142860000000  0.5305330000000 1.0
C      1  0.4840620000000  0.4777250000000  0.5210560000000 1.0
C      1  0.5589630000000  0.5097500000000  0.4392040000000 1.0
C      1  0.4961090000000  0.4787870000000  0.4351160000000 1.0
C      1  0.5052760000000  0.5059960000000  0.5892600000000 1.0
C      1  0.5014310000000  0.4264640000000  0.5371490000000 1.0
C      1  0.5508860000000  0.5570550000000  0.5438970000000 1.0
C      1  0.4944660000000  0.4227180000000  0.4860300000000 1.0
C      1  0.5083810000000  0.4777160000000  0.5836840000000 1.0
C      1  0.5509270000000  0.5381030000000  0.4394950000000 1.0
C      1  0.4665030000000  0.4879460000000  0.4295720000000 1.0
C      1  0.4835660000000  0.5420770000000  0.5673030000000 1.0
C      1  0.5086160000000  0.5255800000000  0.4189440000000 1.0
C      1  0.5617230000000  0.5059410000000  0.4680750000000 1.0
C      1  0.5416170000000  0.4618180000000  0.4414030000000 1.0
C      1  0.4548650000000  0.4271760000000  0.5204590000000 1.0
C      1  0.4688710000000  0.4581480000000  0.5565200000000 1.0
C      1  0.5227320000000  0.4471740000000  0.5449620000000 1.0
C      1  0.5386960000000  0.4315040000000  0.5059210000000 1.0
C      1  0.4598410000000  0.4942940000000  0.5744730000000 1.0
C      1  0.5232790000000  0.5436760000000  0.4355970000000 1.0
C      1  0.4168060000000  0.4660070000000  0.5119580000000 1.0
C      1  0.5495580000000  0.5113840000000  0.5650530000000 1.0
C      1  0.4811640000000  0.5324530000000  0.4135670000000 1.0
C      1  0.5555780000000  0.5487350000000  0.4671090000000 1.0
C      1  0.4731440000000  0.4957160000000  0.5006800000000 1.0
C      1  0.5431830000000  0.5257820000000  0.4805420000000 1.0
C      1  0.5595280000000  0.5166330000000  0.5179140000000 1.0
C      1  0.5222130000000  0.4717320000000  0.4780030000000 1.0
C      1  0.4268190000000  0.4915310000000  0.4633090000000 1.0
C      1  0.5691570000000  0.4818450000000  0.4822310000000 1.0
C      1  0.5325200000000  0.5051380000000  0.5171140000000 1.0
END
