TITL C-884141-4321-492 10.6065761415844 125000 -23537.8899790877 0 0 154 (C1) n - 1
REM
REM in /home/nfs/bkarasulu/CARBON/AIRSS/Generating-Clusters/ReaxFF-fromJPCA2015/Units_Real/with-SteepDescent/Only-C1/SD-CG/Try1-3A/FIRE-CG
REM
REM
REM
REM
REM
REM ./C.cell (11c1c37f851c82e70ff6c80c92926a4b)
REM
REM compiler GCC version 9.2.1 20190827 (Red Hat 9.2.1-1)
REM options -cpp -mtune=generic -march=x86-64 -g -O0 -fpre-include=/usr/include/finclude/math-vector-fortran.h
REM seed -1492158137 1230479470 -183018312 -2025969365 1243862378 581855080 1803378850 -1145869668 -1835251923 -1505863735 -1876101704 -2123788151 -540951338 1834629867 1183781397 5867651 -926342459 1344777973 1862201505 1754273597 -1869977482 -762943660 492848892 544667689 97633197 1801799179 -367424220 -1836012662 -1851711361 186522248 362992696 -443346328 -2081410246
REM
CELL 1.54180   50.00000   50.00000   50.00000   90.00000   90.00000   90.00000
LATT -1
SFAC C  
C      1  0.5073670000000  0.4131580000000  0.5670720000000 1.0
C      1  0.5328820000000  0.3951620000000  0.4948360000000 1.0
C      1  0.5946860000000  0.4335450000000  0.5135490000000 1.0
C      1  0.4987220000000  0.4704000000000  0.4079380000000 1.0
C      1  0.5023480000000  0.4355870000000  0.5852500000000 1.0
C      1  0.4468880000000  0.5223490000000  0.4730570000000 1.0
C      1  0.5153510000000  0.5906280000000  0.5341060000000 1.0
C      1  0.4180270000000  0.5682010000000  0.5100820000000 1.0
C      1  0.5331740000000  0.4331670000000  0.4311520000000 1.0
C      1  0.4404970000000  0.4315340000000  0.4470610000000 1.0
C      1  0.6010110000000  0.5510560000000  0.5346590000000 1.0
C      1  0.5246850000000  0.5423950000000  0.4417080000000 1.0
C      1  0.5454860000000  0.4421060000000  0.5487920000000 1.0
C      1  0.4962370000000  0.5291790000000  0.3960920000000 1.0
C      1  0.4236700000000  0.5612160000000  0.5384500000000 1.0
C      1  0.5029500000000  0.5748050000000  0.4868650000000 1.0
C      1  0.5478040000000  0.4719170000000  0.4122400000000 1.0
C      1  0.5898550000000  0.4784290000000  0.4450780000000 1.0
C      1  0.4479860000000  0.5024900000000  0.4942030000000 1.0
C      1  0.4121790000000  0.4969960000000  0.4470370000000 1.0
C      1  0.5627170000000  0.5729930000000  0.5487540000000 1.0
C      1  0.5148160000000  0.5077340000000  0.6055820000000 1.0
C      1  0.5735690000000  0.4728940000000  0.4953200000000 1.0
C      1  0.5440810000000  0.5497590000000  0.4226980000000 1.0
C      1  0.4185210000000  0.4512190000000  0.4441440000000 1.0
C      1  0.5367180000000  0.5503200000000  0.5847110000000 1.0
C      1  0.5951010000000  0.4568420000000  0.5331610000000 1.0
C      1  0.4113370000000  0.5091200000000  0.5467260000000 1.0
C      1  0.4885240000000  0.5920380000000  0.4202770000000 1.0
C      1  0.5619820000000  0.5784110000000  0.5071040000000 1.0
C      1  0.5688490000000  0.5494540000000  0.4358620000000 1.0
C      1  0.4735200000000  0.5976880000000  0.5270090000000 1.0
C      1  0.4984840000000  0.5935790000000  0.5112880000000 1.0
C      1  0.5826690000000  0.4571020000000  0.5589530000000 1.0
C      1  0.4669660000000  0.5697760000000  0.4174640000000 1.0
C      1  0.4793330000000  0.5061430000000  0.4450090000000 1.0
C      1  0.4615610000000  0.5047200000000  0.4226920000000 1.0
C      1  0.4713020000000  0.5445540000000  0.4035130000000 1.0
C      1  0.3973840000000  0.4870530000000  0.4696520000000 1.0
C      1  0.4644720000000  0.5357930000000  0.5486650000000 1.0
C      1  0.5688080000000  0.5212750000000  0.5605570000000 1.0
C      1  0.4050440000000  0.4431660000000  0.5150180000000 1.0
C      1  0.4864860000000  0.4929860000000  0.5268010000000 1.0
C      1  0.5127360000000  0.5512570000000  0.3976960000000 1.0
C      1  0.5286540000000  0.5808350000000  0.4695940000000 1.0
C      1  0.4784440000000  0.5588320000000  0.4707010000000 1.0
C      1  0.4729250000000  0.5837490000000  0.5533830000000 1.0
C      1  0.5188240000000  0.5874730000000  0.4297290000000 1.0
C      1  0.5169860000000  0.5683330000000  0.4491300000000 1.0
C      1  0.5504270000000  0.4568360000000  0.4882920000000 1.0
C      1  0.5557860000000  0.5741050000000  0.4790070000000 1.0
C      1  0.4988620000000  0.4380220000000  0.5576820000000 1.0
C      1  0.4602140000000  0.4148200000000  0.5409140000000 1.0
C      1  0.5114450000000  0.3983810000000  0.5157900000000 1.0
C      1  0.5567390000000  0.4980130000000  0.5378480000000 1.0
C      1  0.5881790000000  0.5299540000000  0.4966060000000 1.0
C      1  0.3955700000000  0.5025780000000  0.4947240000000 1.0
C      1  0.4542580000000  0.5734950000000  0.4656520000000 1.0
C      1  0.4324910000000  0.4195560000000  0.5473870000000 1.0
C      1  0.5636630000000  0.5174940000000  0.4920870000000 1.0
C      1  0.5824770000000  0.5708850000000  0.5274010000000 1.0
C      1  0.4458950000000  0.5675780000000  0.4371870000000 1.0
C      1  0.5384750000000  0.5234230000000  0.5973830000000 1.0
C      1  0.4934760000000  0.4418970000000  0.4918630000000 1.0
C      1  0.4887330000000  0.5204360000000  0.6014290000000 1.0
C      1  0.5307430000000  0.5704070000000  0.4079840000000 1.0
C      1  0.5112990000000  0.5509840000000  0.5024660000000 1.0
C      1  0.5776460000000  0.4786530000000  0.5236950000000 1.0
C      1  0.5185370000000  0.5069310000000  0.5080020000000 1.0
C      1  0.4254540000000  0.4762190000000  0.4316180000000 1.0
C      1  0.5229600000000  0.4568990000000  0.5037880000000 1.0
C      1  0.4662240000000  0.4355960000000  0.4299360000000 1.0
C      1  0.3999680000000  0.5280540000000  0.4811480000000 1.0
C      1  0.4506640000000  0.4797890000000  0.4174420000000 1.0
C      1  0.4492690000000  0.5284250000000  0.4138750000000 1.0
C      1  0.4379120000000  0.5832510000000  0.4893980000000 1.0
C      1  0.5575590000000  0.5059640000000  0.5852300000000 1.0
C      1  0.4664330000000  0.5106970000000  0.5155200000000 1.0
C      1  0.5566930000000  0.5492600000000  0.5645950000000 1.0
C      1  0.5770590000000  0.4198100000000  0.4955150000000 1.0
C      1  0.4891640000000  0.4513190000000  0.4619370000000 1.0
C      1  0.4045150000000  0.4948660000000  0.5219440000000 1.0
C      1  0.5956990000000  0.5069430000000  0.4382360000000 1.0
C      1  0.5586360000000  0.4554960000000  0.5732270000000 1.0
C      1  0.4395990000000  0.5158550000000  0.5840620000000 1.0
C      1  0.4218480000000  0.5246380000000  0.4548660000000 1.0
C      1  0.4685140000000  0.4632630000000  0.5298810000000 1.0
C      1  0.5324310000000  0.4942900000000  0.4051060000000 1.0
C      1  0.6133240000000  0.4975640000000  0.4736130000000 1.0
C      1  0.3980750000000  0.4571700000000  0.4647660000000 1.0
C      1  0.5237160000000  0.4546870000000  0.4133930000000 1.0
C      1  0.5965140000000  0.5436550000000  0.4735920000000 1.0
C      1  0.4692120000000  0.4764240000000  0.5867890000000 1.0
C      1  0.4327400000000  0.5426560000000  0.5748080000000 1.0
C      1  0.5615890000000  0.4350340000000  0.4732110000000 1.0
C      1  0.4170720000000  0.4686860000000  0.5253070000000 1.0
C      1  0.4695710000000  0.4559690000000  0.5018330000000 1.0
C      1  0.5960330000000  0.4754580000000  0.4743360000000 1.0
C      1  0.5467960000000  0.4791430000000  0.5877340000000 1.0
C      1  0.4718130000000  0.4602960000000  0.4148840000000 1.0
C      1  0.6023420000000  0.5279760000000  0.5202470000000 1.0
C      1  0.4893960000000  0.6155530000000  0.4310550000000 1.0
C      1  0.4654640000000  0.5034190000000  0.5942600000000 1.0
C      1  0.5002320000000  0.5824410000000  0.5600900000000 1.0
C      1  0.5068220000000  0.4989870000000  0.4014670000000 1.0
C      1  0.4089080000000  0.5479290000000  0.4954720000000 1.0
C      1  0.4732790000000  0.5305090000000  0.4639140000000 1.0
C      1  0.4255670000000  0.4963230000000  0.5684890000000 1.0
C      1  0.5433920000000  0.5851490000000  0.5295120000000 1.0
C      1  0.5041190000000  0.5014240000000  0.5476070000000 1.0
C      1  0.4694490000000  0.5391290000000  0.5208610000000 1.0
C      1  0.4324400000000  0.5424060000000  0.4323570000000 1.0
C      1  0.4897680000000  0.4882290000000  0.4799910000000 1.0
C      1  0.5289420000000  0.4866430000000  0.5461070000000 1.0
C      1  0.4962950000000  0.5487900000000  0.5266470000000 1.0
C      1  0.4885170000000  0.4271420000000  0.4462600000000 1.0
C      1  0.5286970000000  0.4601590000000  0.5341220000000 1.0
C      1  0.5475820000000  0.4138190000000  0.5380030000000 1.0
C      1  0.5106860000000  0.5643580000000  0.5815270000000 1.0
C      1  0.4908680000000  0.4799100000000  0.4522590000000 1.0
C      1  0.5686370000000  0.4633780000000  0.4321490000000 1.0
C      1  0.5950830000000  0.5270150000000  0.5478810000000 1.0
C      1  0.5132130000000  0.4831060000000  0.4955750000000 1.0
C      1  0.5590480000000  0.4386060000000  0.4437940000000 1.0
C      1  0.3910160000000  0.4411960000000  0.4885860000000 1.0
C      1  0.4625200000000  0.4784390000000  0.4867850000000 1.0
C      1  0.5146150000000  0.5268010000000  0.4888740000000 1.0
C      1  0.4752450000000  0.4395010000000  0.5449430000000 1.0
C      1  0.5754560000000  0.5599970000000  0.4623400000000 1.0
C      1  0.4502870000000  0.5609700000000  0.5562560000000 1.0
C      1  0.5700350000000  0.5205550000000  0.4404870000000 1.0
C      1  0.4542930000000  0.5905890000000  0.5081220000000 1.0
C      1  0.5215480000000  0.4024610000000  0.5435110000000 1.0
C      1  0.4949170000000  0.4636300000000  0.5911660000000 1.0
C      1  0.4924550000000  0.5422100000000  0.5827380000000 1.0
C      1  0.5162490000000  0.4130300000000  0.4445750000000 1.0
C      1  0.4399180000000  0.4203710000000  0.4725420000000 1.0
C      1  0.5274010000000  0.5233190000000  0.4629270000000 1.0
C      1  0.4416440000000  0.4699560000000  0.5697790000000 1.0
C      1  0.4937030000000  0.5312950000000  0.5538250000000 1.0
C      1  0.4642030000000  0.4052390000000  0.5133680000000 1.0
C      1  0.5543990000000  0.5139630000000  0.4644020000000 1.0
C      1  0.5253450000000  0.4033340000000  0.4689760000000 1.0
C      1  0.4416760000000  0.4685010000000  0.5406160000000 1.0
C      1  0.4388040000000  0.4098030000000  0.4983730000000 1.0
C      1  0.4169290000000  0.4312000000000  0.5919130000000 1.0
C      1  0.4899270000000  0.4130170000000  0.5027970000000 1.0
C      1  0.4277660000000  0.4390820000000  0.5707600000000 1.0
C      1  0.6109550000000  0.5220840000000  0.4595720000000 1.0
C      1  0.5556640000000  0.4061690000000  0.5109480000000 1.0
C      1  0.4135520000000  0.5386500000000  0.5531930000000 1.0
C      1  0.5462170000000  0.5112090000000  0.5138480000000 1.0
C      1  0.5190010000000  0.4802400000000  0.5975870000000 1.0
C      1  0.4209310000000  0.4195430000000  0.5211340000000 1.0
END
