TITL C-883735-9890-423 -12.2850080612054 125000 -21714.8298852338 0 0 144 (C1) n - 1
REM
REM in /home/nfs/bkarasulu/CARBON/AIRSS/Generating-Clusters/ReaxFF-fromJPCA2015/Units_Real/with-SteepDescent/Only-C1/SD-CG/Try1-3A/FIRE-CG
REM
REM
REM
REM
REM
REM ./C.cell (11c1c37f851c82e70ff6c80c92926a4b)
REM
REM compiler GCC version 9.2.1 20190827 (Red Hat 9.2.1-1)
REM options -cpp -mtune=generic -march=x86-64 -g -O0 -fpre-include=/usr/include/finclude/math-vector-fortran.h
REM seed -304998409 1219159063 -2127278126 1153512686 1550866724 -1192340380 -784564719 352675192 261647995 -418871678 1946035624 1740225648 -1951047323 156047696 -2127833110 -1156523239 994685901 -520438013 1910416566 -1996996892 907430674 206463426 1195460232 1946639337 251734393 391656031 1514665162 354261183 1663873538 -176904521 1203111461 -662345681 1265516591
REM
CELL 1.54180   50.00000   50.00000   50.00000   90.00000   90.00000   90.00000
LATT -1
SFAC C  
C      1  0.5826010000000  0.5421950000000  0.4717080000000 1.0
C      1  0.4687930000000  0.4994780000000  0.4062040000000 1.0
C      1  0.4722190000000  0.4695420000000  0.5730750000000 1.0
C      1  0.4962230000000  0.5891150000000  0.5559920000000 1.0
C      1  0.5869180000000  0.5385920000000  0.5273880000000 1.0
C      1  0.5956560000000  0.4927620000000  0.4705750000000 1.0
C      1  0.5524380000000  0.5794010000000  0.5054570000000 1.0
C      1  0.5007220000000  0.5370440000000  0.5803600000000 1.0
C      1  0.4978060000000  0.5144730000000  0.6006150000000 1.0
C      1  0.5294340000000  0.4995580000000  0.4497940000000 1.0
C      1  0.5011990000000  0.5009050000000  0.4527870000000 1.0
C      1  0.4508070000000  0.5262570000000  0.5230790000000 1.0
C      1  0.5339580000000  0.6064760000000  0.4710340000000 1.0
C      1  0.4923110000000  0.4865250000000  0.4001650000000 1.0
C      1  0.4714430000000  0.4461340000000  0.4741480000000 1.0
C      1  0.5187230000000  0.4936860000000  0.6022750000000 1.0
C      1  0.5357230000000  0.4527980000000  0.5300660000000 1.0
C      1  0.5717440000000  0.5204150000000  0.5461310000000 1.0
C      1  0.5895980000000  0.4545000000000  0.4996090000000 1.0
C      1  0.4733430000000  0.5486340000000  0.5728540000000 1.0
C      1  0.5147620000000  0.4026580000000  0.4821470000000 1.0
C      1  0.5679720000000  0.4885910000000  0.4186980000000 1.0
C      1  0.5335020000000  0.6319230000000  0.4731340000000 1.0
C      1  0.5425660000000  0.5296410000000  0.5469850000000 1.0
C      1  0.4446040000000  0.5096420000000  0.4721890000000 1.0
C      1  0.4672860000000  0.4752640000000  0.4728490000000 1.0
C      1  0.5559440000000  0.4699610000000  0.5411880000000 1.0
C      1  0.4543820000000  0.5817390000000  0.4861010000000 1.0
C      1  0.5890840000000  0.4922440000000  0.5170730000000 1.0
C      1  0.4260650000000  0.5174740000000  0.5668700000000 1.0
C      1  0.4005990000000  0.4618870000000  0.4944120000000 1.0
C      1  0.5127440000000  0.5227920000000  0.4054520000000 1.0
C      1  0.5541360000000  0.5635440000000  0.4353630000000 1.0
C      1  0.5133750000000  0.5412080000000  0.4562870000000 1.0
C      1  0.5222540000000  0.5593660000000  0.5828310000000 1.0
C      1  0.4446610000000  0.4855120000000  0.4198460000000 1.0
C      1  0.4572050000000  0.4006100000000  0.5273910000000 1.0
C      1  0.4823390000000  0.5259170000000  0.4073470000000 1.0
C      1  0.5568860000000  0.5778710000000  0.5504310000000 1.0
C      1  0.4076860000000  0.4515720000000  0.4674050000000 1.0
C      1  0.4755200000000  0.5511720000000  0.4201290000000 1.0
C      1  0.5024570000000  0.5339700000000  0.5162260000000 1.0
C      1  0.4946700000000  0.5875670000000  0.5068750000000 1.0
C      1  0.4341210000000  0.4682770000000  0.5581720000000 1.0
C      1  0.4644640000000  0.4800860000000  0.5995370000000 1.0
C      1  0.5500580000000  0.4228920000000  0.5541560000000 1.0
C      1  0.4147650000000  0.4657300000000  0.4419420000000 1.0
C      1  0.4528220000000  0.5456130000000  0.4375590000000 1.0
C      1  0.4582960000000  0.5865810000000  0.4576230000000 1.0
C      1  0.4156040000000  0.4482930000000  0.5176280000000 1.0
C      1  0.4931860000000  0.5198610000000  0.5378720000000 1.0
C      1  0.4663500000000  0.5132800000000  0.5441210000000 1.0
C      1  0.5270330000000  0.4078020000000  0.5086660000000 1.0
C      1  0.4636220000000  0.5319740000000  0.4641550000000 1.0
C      1  0.4610240000000  0.4799920000000  0.5485940000000 1.0
C      1  0.5279330000000  0.4119530000000  0.4548020000000 1.0
C      1  0.4230830000000  0.5531120000000  0.4943370000000 1.0
C      1  0.5027200000000  0.4561010000000  0.4497820000000 1.0
C      1  0.5611250000000  0.4891770000000  0.5198450000000 1.0
C      1  0.4541780000000  0.4327230000000  0.4341070000000 1.0
C      1  0.4851270000000  0.3917530000000  0.5318460000000 1.0
C      1  0.5381940000000  0.4797410000000  0.4220060000000 1.0
C      1  0.4992180000000  0.4622280000000  0.5743890000000 1.0
C      1  0.5762440000000  0.5615090000000  0.5381530000000 1.0
C      1  0.4557070000000  0.5247390000000  0.5743810000000 1.0
C      1  0.4425740000000  0.4140070000000  0.4528430000000 1.0
C      1  0.5214330000000  0.5618290000000  0.4748890000000 1.0
C      1  0.4192190000000  0.5139570000000  0.4610780000000 1.0
C      1  0.5105950000000  0.4546080000000  0.4830030000000 1.0
C      1  0.5352890000000  0.4888580000000  0.5783130000000 1.0
C      1  0.5193380000000  0.4763390000000  0.5243200000000 1.0
C      1  0.4161630000000  0.4903980000000  0.5662660000000 1.0
C      1  0.4409800000000  0.4584130000000  0.5086170000000 1.0
C      1  0.4650570000000  0.5920060000000  0.5113770000000 1.0
C      1  0.5373210000000  0.5000560000000  0.5053080000000 1.0
C      1  0.4684510000000  0.4878620000000  0.4995790000000 1.0
C      1  0.5460680000000  0.4296070000000  0.5139940000000 1.0
C      1  0.4990940000000  0.4625540000000  0.5079040000000 1.0
C      1  0.4964930000000  0.5704800000000  0.4289430000000 1.0
C      1  0.5608670000000  0.4790440000000  0.5690510000000 1.0
C      1  0.5134580000000  0.3995860000000  0.5333610000000 1.0
C      1  0.5667480000000  0.5661530000000  0.4613210000000 1.0
C      1  0.5295600000000  0.5262040000000  0.4367210000000 1.0
C      1  0.5687780000000  0.4281780000000  0.5335190000000 1.0
C      1  0.5622020000000  0.4486460000000  0.4686290000000 1.0
C      1  0.4136550000000  0.5076070000000  0.5423770000000 1.0
C      1  0.4480730000000  0.4355360000000  0.4897280000000 1.0
C      1  0.5391440000000  0.4632670000000  0.4807640000000 1.0
C      1  0.4810320000000  0.4654310000000  0.6209930000000 1.0
C      1  0.4811060000000  0.4338910000000  0.4484480000000 1.0
C      1  0.5224360000000  0.4158460000000  0.5571960000000 1.0
C      1  0.4388410000000  0.4564880000000  0.4262560000000 1.0
C      1  0.4458570000000  0.5057500000000  0.5030060000000 1.0
C      1  0.4715650000000  0.5712300000000  0.5554120000000 1.0
C      1  0.4542550000000  0.5741840000000  0.5318890000000 1.0
C      1  0.4387530000000  0.5515030000000  0.5201800000000 1.0
C      1  0.4876650000000  0.5564830000000  0.5046820000000 1.0
C      1  0.5403160000000  0.5913640000000  0.5296550000000 1.0
C      1  0.5463970000000  0.4353970000000  0.4474050000000 1.0
C      1  0.5320280000000  0.5318270000000  0.5149450000000 1.0
C      1  0.5397590000000  0.5544470000000  0.4967160000000 1.0
C      1  0.4481810000000  0.4229880000000  0.5472160000000 1.0
C      1  0.5580850000000  0.5882980000000  0.4784120000000 1.0
C      1  0.5828040000000  0.4950700000000  0.5578140000000 1.0
C      1  0.4216510000000  0.4931960000000  0.5178930000000 1.0
C      1  0.4873420000000  0.4793840000000  0.4523720000000 1.0
C      1  0.4218770000000  0.4933950000000  0.4356150000000 1.0
C      1  0.4502510000000  0.4053180000000  0.4994110000000 1.0
C      1  0.4012490000000  0.4890110000000  0.4992840000000 1.0
C      1  0.4989960000000  0.4325160000000  0.5655240000000 1.0
C      1  0.4873080000000  0.5856680000000  0.4513780000000 1.0
C      1  0.4915140000000  0.5242760000000  0.4613170000000 1.0
C      1  0.4053980000000  0.4989750000000  0.4773180000000 1.0
C      1  0.5933890000000  0.5345160000000  0.4969780000000 1.0
C      1  0.5113930000000  0.5872260000000  0.5819990000000 1.0
C      1  0.4594600000000  0.3968340000000  0.4733210000000 1.0
C      1  0.4241040000000  0.4283110000000  0.4694570000000 1.0
C      1  0.4375960000000  0.5669080000000  0.4487440000000 1.0
C      1  0.4221300000000  0.5483270000000  0.4661130000000 1.0
C      1  0.5436970000000  0.5547500000000  0.5640880000000 1.0
C      1  0.5761860000000  0.5144790000000  0.4281480000000 1.0
C      1  0.4870540000000  0.3981010000000  0.4792070000000 1.0
C      1  0.5029710000000  0.4088400000000  0.4415100000000 1.0
C      1  0.4700960000000  0.5085770000000  0.5972240000000 1.0
C      1  0.5262690000000  0.5673540000000  0.4201830000000 1.0
C      1  0.5908470000000  0.4497610000000  0.5270040000000 1.0
C      1  0.5289890000000  0.4541370000000  0.4343760000000 1.0
C      1  0.4671790000000  0.5553750000000  0.4857500000000 1.0
C      1  0.5869670000000  0.5167140000000  0.4566520000000 1.0
C      1  0.4261150000000  0.4435810000000  0.5447010000000 1.0
C      1  0.5135940000000  0.5161880000000  0.5557790000000 1.0
C      1  0.5115450000000  0.5930120000000  0.5313340000000 1.0
C      1  0.5402820000000  0.4922290000000  0.4772630000000 1.0
C      1  0.4673740000000  0.4673690000000  0.5204230000000 1.0
C      1  0.5251600000000  0.5512310000000  0.3964950000000 1.0
C      1  0.5057620000000  0.4673820000000  0.6048800000000 1.0
C      1  0.6029760000000  0.5069460000000  0.4947670000000 1.0
C      1  0.5557830000000  0.5367400000000  0.4258700000000 1.0
C      1  0.5880610000000  0.4633230000000  0.4733540000000 1.0
C      1  0.5188800000000  0.4935120000000  0.4009540000000 1.0
C      1  0.5975740000000  0.4760440000000  0.5397030000000 1.0
C      1  0.5070450000000  0.5880330000000  0.4745670000000 1.0
C      1  0.4736110000000  0.4271140000000  0.5563030000000 1.0
C      1  0.5154450000000  0.4859230000000  0.5563910000000 1.0
END
