TITL C-884142-5251-418 18.4590817188723 125000 -28931.3393154342 0 0 192 (C1) n - 1
REM
REM in /home/nfs/bkarasulu/CARBON/AIRSS/Generating-Clusters/ReaxFF-fromJPCA2015/Units_Real/with-SteepDescent/Only-C1/SD-CG/Try1-3A/FIRE-CG
REM
REM
REM
REM
REM
REM ./C.cell (11c1c37f851c82e70ff6c80c92926a4b)
REM
REM compiler GCC version 9.2.1 20190827 (Red Hat 9.2.1-1)
REM options -cpp -mtune=generic -march=x86-64 -g -O0 -fpre-include=/usr/include/finclude/math-vector-fortran.h
REM seed -1381936193 -1890105981 -1391642358 1968410199 -796901737 340888396 -1437639759 1758671852 -1086295995 -44017219 1480840942 2132488045 458835905 269017001 1927721465 -2058458667 1722552451 -1458544335 69940573 -28757358 -688079089 864911401 -1157989761 1200996318 910482142 173431977 -1306328615 397778141 -2070286513 -1810577874 671976166 -1617028958 -507476498
REM
CELL 1.54180   50.00000   50.00000   50.00000   90.00000   90.00000   90.00000
LATT -1
SFAC C  
C      1  0.4796640000000  0.5029820000000  0.6095800000000 1.0
C      1  0.4753060000000  0.4265780000000  0.4216850000000 1.0
C      1  0.4603410000000  0.5463150000000  0.4137120000000 1.0
C      1  0.3926430000000  0.4615260000000  0.5118220000000 1.0
C      1  0.4832610000000  0.4433270000000  0.5881040000000 1.0
C      1  0.5367560000000  0.5388480000000  0.5194830000000 1.0
C      1  0.5822800000000  0.4641020000000  0.5126040000000 1.0
C      1  0.5753000000000  0.5325160000000  0.5045330000000 1.0
C      1  0.6163090000000  0.4898270000000  0.4969710000000 1.0
C      1  0.5839650000000  0.4205610000000  0.5080360000000 1.0
C      1  0.5010870000000  0.4590540000000  0.4492680000000 1.0
C      1  0.4277230000000  0.5302900000000  0.4503610000000 1.0
C      1  0.5494440000000  0.4201900000000  0.4415170000000 1.0
C      1  0.4755940000000  0.5557150000000  0.5164520000000 1.0
C      1  0.5366510000000  0.3991080000000  0.4548730000000 1.0
C      1  0.5916690000000  0.4655980000000  0.5398410000000 1.0
C      1  0.5197630000000  0.6029740000000  0.5370000000000 1.0
C      1  0.5029280000000  0.5080070000000  0.5343470000000 1.0
C      1  0.5711260000000  0.4310030000000  0.4592350000000 1.0
C      1  0.5624450000000  0.4752080000000  0.5947960000000 1.0
C      1  0.4984520000000  0.4621640000000  0.3953200000000 1.0
C      1  0.5227880000000  0.5390040000000  0.6101310000000 1.0
C      1  0.5354020000000  0.5406300000000  0.4519530000000 1.0
C      1  0.6024790000000  0.5317840000000  0.5175740000000 1.0
C      1  0.3976080000000  0.5095960000000  0.4810050000000 1.0
C      1  0.5775960000000  0.5187990000000  0.4789770000000 1.0
C      1  0.5227720000000  0.5592210000000  0.4746060000000 1.0
C      1  0.5371100000000  0.5582060000000  0.5910070000000 1.0
C      1  0.4177840000000  0.5591180000000  0.4482030000000 1.0
C      1  0.5782570000000  0.5629740000000  0.5049210000000 1.0
C      1  0.4010960000000  0.5179080000000  0.4537450000000 1.0
C      1  0.4634850000000  0.4524000000000  0.4979070000000 1.0
C      1  0.3979190000000  0.5271490000000  0.5033640000000 1.0
C      1  0.4879300000000  0.5768990000000  0.4416070000000 1.0
C      1  0.5897400000000  0.4207640000000  0.5382970000000 1.0
C      1  0.4804340000000  0.4930150000000  0.4807190000000 1.0
C      1  0.4477110000000  0.5284040000000  0.4718340000000 1.0
C      1  0.4385080000000  0.4731970000000  0.5292780000000 1.0
C      1  0.5631690000000  0.5947340000000  0.4720120000000 1.0
C      1  0.4711290000000  0.4909860000000  0.4538830000000 1.0
C      1  0.4580580000000  0.4880140000000  0.5430370000000 1.0
C      1  0.4989710000000  0.4038830000000  0.5371930000000 1.0
C      1  0.5276920000000  0.4273180000000  0.4243950000000 1.0
C      1  0.4153080000000  0.4835830000000  0.4817530000000 1.0
C      1  0.4855450000000  0.5356180000000  0.5617180000000 1.0
C      1  0.5328020000000  0.5760000000000  0.5682290000000 1.0
C      1  0.4385750000000  0.5864760000000  0.5313050000000 1.0
C      1  0.5796070000000  0.5080080000000  0.5581590000000 1.0
C      1  0.4765610000000  0.5904460000000  0.5620420000000 1.0
C      1  0.4724000000000  0.4011810000000  0.5253480000000 1.0
C      1  0.5513620000000  0.5952840000000  0.4452130000000 1.0
C      1  0.3977630000000  0.4595670000000  0.4816220000000 1.0
C      1  0.5373380000000  0.4431800000000  0.5880380000000 1.0
C      1  0.4762460000000  0.5745350000000  0.4934880000000 1.0
C      1  0.4938050000000  0.5540760000000  0.5388860000000 1.0
C      1  0.5086030000000  0.3996620000000  0.4529320000000 1.0
C      1  0.5803320000000  0.5248970000000  0.4153720000000 1.0
C      1  0.4501950000000  0.4690360000000  0.4053640000000 1.0
C      1  0.5970160000000  0.5591280000000  0.5274180000000 1.0
C      1  0.3969460000000  0.5024200000000  0.4307210000000 1.0
C      1  0.4579090000000  0.4296270000000  0.5866820000000 1.0
C      1  0.4971610000000  0.4290810000000  0.4914550000000 1.0
C      1  0.4741760000000  0.4508330000000  0.4048120000000 1.0
C      1  0.5430880000000  0.4864020000000  0.4629230000000 1.0
C      1  0.4562110000000  0.4498420000000  0.4698960000000 1.0
C      1  0.5654530000000  0.4094480000000  0.5431370000000 1.0
C      1  0.4257630000000  0.4583700000000  0.4173070000000 1.0
C      1  0.4800770000000  0.6159060000000  0.5172300000000 1.0
C      1  0.4375760000000  0.4913150000000  0.5046080000000 1.0
C      1  0.4506620000000  0.4160690000000  0.5399940000000 1.0
C      1  0.5173900000000  0.5660230000000  0.3862800000000 1.0
C      1  0.4854420000000  0.4916890000000  0.5785960000000 1.0
C      1  0.5125030000000  0.5348380000000  0.5301060000000 1.0
C      1  0.5846840000000  0.4572190000000  0.4577300000000 1.0
C      1  0.4435390000000  0.4770050000000  0.5930710000000 1.0
C      1  0.5068250000000  0.5151410000000  0.4294990000000 1.0
C      1  0.4467980000000  0.5777960000000  0.4826820000000 1.0
C      1  0.5695830000000  0.4918630000000  0.4741510000000 1.0
C      1  0.5509250000000  0.5363480000000  0.5788910000000 1.0
C      1  0.4369960000000  0.4486020000000  0.5856840000000 1.0
C      1  0.5285270000000  0.4632850000000  0.5083510000000 1.0
C      1  0.4575550000000  0.5737910000000  0.5771460000000 1.0
C      1  0.5323140000000  0.5111500000000  0.6057100000000 1.0
C      1  0.4492380000000  0.4185570000000  0.4328510000000 1.0
C      1  0.4915030000000  0.4517740000000  0.5400680000000 1.0
C      1  0.4740890000000  0.5074460000000  0.5289520000000 1.0
C      1  0.5709600000000  0.5539370000000  0.4180500000000 1.0
C      1  0.5771320000000  0.4747400000000  0.4092360000000 1.0
C      1  0.4575210000000  0.5292750000000  0.5694520000000 1.0
C      1  0.5267170000000  0.4528630000000  0.4103330000000 1.0
C      1  0.5487120000000  0.3947350000000  0.4804240000000 1.0
C      1  0.5531360000000  0.5778390000000  0.5475210000000 1.0
C      1  0.4438110000000  0.5198030000000  0.4985260000000 1.0
C      1  0.5348670000000  0.5126920000000  0.5782380000000 1.0
C      1  0.5124170000000  0.5383900000000  0.3971560000000 1.0
C      1  0.3950080000000  0.4835180000000  0.5331940000000 1.0
C      1  0.5911150000000  0.5085110000000  0.4369160000000 1.0
C      1  0.5030490000000  0.5125720000000  0.5657510000000 1.0
C      1  0.5833040000000  0.4436220000000  0.5575320000000 1.0
C      1  0.5677050000000  0.4429740000000  0.5072900000000 1.0
C      1  0.5998040000000  0.4933440000000  0.5453800000000 1.0
C      1  0.5429280000000  0.5116550000000  0.5118550000000 1.0
C      1  0.4646020000000  0.5211760000000  0.3990180000000 1.0
C      1  0.5385530000000  0.4724390000000  0.5508290000000 1.0
C      1  0.4917770000000  0.4589900000000  0.6109640000000 1.0
C      1  0.4216750000000  0.5067400000000  0.4166170000000 1.0
C      1  0.4037520000000  0.4357560000000  0.5197420000000 1.0
C      1  0.4830380000000  0.5139890000000  0.4436110000000 1.0
C      1  0.5545450000000  0.5791030000000  0.4199960000000 1.0
C      1  0.5661580000000  0.4491310000000  0.5825850000000 1.0
C      1  0.5418170000000  0.4389780000000  0.5149830000000 1.0
C      1  0.4283720000000  0.5759350000000  0.5048330000000 1.0
C      1  0.4630910000000  0.6006290000000  0.5381770000000 1.0
C      1  0.3975790000000  0.5128070000000  0.5296180000000 1.0
C      1  0.4914600000000  0.6020220000000  0.4942000000000 1.0
C      1  0.3998470000000  0.5100710000000  0.5900690000000 1.0
C      1  0.4187770000000  0.4495150000000  0.5626400000000 1.0
C      1  0.5172340000000  0.6068780000000  0.4802790000000 1.0
C      1  0.4680340000000  0.4775810000000  0.6129500000000 1.0
C      1  0.5180150000000  0.5410900000000  0.4255680000000 1.0
C      1  0.5390430000000  0.4835290000000  0.6116180000000 1.0
C      1  0.5548780000000  0.4909700000000  0.5686910000000 1.0
C      1  0.5207260000000  0.4933890000000  0.4154790000000 1.0
C      1  0.4102600000000  0.5309460000000  0.5469650000000 1.0
C      1  0.5435720000000  0.4940700000000  0.3953780000000 1.0
C      1  0.5242110000000  0.6044130000000  0.4512470000000 1.0
C      1  0.4557180000000  0.4198820000000  0.5624020000000 1.0
C      1  0.5713780000000  0.5026480000000  0.3987930000000 1.0
C      1  0.5236570000000  0.5137190000000  0.4898280000000 1.0
C      1  0.4024940000000  0.4732640000000  0.5597020000000 1.0
C      1  0.5966000000000  0.5261200000000  0.4594740000000 1.0
C      1  0.5059420000000  0.4295840000000  0.5502440000000 1.0
C      1  0.5047720000000  0.6252040000000  0.5274400000000 1.0
C      1  0.5506590000000  0.4667260000000  0.3993550000000 1.0
C      1  0.5907230000000  0.4745100000000  0.4865940000000 1.0
C      1  0.4382410000000  0.5695710000000  0.5548630000000 1.0
C      1  0.5410350000000  0.5881140000000  0.5189410000000 1.0
C      1  0.4951200000000  0.5415610000000  0.6116450000000 1.0
C      1  0.5856490000000  0.4782080000000  0.4373890000000 1.0
C      1  0.5889660000000  0.5539730000000  0.4597000000000 1.0
C      1  0.4940030000000  0.5625180000000  0.4675730000000 1.0
C      1  0.5299880000000  0.5126050000000  0.4627720000000 1.0
C      1  0.4412880000000  0.5752390000000  0.4541240000000 1.0
C      1  0.4872180000000  0.4627200000000  0.5667220000000 1.0
C      1  0.4728170000000  0.3957870000000  0.4970120000000 1.0
C      1  0.5108370000000  0.4472030000000  0.4733560000000 1.0
C      1  0.5212920000000  0.4608890000000  0.6071570000000 1.0
C      1  0.4051300000000  0.5638690000000  0.4729020000000 1.0
C      1  0.5012990000000  0.4896740000000  0.3898330000000 1.0
C      1  0.4588460000000  0.5323230000000  0.5196020000000 1.0
C      1  0.4070040000000  0.4808380000000  0.4176200000000 1.0
C      1  0.5335740000000  0.5622620000000  0.5012760000000 1.0
C      1  0.4338440000000  0.4669420000000  0.4631820000000 1.0
C      1  0.4916060000000  0.5167100000000  0.3887130000000 1.0
C      1  0.5286060000000  0.4472040000000  0.5600780000000 1.0
C      1  0.5005640000000  0.4004840000000  0.4819260000000 1.0
C      1  0.4040810000000  0.5567740000000  0.4998860000000 1.0
C      1  0.5773650000000  0.5619220000000  0.5494000000000 1.0
C      1  0.4470770000000  0.3950820000000  0.4505510000000 1.0
C      1  0.4301170000000  0.4431220000000  0.5349660000000 1.0
C      1  0.5436510000000  0.6029490000000  0.4926200000000 1.0
C      1  0.4698420000000  0.5315000000000  0.6140930000000 1.0
C      1  0.5254160000000  0.3894490000000  0.4963920000000 1.0
C      1  0.4118810000000  0.4852840000000  0.5855240000000 1.0
C      1  0.4576570000000  0.4950190000000  0.5716090000000 1.0
C      1  0.5297940000000  0.4664290000000  0.4803520000000 1.0
C      1  0.5721550000000  0.4122710000000  0.4823930000000 1.0
C      1  0.4831670000000  0.4405210000000  0.5141340000000 1.0
C      1  0.5305250000000  0.4869070000000  0.5261620000000 1.0
C      1  0.5223960000000  0.3923060000000  0.5245420000000 1.0
C      1  0.5838990000000  0.5750940000000  0.4790900000000 1.0
C      1  0.5016140000000  0.4162450000000  0.4306200000000 1.0
C      1  0.5645740000000  0.5485940000000  0.4455420000000 1.0
C      1  0.4614550000000  0.5691710000000  0.4311610000000 1.0
C      1  0.4578890000000  0.5486490000000  0.5926560000000 1.0
C      1  0.5222840000000  0.4707670000000  0.4337840000000 1.0
C      1  0.4156700000000  0.4440200000000  0.4634440000000 1.0
C      1  0.4468110000000  0.4976900000000  0.4046380000000 1.0
C      1  0.5084530000000  0.5933880000000  0.4295780000000 1.0
C      1  0.5276690000000  0.5836760000000  0.4082040000000 1.0
C      1  0.6152100000000  0.5049910000000  0.5212040000000 1.0
C      1  0.4255200000000  0.4361400000000  0.4360380000000 1.0
C      1  0.4494250000000  0.3898060000000  0.4797830000000 1.0
C      1  0.4723200000000  0.4625370000000  0.4491690000000 1.0
C      1  0.4785480000000  0.5322570000000  0.4662530000000 1.0
C      1  0.4373680000000  0.5403510000000  0.5463680000000 1.0
C      1  0.5405840000000  0.4148970000000  0.5318460000000 1.0
C      1  0.5756140000000  0.5360520000000  0.5641630000000 1.0
C      1  0.4956970000000  0.5164800000000  0.4848500000000 1.0
C      1  0.5052250000000  0.5829990000000  0.5552050000000 1.0
C      1  0.4001260000000  0.5224930000000  0.5704480000000 1.0
C      1  0.4641130000000  0.4807860000000  0.4995950000000 1.0
END
