TITL C-884138-6203-191 -2.67994872752784 125000 -23437.0072265519 0 0 158 (C1) n - 1
REM
REM in /home/nfs/bkarasulu/CARBON/AIRSS/Generating-Clusters/ReaxFF-fromJPCA2015/Units_Real/with-SteepDescent/Only-C1/SD-CG/Try1-3A/FIRE-CG
REM
REM
REM
REM
REM
REM ./C.cell (11c1c37f851c82e70ff6c80c92926a4b)
REM
REM compiler GCC version 9.2.1 20190827 (Red Hat 9.2.1-1)
REM options -cpp -mtune=generic -march=x86-64 -g -O0 -fpre-include=/usr/include/finclude/math-vector-fortran.h
REM seed -1637536063 -1723742828 2000112562 -1973103277 793927010 897572471 -2058667506 2077969620 1038514419 -36206840 1499106992 -1167320045 -1208119159 -2015549123 1603092066 919262850 -133649858 -466804294 1445733650 683178362 1789398994 1085932687 185676490 217332178 1099570806 2105834841 -1212027829 705097930 36770310 913214499 -421945809 988387335 -1812440181
REM
CELL 1.54180   50.00000   50.00000   50.00000   90.00000   90.00000   90.00000
LATT -1
SFAC C  
C      1  0.5398670000000  0.5049220000000  0.5845040000000 1.0
C      1  0.4150470000000  0.4536510000000  0.5534000000000 1.0
C      1  0.4759320000000  0.5443900000000  0.4075350000000 1.0
C      1  0.4575250000000  0.5628460000000  0.4217810000000 1.0
C      1  0.5909100000000  0.4238940000000  0.4801180000000 1.0
C      1  0.5201710000000  0.4142940000000  0.4417800000000 1.0
C      1  0.5440250000000  0.5366900000000  0.4782070000000 1.0
C      1  0.4745170000000  0.4324200000000  0.5366600000000 1.0
C      1  0.5408660000000  0.4847280000000  0.4652920000000 1.0
C      1  0.5987440000000  0.5024380000000  0.5468850000000 1.0
C      1  0.4928620000000  0.4412640000000  0.5560130000000 1.0
C      1  0.5772300000000  0.4886300000000  0.4338010000000 1.0
C      1  0.5367400000000  0.5895650000000  0.5308220000000 1.0
C      1  0.5680810000000  0.5805120000000  0.5019780000000 1.0
C      1  0.5361330000000  0.5177460000000  0.5578690000000 1.0
C      1  0.4739250000000  0.5117340000000  0.4501990000000 1.0
C      1  0.5217810000000  0.4353440000000  0.5009790000000 1.0
C      1  0.4725380000000  0.4003700000000  0.5002400000000 1.0
C      1  0.4550380000000  0.4743390000000  0.5530340000000 1.0
C      1  0.4799380000000  0.5472110000000  0.5474550000000 1.0
C      1  0.5870520000000  0.5171410000000  0.4662470000000 1.0
C      1  0.5001510000000  0.4686840000000  0.4944810000000 1.0
C      1  0.5052760000000  0.4169540000000  0.5660690000000 1.0
C      1  0.5779820000000  0.4874430000000  0.4955420000000 1.0
C      1  0.5984520000000  0.4759570000000  0.4777650000000 1.0
C      1  0.4287870000000  0.5772110000000  0.4634510000000 1.0
C      1  0.5031880000000  0.5823710000000  0.4243040000000 1.0
C      1  0.5579240000000  0.4401210000000  0.4451000000000 1.0
C      1  0.5795880000000  0.5423460000000  0.5693020000000 1.0
C      1  0.5603630000000  0.4690920000000  0.4482900000000 1.0
C      1  0.5281040000000  0.5054910000000  0.5092120000000 1.0
C      1  0.4923470000000  0.4885750000000  0.4767020000000 1.0
C      1  0.4569630000000  0.4594760000000  0.4641450000000 1.0
C      1  0.3898090000000  0.5020170000000  0.5042060000000 1.0
C      1  0.4411610000000  0.4522080000000  0.5670060000000 1.0
C      1  0.5618900000000  0.5063200000000  0.4776480000000 1.0
C      1  0.4365150000000  0.4465930000000  0.4485270000000 1.0
C      1  0.5943780000000  0.4331790000000  0.5076670000000 1.0
C      1  0.4707610000000  0.5351890000000  0.4666240000000 1.0
C      1  0.4518710000000  0.5397020000000  0.4884690000000 1.0
C      1  0.4296290000000  0.5594580000000  0.4873580000000 1.0
C      1  0.4175580000000  0.4685600000000  0.4431990000000 1.0
C      1  0.4321820000000  0.5072000000000  0.5148090000000 1.0
C      1  0.5417930000000  0.5804990000000  0.4574960000000 1.0
C      1  0.4779600000000  0.4567600000000  0.5114060000000 1.0
C      1  0.4941240000000  0.4000990000000  0.4798630000000 1.0
C      1  0.5141000000000  0.5687480000000  0.5784150000000 1.0
C      1  0.4757150000000  0.5821190000000  0.4331410000000 1.0
C      1  0.5452640000000  0.4056960000000  0.4824010000000 1.0
C      1  0.5336970000000  0.4987850000000  0.5366470000000 1.0
C      1  0.4441880000000  0.5799310000000  0.5460230000000 1.0
C      1  0.5921490000000  0.5456380000000  0.4714730000000 1.0
C      1  0.4823770000000  0.5573010000000  0.5200960000000 1.0
C      1  0.5648520000000  0.5809850000000  0.5313550000000 1.0
C      1  0.4679290000000  0.5713250000000  0.5595740000000 1.0
C      1  0.4124330000000  0.5437380000000  0.5315270000000 1.0
C      1  0.4141880000000  0.4622780000000  0.4972720000000 1.0
C      1  0.5203900000000  0.5929110000000  0.5067100000000 1.0
C      1  0.4908210000000  0.5228230000000  0.5593150000000 1.0
C      1  0.5213720000000  0.3987360000000  0.4675950000000 1.0
C      1  0.4318260000000  0.5606110000000  0.4366340000000 1.0
C      1  0.5564830000000  0.5563380000000  0.5804200000000 1.0
C      1  0.5230770000000  0.5023290000000  0.3988680000000 1.0
C      1  0.4794000000000  0.4677860000000  0.6044900000000 1.0
C      1  0.4482860000000  0.5938620000000  0.4735960000000 1.0
C      1  0.4552180000000  0.4880110000000  0.5784110000000 1.0
C      1  0.5006790000000  0.5093150000000  0.4395610000000 1.0
C      1  0.4871980000000  0.4970630000000  0.5472630000000 1.0
C      1  0.4245150000000  0.4330060000000  0.5348870000000 1.0
C      1  0.5986610000000  0.4936630000000  0.4537790000000 1.0
C      1  0.5662490000000  0.4620270000000  0.5709600000000 1.0
C      1  0.4996510000000  0.5429910000000  0.5028130000000 1.0
C      1  0.4572680000000  0.4791350000000  0.4238490000000 1.0
C      1  0.5129240000000  0.4910630000000  0.4563260000000 1.0
C      1  0.4176460000000  0.5029820000000  0.5402100000000 1.0
C      1  0.5963530000000  0.5157500000000  0.5215460000000 1.0
C      1  0.5231610000000  0.5484390000000  0.5208860000000 1.0
C      1  0.4721480000000  0.4599010000000  0.4078670000000 1.0
C      1  0.4486490000000  0.4302430000000  0.5501300000000 1.0
C      1  0.5326690000000  0.5597830000000  0.5980640000000 1.0
C      1  0.5276410000000  0.4711780000000  0.5387520000000 1.0
C      1  0.5055790000000  0.3976180000000  0.5427300000000 1.0
C      1  0.4550020000000  0.4649860000000  0.5964670000000 1.0
C      1  0.5486330000000  0.5348950000000  0.4271120000000 1.0
C      1  0.4267700000000  0.4328090000000  0.5059780000000 1.0
C      1  0.5781360000000  0.5406340000000  0.5185970000000 1.0
C      1  0.5339020000000  0.4049280000000  0.5388920000000 1.0
C      1  0.5656900000000  0.4915340000000  0.5794810000000 1.0
C      1  0.4676760000000  0.4412580000000  0.4846370000000 1.0
C      1  0.5277330000000  0.4787100000000  0.4960450000000 1.0
C      1  0.4572680000000  0.4735000000000  0.5238660000000 1.0
C      1  0.5069380000000  0.4744270000000  0.6060840000000 1.0
C      1  0.5019610000000  0.5551580000000  0.4145650000000 1.0
C      1  0.5782920000000  0.5576410000000  0.5443030000000 1.0
C      1  0.4303700000000  0.5544040000000  0.5500200000000 1.0
C      1  0.4066130000000  0.4754610000000  0.4687940000000 1.0
C      1  0.4032870000000  0.5456430000000  0.4898820000000 1.0
C      1  0.5451260000000  0.5349930000000  0.5085180000000 1.0
C      1  0.5428770000000  0.4452420000000  0.5780760000000 1.0
C      1  0.5043040000000  0.5499160000000  0.5967840000000 1.0
C      1  0.4577950000000  0.5162670000000  0.5855000000000 1.0
C      1  0.5649420000000  0.4205380000000  0.4667260000000 1.0
C      1  0.4991910000000  0.4687990000000  0.4019100000000 1.0
C      1  0.5184440000000  0.5935440000000  0.4477420000000 1.0
C      1  0.4556800000000  0.5237560000000  0.5128960000000 1.0
C      1  0.5138400000000  0.5018820000000  0.5976170000000 1.0
C      1  0.4365080000000  0.4807310000000  0.5056450000000 1.0
C      1  0.5847230000000  0.4892210000000  0.5238880000000 1.0
C      1  0.5560950000000  0.5590120000000  0.4412350000000 1.0
C      1  0.4957830000000  0.4986660000000  0.3950590000000 1.0
C      1  0.4842050000000  0.5798750000000  0.4633150000000 1.0
C      1  0.5023480000000  0.5997340000000  0.4714260000000 1.0
C      1  0.5595140000000  0.5087170000000  0.4203370000000 1.0
C      1  0.4160190000000  0.5404250000000  0.4459980000000 1.0
C      1  0.4649650000000  0.4328650000000  0.4099760000000 1.0
C      1  0.4713930000000  0.5921320000000  0.5377210000000 1.0
C      1  0.5000750000000  0.5127850000000  0.5016870000000 1.0
C      1  0.5873520000000  0.5590180000000  0.4968050000000 1.0
C      1  0.4000130000000  0.5286520000000  0.4652980000000 1.0
C      1  0.4226200000000  0.5091060000000  0.5657820000000 1.0
C      1  0.5704890000000  0.4481820000000  0.5469900000000 1.0
C      1  0.4668420000000  0.4859460000000  0.4625760000000 1.0
C      1  0.5220340000000  0.5663310000000  0.5456110000000 1.0
C      1  0.3947730000000  0.5313920000000  0.5137190000000 1.0
C      1  0.5434020000000  0.4860690000000  0.4072410000000 1.0
C      1  0.4824380000000  0.4045290000000  0.5266960000000 1.0
C      1  0.4958130000000  0.4294080000000  0.4780600000000 1.0
C      1  0.4030480000000  0.4789310000000  0.5455460000000 1.0
C      1  0.4490860000000  0.5045310000000  0.4139130000000 1.0
C      1  0.4299060000000  0.4841510000000  0.4214000000000 1.0
C      1  0.4797560000000  0.5085140000000  0.5216140000000 1.0
C      1  0.4731800000000  0.6047620000000  0.4778100000000 1.0
C      1  0.5704810000000  0.4337160000000  0.5241240000000 1.0
C      1  0.6057560000000  0.4486150000000  0.4848490000000 1.0
C      1  0.4906060000000  0.5847190000000  0.5176410000000 1.0
C      1  0.5658740000000  0.5503870000000  0.4643210000000 1.0
C      1  0.5431710000000  0.4178060000000  0.5121130000000 1.0
C      1  0.5419740000000  0.5848790000000  0.4877700000000 1.0
C      1  0.4949260000000  0.5507160000000  0.4729960000000 1.0
C      1  0.4467690000000  0.4264250000000  0.4302300000000 1.0
C      1  0.4965110000000  0.4295990000000  0.4473110000000 1.0
C      1  0.3944280000000  0.5002560000000  0.4753740000000 1.0
C      1  0.3958890000000  0.4774200000000  0.5171050000000 1.0
C      1  0.4919150000000  0.5224590000000  0.5896460000000 1.0
C      1  0.4741540000000  0.4185230000000  0.4316880000000 1.0
C      1  0.5182440000000  0.5347950000000  0.4335630000000 1.0
C      1  0.5045380000000  0.4677940000000  0.5559770000000 1.0
C      1  0.5339750000000  0.4583240000000  0.5137400000000 1.0
C      1  0.4364730000000  0.5316120000000  0.5739770000000 1.0
C      1  0.5411280000000  0.5464560000000  0.5568440000000 1.0
C      1  0.5345430000000  0.4193530000000  0.5647420000000 1.0
C      1  0.5251800000000  0.4621780000000  0.4134790000000 1.0
C      1  0.5836960000000  0.5122820000000  0.5701310000000 1.0
C      1  0.5201220000000  0.4632340000000  0.5822350000000 1.0
C      1  0.4721790000000  0.5159830000000  0.4013280000000 1.0
C      1  0.4490450000000  0.4191090000000  0.4944650000000 1.0
C      1  0.5194660000000  0.5414560000000  0.4626550000000 1.0
C      1  0.5336780000000  0.4375510000000  0.4288260000000 1.0
END
