TITL C-883730-8503-273 8.54319195313517 125000 -12769.000807574 0 0 88 (C1) n - 1
REM
REM in /home/nfs/bkarasulu/CARBON/AIRSS/Generating-Clusters/ReaxFF-fromJPCA2015/Units_Real/with-SteepDescent/Only-C1/SD-CG/Try1-3A/FIRE-CG
REM
REM
REM
REM
REM
REM ./C.cell (11c1c37f851c82e70ff6c80c92926a4b)
REM
REM compiler GCC version 9.2.1 20190827 (Red Hat 9.2.1-1)
REM options -cpp -mtune=generic -march=x86-64 -g -O0 -fpre-include=/usr/include/finclude/math-vector-fortran.h
REM seed 2030057869 1717070537 -1458807098 1288972071 -287660334 886602652 1451105048 645619922 -405895584 -406257252 -827921775 -1315668261 -2143924885 794511535 1422758133 177200674 353968173 -1650090158 1714774880 -558451687 -1251291547 -354754809 -185768879 -193320417 -1674381189 -2042721599 -298317935 -1849529837 -734962595 -430125312 -1478038385 165635290 -1026853551
REM
CELL 1.54180   50.00000   50.00000   50.00000   90.00000   90.00000   90.00000
LATT -1
SFAC C  
C      1  0.4224000000000  0.4918280000000  0.5502300000000 1.0
C      1  0.5203200000000  0.5661570000000  0.4746350000000 1.0
C      1  0.4386650000000  0.5549520000000  0.5127880000000 1.0
C      1  0.4288100000000  0.5112870000000  0.5290270000000 1.0
C      1  0.5267660000000  0.4755600000000  0.5051980000000 1.0
C      1  0.5819750000000  0.4840180000000  0.4869040000000 1.0
C      1  0.5492140000000  0.5723210000000  0.4789580000000 1.0
C      1  0.5150090000000  0.4259740000000  0.4965870000000 1.0
C      1  0.5623180000000  0.5024830000000  0.4415280000000 1.0
C      1  0.4826750000000  0.5193260000000  0.4146250000000 1.0
C      1  0.5121600000000  0.5616130000000  0.4260540000000 1.0
C      1  0.4746250000000  0.5204950000000  0.4706200000000 1.0
C      1  0.4571850000000  0.5144610000000  0.5232470000000 1.0
C      1  0.4195970000000  0.4475280000000  0.5102830000000 1.0
C      1  0.4535910000000  0.4658750000000  0.5632820000000 1.0
C      1  0.4436840000000  0.4544120000000  0.5230030000000 1.0
C      1  0.4735580000000  0.4749310000000  0.4752610000000 1.0
C      1  0.4299060000000  0.4631160000000  0.5464290000000 1.0
C      1  0.5735950000000  0.5418360000000  0.4937120000000 1.0
C      1  0.4920440000000  0.4786420000000  0.4395030000000 1.0
C      1  0.4623060000000  0.5204510000000  0.4954810000000 1.0
C      1  0.4970320000000  0.5802530000000  0.4785970000000 1.0
C      1  0.5433850000000  0.4690180000000  0.4563710000000 1.0
C      1  0.4930860000000  0.4509210000000  0.4439640000000 1.0
C      1  0.5711280000000  0.4820220000000  0.4603770000000 1.0
C      1  0.4972470000000  0.4206900000000  0.4729660000000 1.0
C      1  0.4654960000000  0.5389310000000  0.4485250000000 1.0
C      1  0.4535300000000  0.5712270000000  0.4967670000000 1.0
C      1  0.5300110000000  0.5383470000000  0.5768030000000 1.0
C      1  0.4357850000000  0.5041420000000  0.4332520000000 1.0
C      1  0.5232910000000  0.4920620000000  0.5566680000000 1.0
C      1  0.4703110000000  0.4276230000000  0.4821420000000 1.0
C      1  0.4839420000000  0.5655710000000  0.5421210000000 1.0
C      1  0.4939130000000  0.5118540000000  0.5864710000000 1.0
C      1  0.5081770000000  0.5604590000000  0.5266340000000 1.0
C      1  0.4551790000000  0.5587680000000  0.5364650000000 1.0
C      1  0.5019550000000  0.5106490000000  0.5108730000000 1.0
C      1  0.5281270000000  0.4557780000000  0.4111520000000 1.0
C      1  0.4744870000000  0.5813790000000  0.4851310000000 1.0
C      1  0.4302770000000  0.4924910000000  0.4591820000000 1.0
C      1  0.5376850000000  0.5645310000000  0.5297480000000 1.0
C      1  0.5150250000000  0.4487930000000  0.5152040000000 1.0
C      1  0.4422120000000  0.4923420000000  0.5729090000000 1.0
C      1  0.5379710000000  0.5514890000000  0.5535190000000 1.0
C      1  0.4221470000000  0.5274160000000  0.5051850000000 1.0
C      1  0.5580450000000  0.5636420000000  0.5060270000000 1.0
C      1  0.5178050000000  0.5371260000000  0.4833850000000 1.0
C      1  0.5835290000000  0.4595810000000  0.5022080000000 1.0
C      1  0.4911000000000  0.4883260000000  0.5214580000000 1.0
C      1  0.4235780000000  0.5115680000000  0.4809050000000 1.0
C      1  0.4561050000000  0.5247260000000  0.4236110000000 1.0
C      1  0.5331920000000  0.4441150000000  0.4363660000000 1.0
C      1  0.4766120000000  0.4491970000000  0.5532570000000 1.0
C      1  0.4774310000000  0.4396900000000  0.5064270000000 1.0
C      1  0.5165590000000  0.4860320000000  0.4209060000000 1.0
C      1  0.5315020000000  0.5153490000000  0.4724810000000 1.0
C      1  0.4488280000000  0.4675160000000  0.4641640000000 1.0
C      1  0.4470700000000  0.4394780000000  0.4689720000000 1.0
C      1  0.5008930000000  0.5403100000000  0.5835940000000 1.0
C      1  0.5276650000000  0.5357540000000  0.4265820000000 1.0
C      1  0.5833360000000  0.4295280000000  0.4932000000000 1.0
C      1  0.5525140000000  0.4663590000000  0.5424030000000 1.0
C      1  0.5241030000000  0.4873610000000  0.4777520000000 1.0
C      1  0.5481400000000  0.5274870000000  0.4495740000000 1.0
C      1  0.5108400000000  0.5159460000000  0.4135500000000 1.0
C      1  0.5870050000000  0.5174360000000  0.5258470000000 1.0
C      1  0.4950760000000  0.5007620000000  0.5591830000000 1.0
C      1  0.4648210000000  0.4353340000000  0.5309080000000 1.0
C      1  0.4249780000000  0.4428670000000  0.4856340000000 1.0
C      1  0.4813140000000  0.5568570000000  0.5700690000000 1.0
C      1  0.5052530000000  0.4495460000000  0.5454240000000 1.0
C      1  0.4531020000000  0.5468680000000  0.5650490000000 1.0
C      1  0.4751490000000  0.4686720000000  0.5032190000000 1.0
C      1  0.5175470000000  0.5002940000000  0.6029320000000 1.0
C      1  0.4844730000000  0.5550430000000  0.4350300000000 1.0
C      1  0.5819610000000  0.5113200000000  0.5021520000000 1.0
C      1  0.4918670000000  0.4937090000000  0.4656280000000 1.0
C      1  0.5279600000000  0.4613290000000  0.5586390000000 1.0
C      1  0.5419050000000  0.4855930000000  0.4337990000000 1.0
C      1  0.4476230000000  0.5198160000000  0.5696500000000 1.0
C      1  0.5637500000000  0.5494140000000  0.4675430000000 1.0
C      1  0.5735730000000  0.4516680000000  0.5282990000000 1.0
C      1  0.4765510000000  0.4993340000000  0.5396730000000 1.0
C      1  0.5083660000000  0.4285930000000  0.4459610000000 1.0
C      1  0.5082100000000  0.5346030000000  0.5100230000000 1.0
C      1  0.5354050000000  0.5085820000000  0.5810470000000 1.0
C      1  0.5386140000000  0.4877180000000  0.5283270000000 1.0
C      1  0.5748510000000  0.4215280000000  0.5207610000000 1.0
END
