TITL C-884128-4793-399 15.7528329927455 125000 -22152.4648846187 0 0 148 (C1) n - 1
REM
REM in /home/nfs/bkarasulu/CARBON/AIRSS/Generating-Clusters/ReaxFF-fromJPCA2015/Units_Real/with-SteepDescent/Only-C1/SD-CG/Try1-3A/FIRE-CG
REM
REM
REM
REM
REM
REM ./C.cell (11c1c37f851c82e70ff6c80c92926a4b)
REM
REM compiler GCC version 9.2.1 20190827 (Red Hat 9.2.1-1)
REM options -cpp -mtune=generic -march=x86-64 -g -O0 -fpre-include=/usr/include/finclude/math-vector-fortran.h
REM seed 2000274841 -1827155976 -1002181404 -1973889303 -199303729 1816676553 767819820 -1838576051 142202931 1231767043 421304187 464356581 1852294019 1813291391 -1496490013 1406119634 -884277755 -1162101498 934796952 -1201147054 1579153707 -1252200080 1009204935 465612193 1330680357 -1582851709 1521929447 -1234562498 -71289489 -593971001 -1269492709 -708499359 581769957
REM
CELL 1.54180   50.00000   50.00000   50.00000   90.00000   90.00000   90.00000
LATT -1
SFAC C  
C      1  0.4710380000000  0.5194230000000  0.5767480000000 1.0
C      1  0.5527570000000  0.5030010000000  0.4176530000000 1.0
C      1  0.4416480000000  0.5461770000000  0.4253820000000 1.0
C      1  0.4791360000000  0.5374530000000  0.4623200000000 1.0
C      1  0.4789000000000  0.4096360000000  0.4802290000000 1.0
C      1  0.4134040000000  0.4544620000000  0.5409890000000 1.0
C      1  0.3986770000000  0.5033370000000  0.4520280000000 1.0
C      1  0.4531350000000  0.4803090000000  0.5226790000000 1.0
C      1  0.4767460000000  0.4562830000000  0.4558190000000 1.0
C      1  0.5135720000000  0.4432340000000  0.4853850000000 1.0
C      1  0.6065700000000  0.4854230000000  0.4680850000000 1.0
C      1  0.5853890000000  0.4956960000000  0.4532170000000 1.0
C      1  0.5909430000000  0.5032990000000  0.5598290000000 1.0
C      1  0.4361560000000  0.5142490000000  0.5102220000000 1.0
C      1  0.5312030000000  0.5333380000000  0.4753850000000 1.0
C      1  0.5579610000000  0.5239670000000  0.4817390000000 1.0
C      1  0.5188530000000  0.4404530000000  0.5134310000000 1.0
C      1  0.4868040000000  0.5920190000000  0.4616120000000 1.0
C      1  0.5027960000000  0.5812160000000  0.5681000000000 1.0
C      1  0.5502770000000  0.5280820000000  0.4341040000000 1.0
C      1  0.5301390000000  0.5771000000000  0.4407630000000 1.0
C      1  0.4823270000000  0.5194020000000  0.4039230000000 1.0
C      1  0.4008210000000  0.4751400000000  0.4581470000000 1.0
C      1  0.4441490000000  0.5636180000000  0.5375940000000 1.0
C      1  0.4665860000000  0.4362990000000  0.5457510000000 1.0
C      1  0.5014680000000  0.5278350000000  0.4469610000000 1.0
C      1  0.4945960000000  0.4038540000000  0.5026780000000 1.0
C      1  0.5003440000000  0.5041410000000  0.5137120000000 1.0
C      1  0.5288990000000  0.4722620000000  0.4825940000000 1.0
C      1  0.5225950000000  0.5364230000000  0.4288220000000 1.0
C      1  0.5235360000000  0.5650120000000  0.5834420000000 1.0
C      1  0.5725160000000  0.4458970000000  0.4745130000000 1.0
C      1  0.4401640000000  0.5247420000000  0.4848400000000 1.0
C      1  0.4584070000000  0.4697920000000  0.4727470000000 1.0
C      1  0.4687820000000  0.5863870000000  0.4833210000000 1.0
C      1  0.3972400000000  0.4787430000000  0.5353650000000 1.0
C      1  0.4889010000000  0.4701980000000  0.4089010000000 1.0
C      1  0.4656760000000  0.4718420000000  0.5000870000000 1.0
C      1  0.5389290000000  0.4113240000000  0.4726520000000 1.0
C      1  0.3926190000000  0.4866160000000  0.5070440000000 1.0
C      1  0.4294950000000  0.5320400000000  0.4433710000000 1.0
C      1  0.4358450000000  0.4871910000000  0.4332790000000 1.0
C      1  0.4202270000000  0.5389720000000  0.4690350000000 1.0
C      1  0.5797230000000  0.5540360000000  0.5291440000000 1.0
C      1  0.5953000000000  0.5347860000000  0.5123080000000 1.0
C      1  0.4350980000000  0.4377600000000  0.4454420000000 1.0
C      1  0.4299990000000  0.4278010000000  0.4726010000000 1.0
C      1  0.6059090000000  0.4870990000000  0.5088020000000 1.0
C      1  0.5235560000000  0.4637020000000  0.5341460000000 1.0
C      1  0.4685280000000  0.5482210000000  0.5348380000000 1.0
C      1  0.5558720000000  0.4296710000000  0.4580310000000 1.0
C      1  0.4612180000000  0.5169670000000  0.4672610000000 1.0
C      1  0.5138800000000  0.5629320000000  0.4233710000000 1.0
C      1  0.5751520000000  0.4808160000000  0.5462090000000 1.0
C      1  0.3993990000000  0.4667950000000  0.4861740000000 1.0
C      1  0.5784170000000  0.4415110000000  0.5034360000000 1.0
C      1  0.5914020000000  0.4556460000000  0.5429360000000 1.0
C      1  0.5594390000000  0.4768610000000  0.5841170000000 1.0
C      1  0.5350730000000  0.4153800000000  0.5225610000000 1.0
C      1  0.5482190000000  0.4812690000000  0.5318680000000 1.0
C      1  0.5072420000000  0.5990400000000  0.5438940000000 1.0
C      1  0.5024550000000  0.4429950000000  0.4119430000000 1.0
C      1  0.4899110000000  0.6047130000000  0.5241080000000 1.0
C      1  0.5235300000000  0.5369900000000  0.5326920000000 1.0
C      1  0.4956090000000  0.4294550000000  0.4646070000000 1.0
C      1  0.5865470000000  0.5076080000000  0.5167590000000 1.0
C      1  0.5682210000000  0.4726980000000  0.4613250000000 1.0
C      1  0.4872980000000  0.5032770000000  0.5925010000000 1.0
C      1  0.4914370000000  0.4043990000000  0.5533110000000 1.0
C      1  0.5806850000000  0.5241120000000  0.4637230000000 1.0
C      1  0.4183350000000  0.5244050000000  0.5508480000000 1.0
C      1  0.4818030000000  0.5643430000000  0.5743160000000 1.0
C      1  0.5199630000000  0.4813490000000  0.4379510000000 1.0
C      1  0.5398530000000  0.4761780000000  0.4574290000000 1.0
C      1  0.5204310000000  0.5576660000000  0.4865900000000 1.0
C      1  0.4290880000000  0.4702060000000  0.5598600000000 1.0
C      1  0.4458900000000  0.4166950000000  0.5162110000000 1.0
C      1  0.4210930000000  0.4631730000000  0.4399880000000 1.0
C      1  0.4912160000000  0.4753700000000  0.4373900000000 1.0
C      1  0.5585880000000  0.5685340000000  0.5154000000000 1.0
C      1  0.5989570000000  0.4585900000000  0.5145930000000 1.0
C      1  0.5728200000000  0.5499770000000  0.5578880000000 1.0
C      1  0.5578080000000  0.4496400000000  0.5773880000000 1.0
C      1  0.4223890000000  0.5615050000000  0.5174340000000 1.0
C      1  0.4358910000000  0.5458730000000  0.5600880000000 1.0
C      1  0.5470580000000  0.5621630000000  0.5649310000000 1.0
C      1  0.4557510000000  0.5059760000000  0.5289370000000 1.0
C      1  0.4119310000000  0.5314800000000  0.5219160000000 1.0
C      1  0.5295610000000  0.4445500000000  0.4186290000000 1.0
C      1  0.4808710000000  0.5590180000000  0.5120860000000 1.0
C      1  0.4499100000000  0.4130790000000  0.4878620000000 1.0
C      1  0.5635000000000  0.4286300000000  0.5257070000000 1.0
C      1  0.4694330000000  0.5428120000000  0.4112360000000 1.0
C      1  0.5099710000000  0.4883960000000  0.6009520000000 1.0
C      1  0.5760030000000  0.5246980000000  0.5730140000000 1.0
C      1  0.4239170000000  0.4359380000000  0.5194200000000 1.0
C      1  0.5102910000000  0.4584660000000  0.5983340000000 1.0
C      1  0.3949070000000  0.5214480000000  0.4741420000000 1.0
C      1  0.4139570000000  0.4422560000000  0.4926840000000 1.0
C      1  0.5205840000000  0.4058060000000  0.5500670000000 1.0
C      1  0.5025980000000  0.5188400000000  0.5328540000000 1.0
C      1  0.5170600000000  0.6044380000000  0.5170850000000 1.0
C      1  0.4262640000000  0.5710720000000  0.4649220000000 1.0
C      1  0.5293960000000  0.5107730000000  0.5961450000000 1.0
C      1  0.4861950000000  0.4496110000000  0.5858330000000 1.0
C      1  0.4821000000000  0.4721920000000  0.5666910000000 1.0
C      1  0.4571450000000  0.4914410000000  0.4531870000000 1.0
C      1  0.5324860000000  0.4398890000000  0.5907410000000 1.0
C      1  0.4444560000000  0.5703600000000  0.4419750000000 1.0
C      1  0.5604250000000  0.4733740000000  0.4198780000000 1.0
C      1  0.4974380000000  0.4964840000000  0.3980520000000 1.0
C      1  0.4752630000000  0.4135320000000  0.5284270000000 1.0
C      1  0.4898460000000  0.4865990000000  0.4989190000000 1.0
C      1  0.5613990000000  0.5721950000000  0.4659540000000 1.0
C      1  0.3934270000000  0.5150170000000  0.5019100000000 1.0
C      1  0.5710600000000  0.4369930000000  0.5520730000000 1.0
C      1  0.5571250000000  0.5046460000000  0.5886020000000 1.0
C      1  0.5344530000000  0.5365890000000  0.5570530000000 1.0
C      1  0.4569280000000  0.4645060000000  0.5468280000000 1.0
C      1  0.5159850000000  0.5842760000000  0.4680570000000 1.0
C      1  0.4747350000000  0.5576290000000  0.4837220000000 1.0
C      1  0.4745680000000  0.5215790000000  0.5444890000000 1.0
C      1  0.5235940000000  0.4017610000000  0.4969540000000 1.0
C      1  0.5304170000000  0.5974270000000  0.4918570000000 1.0
C      1  0.5120290000000  0.5133200000000  0.4682880000000 1.0
C      1  0.5196880000000  0.5352640000000  0.5825100000000 1.0
C      1  0.4598000000000  0.5467240000000  0.5789100000000 1.0
C      1  0.4137950000000  0.4950400000000  0.5545930000000 1.0
C      1  0.5577130000000  0.5856230000000  0.4908980000000 1.0
C      1  0.4888390000000  0.4262110000000  0.4323140000000 1.0
C      1  0.5612480000000  0.5068930000000  0.5037060000000 1.0
C      1  0.4194070000000  0.5118250000000  0.4308330000000 1.0
C      1  0.4716480000000  0.5813220000000  0.4394010000000 1.0
C      1  0.5062830000000  0.4875090000000  0.4785380000000 1.0
C      1  0.4625480000000  0.4370370000000  0.4351450000000 1.0
C      1  0.4863790000000  0.5654100000000  0.4200340000000 1.0
C      1  0.5473020000000  0.4839110000000  0.5040640000000 1.0
C      1  0.4694550000000  0.5864390000000  0.5133310000000 1.0
C      1  0.5253570000000  0.4209800000000  0.5717460000000 1.0
C      1  0.5539200000000  0.5597610000000  0.4419800000000 1.0
C      1  0.4797000000000  0.4267010000000  0.5686060000000 1.0
C      1  0.5248470000000  0.4933580000000  0.4118680000000 1.0
C      1  0.5037050000000  0.4690190000000  0.5505490000000 1.0
C      1  0.4250540000000  0.5714200000000  0.4922430000000 1.0
C      1  0.5541120000000  0.4458570000000  0.4289400000000 1.0
C      1  0.6019040000000  0.5289160000000  0.4837460000000 1.0
C      1  0.5319580000000  0.5561100000000  0.5134180000000 1.0
C      1  0.6178290000000  0.5034810000000  0.4862390000000 1.0
END
