TITL C-884132-5695-343 3.68683924807182 125000 -17150.8410339022 0 0 116 (C1) n - 1
REM
REM in /home/nfs/bkarasulu/CARBON/AIRSS/Generating-Clusters/ReaxFF-fromJPCA2015/Units_Real/with-SteepDescent/Only-C1/SD-CG/Try1-3A/FIRE-CG
REM
REM
REM
REM
REM
REM ./C.cell (11c1c37f851c82e70ff6c80c92926a4b)
REM
REM compiler GCC version 9.2.1 20190827 (Red Hat 9.2.1-1)
REM options -cpp -mtune=generic -march=x86-64 -g -O0 -fpre-include=/usr/include/finclude/math-vector-fortran.h
REM seed 1641125945 1400640314 -1914666762 -1984756716 688703076 1824813568 2093387902 -1426453140 -304060844 -158563017 -301395585 -1904347943 -1705502386 -704050110 -1072120554 1006036059 101022088 -1031481579 61819961 277334266 229173706 -99318202 517059406 -1897022319 -755798737 805868638 -761763050 2054584419 -294666766 793726305 1423062336 -861920357 -1926744763
REM
CELL 1.54180   50.00000   50.00000   50.00000   90.00000   90.00000   90.00000
LATT -1
SFAC C  
C      1  0.4866570000000  0.4355880000000  0.4403480000000 1.0
C      1  0.5866950000000  0.4456470000000  0.5078550000000 1.0
C      1  0.4366910000000  0.5671630000000  0.5238320000000 1.0
C      1  0.4794860000000  0.5810690000000  0.4634690000000 1.0
C      1  0.5382550000000  0.5030800000000  0.5071590000000 1.0
C      1  0.4814320000000  0.4822300000000  0.5524890000000 1.0
C      1  0.4316540000000  0.4936220000000  0.5751760000000 1.0
C      1  0.5427850000000  0.4745570000000  0.5665470000000 1.0
C      1  0.4302720000000  0.5480150000000  0.4585580000000 1.0
C      1  0.5210690000000  0.4149540000000  0.5485330000000 1.0
C      1  0.5683740000000  0.4357070000000  0.4717680000000 1.0
C      1  0.5361090000000  0.5097270000000  0.4512270000000 1.0
C      1  0.5680940000000  0.5682320000000  0.5056960000000 1.0
C      1  0.5481800000000  0.4795610000000  0.4295050000000 1.0
C      1  0.4487890000000  0.4928790000000  0.5300480000000 1.0
C      1  0.4400760000000  0.5376300000000  0.4329710000000 1.0
C      1  0.5311000000000  0.5256950000000  0.5615740000000 1.0
C      1  0.4504780000000  0.5085740000000  0.4262440000000 1.0
C      1  0.5255420000000  0.4116260000000  0.5188230000000 1.0
C      1  0.4695120000000  0.4625460000000  0.5712260000000 1.0
C      1  0.5426110000000  0.5325740000000  0.5116670000000 1.0
C      1  0.4819460000000  0.4725240000000  0.4916030000000 1.0
C      1  0.5420190000000  0.4752880000000  0.5065200000000 1.0
C      1  0.5896930000000  0.5264060000000  0.5277950000000 1.0
C      1  0.5459890000000  0.5248970000000  0.4280160000000 1.0
C      1  0.4790540000000  0.5081180000000  0.4089520000000 1.0
C      1  0.5819940000000  0.4585470000000  0.5339190000000 1.0
C      1  0.4256430000000  0.4696340000000  0.5622710000000 1.0
C      1  0.5337400000000  0.4286600000000  0.4500740000000 1.0
C      1  0.5009030000000  0.4757200000000  0.5326010000000 1.0
C      1  0.5499780000000  0.5029280000000  0.5614120000000 1.0
C      1  0.4156180000000  0.5460950000000  0.5200790000000 1.0
C      1  0.4947030000000  0.4480660000000  0.5733190000000 1.0
C      1  0.4845430000000  0.4782280000000  0.4364350000000 1.0
C      1  0.5064110000000  0.5681330000000  0.5772470000000 1.0
C      1  0.5607410000000  0.4529750000000  0.5547810000000 1.0
C      1  0.5424170000000  0.4351620000000  0.5105800000000 1.0
C      1  0.4666540000000  0.5181880000000  0.5291260000000 1.0
C      1  0.4331860000000  0.4284570000000  0.5287580000000 1.0
C      1  0.5424140000000  0.5564880000000  0.4925700000000 1.0
C      1  0.4150250000000  0.5008300000000  0.4546810000000 1.0
C      1  0.4156190000000  0.5263110000000  0.4706600000000 1.0
C      1  0.4780900000000  0.5028520000000  0.5917090000000 1.0
C      1  0.5327480000000  0.5727220000000  0.5429610000000 1.0
C      1  0.4694610000000  0.5044670000000  0.4494440000000 1.0
C      1  0.4892030000000  0.5005660000000  0.4919870000000 1.0
C      1  0.4820550000000  0.4323240000000  0.5264240000000 1.0
C      1  0.5665300000000  0.4274730000000  0.4994310000000 1.0
C      1  0.5046920000000  0.4193450000000  0.4520820000000 1.0
C      1  0.5375820000000  0.4538870000000  0.4357070000000 1.0
C      1  0.4805790000000  0.5294600000000  0.5801290000000 1.0
C      1  0.4549620000000  0.4696650000000  0.4882300000000 1.0
C      1  0.4604020000000  0.5367350000000  0.5576690000000 1.0
C      1  0.5729100000000  0.4947590000000  0.4483190000000 1.0
C      1  0.4130630000000  0.4479200000000  0.5298420000000 1.0
C      1  0.5892620000000  0.4549780000000  0.4798100000000 1.0
C      1  0.4995060000000  0.5716210000000  0.4436640000000 1.0
C      1  0.5264630000000  0.4534550000000  0.4969590000000 1.0
C      1  0.5270900000000  0.5677790000000  0.4478290000000 1.0
C      1  0.4994900000000  0.5280920000000  0.4117470000000 1.0
C      1  0.5854870000000  0.5440380000000  0.5047680000000 1.0
C      1  0.5906540000000  0.5287370000000  0.4799520000000 1.0
C      1  0.5051600000000  0.5830750000000  0.5517400000000 1.0
C      1  0.4996080000000  0.4927610000000  0.5747070000000 1.0
C      1  0.4572330000000  0.4249520000000  0.5128030000000 1.0
C      1  0.4204060000000  0.5226910000000  0.5006170000000 1.0
C      1  0.4131020000000  0.4679950000000  0.5093560000000 1.0
C      1  0.5919740000000  0.4852290000000  0.5374180000000 1.0
C      1  0.4334470000000  0.5232600000000  0.5643420000000 1.0
C      1  0.4283290000000  0.4616880000000  0.4845150000000 1.0
C      1  0.4528060000000  0.5685910000000  0.4745270000000 1.0
C      1  0.5271710000000  0.5199000000000  0.4078260000000 1.0
C      1  0.5004960000000  0.5389150000000  0.4395370000000 1.0
C      1  0.4936090000000  0.5908710000000  0.4873840000000 1.0
C      1  0.5751380000000  0.5076050000000  0.5469970000000 1.0
C      1  0.4773960000000  0.5322610000000  0.4503180000000 1.0
C      1  0.5146080000000  0.5195920000000  0.4641470000000 1.0
C      1  0.5088420000000  0.5378140000000  0.5779680000000 1.0
C      1  0.4791540000000  0.5819520000000  0.5369840000000 1.0
C      1  0.4635440000000  0.5531120000000  0.4366350000000 1.0
C      1  0.4283240000000  0.4427960000000  0.5543640000000 1.0
C      1  0.4970400000000  0.4551400000000  0.5118440000000 1.0
C      1  0.4978650000000  0.4857170000000  0.4118020000000 1.0
C      1  0.5354550000000  0.5420860000000  0.5378590000000 1.0
C      1  0.4224190000000  0.4943090000000  0.5161320000000 1.0
C      1  0.4202940000000  0.5338450000000  0.5438840000000 1.0
C      1  0.4578240000000  0.5639080000000  0.5439950000000 1.0
C      1  0.4679870000000  0.4542930000000  0.4307880000000 1.0
C      1  0.5043300000000  0.4056660000000  0.4992390000000 1.0
C      1  0.4676430000000  0.5475440000000  0.4904630000000 1.0
C      1  0.5414620000000  0.4332230000000  0.5529520000000 1.0
C      1  0.4932460000000  0.5138250000000  0.5171350000000 1.0
C      1  0.4528960000000  0.5236210000000  0.4984610000000 1.0
C      1  0.4387210000000  0.4385980000000  0.4667790000000 1.0
C      1  0.4657490000000  0.5069480000000  0.4780360000000 1.0
C      1  0.4940260000000  0.4271760000000  0.5526320000000 1.0
C      1  0.5891050000000  0.4826320000000  0.4693540000000 1.0
C      1  0.5423060000000  0.4496760000000  0.4652260000000 1.0
C      1  0.5604360000000  0.5448660000000  0.4409990000000 1.0
C      1  0.4934630000000  0.5513050000000  0.4965400000000 1.0
C      1  0.6043110000000  0.5033950000000  0.5169270000000 1.0
C      1  0.4479240000000  0.5823040000000  0.5010890000000 1.0
C      1  0.5161710000000  0.4687520000000  0.5771480000000 1.0
C      1  0.4591970000000  0.4238870000000  0.4829840000000 1.0
C      1  0.5769010000000  0.5233330000000  0.4539590000000 1.0
C      1  0.4562270000000  0.4830870000000  0.5880200000000 1.0
C      1  0.5128980000000  0.5688250000000  0.4960660000000 1.0
C      1  0.4328130000000  0.4855180000000  0.4375660000000 1.0
C      1  0.5489150000000  0.5622770000000  0.4613690000000 1.0
C      1  0.6008470000000  0.5030230000000  0.4875740000000 1.0
C      1  0.5534760000000  0.5797670000000  0.5267950000000 1.0
C      1  0.5160770000000  0.4993950000000  0.5273490000000 1.0
C      1  0.4413970000000  0.4570750000000  0.4436840000000 1.0
C      1  0.4866780000000  0.4131330000000  0.4769120000000 1.0
C      1  0.4734490000000  0.5922760000000  0.5096310000000 1.0
C      1  0.5277230000000  0.4913070000000  0.4118480000000 1.0
END
