TITL C-884128-4793-66 2.70228557289037 125000 -1560.81603086097 0 0 12 (C1) n - 1
REM
REM in /home/nfs/bkarasulu/CARBON/AIRSS/Generating-Clusters/ReaxFF-fromJPCA2015/Units_Real/with-SteepDescent/Only-C1/SD-CG/Try1-3A/FIRE-CG
REM
REM
REM
REM
REM
REM ./C.cell (11c1c37f851c82e70ff6c80c92926a4b)
REM
REM compiler GCC version 9.2.1 20190827 (Red Hat 9.2.1-1)
REM options -cpp -mtune=generic -march=x86-64 -g -O0 -fpre-include=/usr/include/finclude/math-vector-fortran.h
REM seed 93527065 908709393 1264553000 -884973630 -112702211 450649134 1458635995 -1670612145 1503847309 610223906 -155242529 1577377182 -987797863 547523181 -1344558031 2012759100 -1610654578 2104312411 -1066933422 938430801 -2038774590 -904624443 1067317223 -135829227 391423104 -1653090341 -480319427 635432766 1408239814 1205489546 -757286196 -1768879011 679577259
REM
CELL 1.54180   50.00000   50.00000   50.00000   90.00000   90.00000   90.00000
LATT -1
SFAC C  
C      1  0.5317530000000  0.4633300000000  0.5035370000000 1.0
C      1  0.5145670000000  0.4884970000000  0.5147350000000 1.0
C      1  0.5069230000000  0.5063590000000  0.4944290000000 1.0
C      1  0.5450560000000  0.5081820000000  0.4558530000000 1.0
C      1  0.5211090000000  0.5010970000000  0.4663200000000 1.0
C      1  0.5337010000000  0.4773110000000  0.4789080000000 1.0
C      1  0.5023590000000  0.4928560000000  0.5416240000000 1.0
C      1  0.4424380000000  0.4853240000000  0.4885630000000 1.0
C      1  0.4803620000000  0.5189670000000  0.4985850000000 1.0
C      1  0.4858290000000  0.5182610000000  0.5411970000000 1.0
C      1  0.4602230000000  0.5011030000000  0.4932630000000 1.0
C      1  0.4756800000000  0.5387110000000  0.5229860000000 1.0
END
