TITL C-884138-6203-297 0.941672073306606 125000 -2707.10579019474 0 0 20 (C1) n - 1
REM
REM in /home/nfs/bkarasulu/CARBON/AIRSS/Generating-Clusters/ReaxFF-fromJPCA2015/Units_Real/with-SteepDescent/Only-C1/SD-CG/Try1-3A/FIRE-CG
REM
REM
REM
REM
REM
REM ./C.cell (11c1c37f851c82e70ff6c80c92926a4b)
REM
REM compiler GCC version 9.2.1 20190827 (Red Hat 9.2.1-1)
REM options -cpp -mtune=generic -march=x86-64 -g -O0 -fpre-include=/usr/include/finclude/math-vector-fortran.h
REM seed -1201969553 -1613030247 -1072508440 -340573059 -1687340072 2022660466 1697110367 -660194966 -171483679 -1425843844 -1696219102 410591991 559432216 -175926636 -1507858322 -1096546198 -1166546247 501203544 -403547998 1753661587 -560937115 1966999382 -248705394 1699028165 2134355814 37313405 1643826681 1116353367 -1608054185 1678995661 -2115631901 1756500378 -1561494555
REM
CELL 1.54180   50.00000   50.00000   50.00000   90.00000   90.00000   90.00000
LATT -1
SFAC C  
C      1  0.4746870000000  0.4878890000000  0.5341720000000 1.0
C      1  0.5029600000000  0.4848750000000  0.4574760000000 1.0
C      1  0.5217800000000  0.5061950000000  0.4724940000000 1.0
C      1  0.5484610000000  0.4703990000000  0.4974150000000 1.0
C      1  0.5155220000000  0.4536040000000  0.5300180000000 1.0
C      1  0.4840170000000  0.5459820000000  0.4801130000000 1.0
C      1  0.5231800000000  0.5015070000000  0.5243530000000 1.0
C      1  0.5101100000000  0.5319820000000  0.4710120000000 1.0
C      1  0.4621560000000  0.4920480000000  0.4847630000000 1.0
C      1  0.4741230000000  0.5672860000000  0.4683530000000 1.0
C      1  0.5195170000000  0.5302840000000  0.5381970000000 1.0
C      1  0.4731250000000  0.5338280000000  0.5079110000000 1.0
C      1  0.5401330000000  0.4466970000000  0.5137690000000 1.0
C      1  0.5211630000000  0.4762770000000  0.4430460000000 1.0
C      1  0.5350600000000  0.4967980000000  0.4982160000000 1.0
C      1  0.4941170000000  0.5330740000000  0.5255910000000 1.0
C      1  0.5054270000000  0.4808960000000  0.5335200000000 1.0
C      1  0.4716470000000  0.4792500000000  0.4608890000000 1.0
C      1  0.4645860000000  0.5069440000000  0.5104490000000 1.0
C      1  0.4582280000000  0.4741840000000  0.5482450000000 1.0
END
