TITL C-884131-4643-270 1.70616347600178 125000 -15121.8456961107 0 0 102 (C1) n - 1
REM
REM in /home/nfs/bkarasulu/CARBON/AIRSS/Generating-Clusters/ReaxFF-fromJPCA2015/Units_Real/with-SteepDescent/Only-C1/SD-CG/Try1-3A/FIRE-CG
REM
REM
REM
REM
REM
REM ./C.cell (11c1c37f851c82e70ff6c80c92926a4b)
REM
REM compiler GCC version 9.2.1 20190827 (Red Hat 9.2.1-1)
REM options -cpp -mtune=generic -march=x86-64 -g -O0 -fpre-include=/usr/include/finclude/math-vector-fortran.h
REM seed 1949269484 318169700 -34967962 -2036743779 -955298842 1235961293 1569501167 871672219 256204765 105571511 -1635129734 -40910957 -1450625067 92832572 -15771703 976692518 713653813 1491253069 -1582469646 -1071796996 -642919887 -1131773006 -1888347099 1592926416 2075267738 1270299191 -1574811466 1079514619 -1478450666 342077489 1826499526 -746044734 962757356
REM
CELL 1.54180   50.00000   50.00000   50.00000   90.00000   90.00000   90.00000
LATT -1
SFAC C  
C      1  0.5431900000000  0.5545380000000  0.5391210000000 1.0
C      1  0.4442290000000  0.4844060000000  0.5067010000000 1.0
C      1  0.5724090000000  0.5543040000000  0.5060950000000 1.0
C      1  0.4478210000000  0.5763140000000  0.4824510000000 1.0
C      1  0.4500310000000  0.5177120000000  0.4456490000000 1.0
C      1  0.4958960000000  0.4829450000000  0.4472200000000 1.0
C      1  0.4315100000000  0.4534310000000  0.4705390000000 1.0
C      1  0.4353640000000  0.4414710000000  0.4977400000000 1.0
C      1  0.5626890000000  0.5052470000000  0.4183100000000 1.0
C      1  0.5328990000000  0.4192100000000  0.5404780000000 1.0
C      1  0.4191020000000  0.4805280000000  0.4687880000000 1.0
C      1  0.4463710000000  0.4579010000000  0.5174400000000 1.0
C      1  0.4162500000000  0.4814740000000  0.4976790000000 1.0
C      1  0.4219680000000  0.5293960000000  0.4809260000000 1.0
C      1  0.5350010000000  0.5451580000000  0.4424460000000 1.0
C      1  0.5867250000000  0.5344470000000  0.4886620000000 1.0
C      1  0.5867980000000  0.5051880000000  0.4881730000000 1.0
C      1  0.4080720000000  0.5006110000000  0.5195580000000 1.0
C      1  0.4820690000000  0.4660550000000  0.5695620000000 1.0
C      1  0.4483670000000  0.4570940000000  0.5464290000000 1.0
C      1  0.4983190000000  0.5988880000000  0.4874220000000 1.0
C      1  0.4937080000000  0.5208960000000  0.5151200000000 1.0
C      1  0.4909570000000  0.4963970000000  0.4999190000000 1.0
C      1  0.5442850000000  0.5235280000000  0.5529910000000 1.0
C      1  0.5716560000000  0.5460480000000  0.5339930000000 1.0
C      1  0.5481060000000  0.5262860000000  0.4603660000000 1.0
C      1  0.5063530000000  0.5238080000000  0.5385730000000 1.0
C      1  0.5522400000000  0.4966280000000  0.5825420000000 1.0
C      1  0.5308820000000  0.5123490000000  0.4802980000000 1.0
C      1  0.4718310000000  0.5915280000000  0.4791620000000 1.0
C      1  0.5392510000000  0.4665780000000  0.4401960000000 1.0
C      1  0.4222560000000  0.5439120000000  0.5324220000000 1.0
C      1  0.5158540000000  0.4602640000000  0.5700750000000 1.0
C      1  0.5656580000000  0.4443420000000  0.5075790000000 1.0
C      1  0.5437270000000  0.5622230000000  0.5082890000000 1.0
C      1  0.5758600000000  0.4669590000000  0.5230900000000 1.0
C      1  0.5391080000000  0.4396380000000  0.5195800000000 1.0
C      1  0.5054180000000  0.5052000000000  0.4720910000000 1.0
C      1  0.4484040000000  0.4510330000000  0.4322720000000 1.0
C      1  0.5338240000000  0.5873040000000  0.5035100000000 1.0
C      1  0.5736540000000  0.4677590000000  0.5520710000000 1.0
C      1  0.4794370000000  0.4225110000000  0.4584530000000 1.0
C      1  0.5686960000000  0.4939520000000  0.5114070000000 1.0
C      1  0.5403630000000  0.4701710000000  0.5865760000000 1.0
C      1  0.4783130000000  0.4695450000000  0.4702640000000 1.0
C      1  0.5565980000000  0.4518010000000  0.5712930000000 1.0
C      1  0.5207110000000  0.5315450000000  0.4198740000000 1.0
C      1  0.5333700000000  0.5184320000000  0.5787020000000 1.0
C      1  0.5044580000000  0.5104740000000  0.5811800000000 1.0
C      1  0.4533420000000  0.4205020000000  0.5031840000000 1.0
C      1  0.4914140000000  0.5436740000000  0.4988650000000 1.0
C      1  0.4404280000000  0.4816640000000  0.5607200000000 1.0
C      1  0.4155050000000  0.5272610000000  0.5096560000000 1.0
C      1  0.5688160000000  0.5149370000000  0.5397180000000 1.0
C      1  0.4771180000000  0.5194660000000  0.5763420000000 1.0
C      1  0.5331750000000  0.4344410000000  0.5664780000000 1.0
C      1  0.4644100000000  0.4929720000000  0.4867130000000 1.0
C      1  0.4719130000000  0.4406550000000  0.4180990000000 1.0
C      1  0.5696790000000  0.5123280000000  0.4462850000000 1.0
C      1  0.5093680000000  0.5972120000000  0.5153050000000 1.0
C      1  0.4943140000000  0.4336180000000  0.4361170000000 1.0
C      1  0.4187950000000  0.4953940000000  0.5472120000000 1.0
C      1  0.4907900000000  0.5645150000000  0.5561910000000 1.0
C      1  0.4914310000000  0.5374690000000  0.4206300000000 1.0
C      1  0.4677750000000  0.4907500000000  0.5722670000000 1.0
C      1  0.4346110000000  0.5684630000000  0.5328230000000 1.0
C      1  0.4441460000000  0.5471580000000  0.4754380000000 1.0
C      1  0.4693570000000  0.5445040000000  0.5628710000000 1.0
C      1  0.4792330000000  0.4900280000000  0.4228200000000 1.0
C      1  0.5072550000000  0.5002970000000  0.5533940000000 1.0
C      1  0.5276020000000  0.4700360000000  0.5185850000000 1.0
C      1  0.5548600000000  0.4723180000000  0.4674100000000 1.0
C      1  0.4426930000000  0.5497680000000  0.5528690000000 1.0
C      1  0.4691260000000  0.5171200000000  0.4233020000000 1.0
C      1  0.5719450000000  0.4948990000000  0.5615820000000 1.0
C      1  0.5196290000000  0.5678770000000  0.4521440000000 1.0
C      1  0.5447790000000  0.4823370000000  0.4165290000000 1.0
C      1  0.4878000000000  0.4082310000000  0.4824660000000 1.0
C      1  0.4649570000000  0.5251320000000  0.4710570000000 1.0
C      1  0.4790920000000  0.4260630000000  0.5340260000000 1.0
C      1  0.5020460000000  0.4705230000000  0.5084690000000 1.0
C      1  0.4785130000000  0.5668560000000  0.5115890000000 1.0
C      1  0.4913970000000  0.5824670000000  0.5329010000000 1.0
C      1  0.4580400000000  0.4474630000000  0.4594240000000 1.0
C      1  0.5537310000000  0.4458790000000  0.4808820000000 1.0
C      1  0.5143160000000  0.5501160000000  0.5491710000000 1.0
C      1  0.5785790000000  0.4912350000000  0.4640750000000 1.0
C      1  0.4743640000000  0.4137800000000  0.5111290000000 1.0
C      1  0.5155100000000  0.4126450000000  0.4787100000000 1.0
C      1  0.5359650000000  0.5099290000000  0.4078350000000 1.0
C      1  0.5432800000000  0.4897700000000  0.4956710000000 1.0
C      1  0.5006850000000  0.4559920000000  0.4847420000000 1.0
C      1  0.5244530000000  0.4380510000000  0.4779470000000 1.0
C      1  0.5116380000000  0.4582340000000  0.4400500000000 1.0
C      1  0.4948560000000  0.5315610000000  0.4724970000000 1.0
C      1  0.5183970000000  0.4765450000000  0.5451170000000 1.0
C      1  0.4261880000000  0.5078210000000  0.4603590000000 1.0
C      1  0.4508660000000  0.5773000000000  0.5118440000000 1.0
C      1  0.4948520000000  0.5631170000000  0.4354870000000 1.0
C      1  0.5220050000000  0.5819230000000  0.4786000000000 1.0
C      1  0.4631620000000  0.4680050000000  0.4129920000000 1.0
C      1  0.4717430000000  0.4422690000000  0.5561320000000 1.0
END
