TITL C-883739-1268-6 -983564.736477063 125000 -10449.2340430832 0 0 71 (C1) n - 1
REM
REM in /home/nfs/bkarasulu/CARBON/AIRSS/Generating-Clusters/ReaxFF-fromJPCA2015/Units_Real/with-SteepDescent/Only-C1/SD-CG/Try1-3A/FIRE-CG
REM
REM
REM
REM
REM
REM ./C.cell (11c1c37f851c82e70ff6c80c92926a4b)
REM
REM compiler GCC version 9.2.1 20190827 (Red Hat 9.2.1-1)
REM options -cpp -mtune=generic -march=x86-64 -g -O0 -fpre-include=/usr/include/finclude/math-vector-fortran.h
REM seed 1250778324 -593223486 431035406 75277922 -236863924 1227823058 851090010 -461089050 918233222 -1074151197 -2023363212 -1523921727 1347282102 749652938 -1023821291 -234926665 91672334 -511009319 1235690197 -500697090 -1427252214 1622402705 -1774408328 -2111184558 796871725 -1048885373 -153589529 -155685269 1204465971 -875328285 -542568761 -162398889 -1481987975
REM
CELL 1.54180   50.00000   50.00000   50.00000   90.00000   90.00000   90.00000
LATT -1
SFAC C  
C      1  0.5394450000000  0.4698460000000  0.5674990000000 1.0
C      1  0.4291130000000  0.5271330000000  0.5063740000000 1.0
C      1  0.5349650000000  0.5657750000000  0.4998470000000 1.0
C      1  0.5153540000000  0.5102620000000  0.5764920000000 1.0
C      1  0.4434850000000  0.4380540000000  0.4885200000000 1.0
C      1  0.4638840000000  0.5763750000000  0.5151850000000 1.0
C      1  0.5569560000000  0.5460290000000  0.5053020000000 1.0
C      1  0.4662160000000  0.5150560000000  0.4316780000000 1.0
C      1  0.4564300000000  0.4717420000000  0.5429490000000 1.0
C      1  0.5231100000000  0.4340940000000  0.5386380000000 1.0
C      1  0.4588970000000  0.5858730000000  0.4896950000000 1.0
C      1  0.4556950000000  0.5467030000000  0.5103470000000 1.0
C      1  0.4953640000000  0.5086510000000  0.4237160000000 1.0
C      1  0.5699310000000  0.4613370000000  0.5402550000000 1.0
C      1  0.4638700000000  0.5622840000000  0.4473500000000 1.0
C      1  0.5695370000000  0.4880390000000  0.5318470000000 1.0
C      1  0.4282880000000  0.5233030000000  0.4804510000000 1.0
C      1  0.5054140000000  0.5310140000000  0.5548110000000 1.0
C      1  0.5553240000000  0.4946260000000  0.4455080000000 1.0
C      1  0.4777050000000  0.5383190000000  0.4901960000000 1.0
C      1  0.4577470000000  0.5428650000000  0.5410850000000 1.0
C      1  0.4712930000000  0.4872550000000  0.4919520000000 1.0
C      1  0.5144480000000  0.4295870000000  0.4877890000000 1.0
C      1  0.4470810000000  0.5163060000000  0.5471430000000 1.0
C      1  0.4694580000000  0.4967810000000  0.5494710000000 1.0
C      1  0.4908340000000  0.4466050000000  0.4850880000000 1.0
C      1  0.4878430000000  0.5113320000000  0.4888660000000 1.0
C      1  0.4733790000000  0.4497920000000  0.5310220000000 1.0
C      1  0.4973240000000  0.4412320000000  0.5497460000000 1.0
C      1  0.5104800000000  0.4887710000000  0.5194740000000 1.0
C      1  0.4624960000000  0.4485780000000  0.4688800000000 1.0
C      1  0.5423370000000  0.4376730000000  0.4878260000000 1.0
C      1  0.4915980000000  0.4805480000000  0.4277590000000 1.0
C      1  0.5737460000000  0.5028590000000  0.4729610000000 1.0
C      1  0.5261930000000  0.5459450000000  0.5397910000000 1.0
C      1  0.4287880000000  0.4525960000000  0.5107010000000 1.0
C      1  0.5615240000000  0.4575220000000  0.4795200000000 1.0
C      1  0.5172350000000  0.5679060000000  0.5243060000000 1.0
C      1  0.5475220000000  0.5318030000000  0.5289250000000 1.0
C      1  0.5149600000000  0.4994910000000  0.4924020000000 1.0
C      1  0.5446240000000  0.4688490000000  0.4601810000000 1.0
C      1  0.5165670000000  0.5225890000000  0.4358140000000 1.0
C      1  0.4282580000000  0.5061900000000  0.5272950000000 1.0
C      1  0.4997150000000  0.4607310000000  0.5697350000000 1.0
C      1  0.5005160000000  0.4601880000000  0.4619440000000 1.0
C      1  0.5355110000000  0.5069990000000  0.4339260000000 1.0
C      1  0.4571310000000  0.5828290000000  0.4650560000000 1.0
C      1  0.4305330000000  0.5203000000000  0.4532770000000 1.0
C      1  0.4573630000000  0.4778510000000  0.4680400000000 1.0
C      1  0.5460750000000  0.5034920000000  0.5346670000000 1.0
C      1  0.5129560000000  0.5455830000000  0.4545800000000 1.0
C      1  0.4490020000000  0.4971250000000  0.4467020000000 1.0
C      1  0.4881460000000  0.4690440000000  0.5082520000000 1.0
C      1  0.5795920000000  0.4698900000000  0.5135690000000 1.0
C      1  0.5204950000000  0.4806570000000  0.4706400000000 1.0
C      1  0.5292080000000  0.4249930000000  0.5116790000000 1.0
C      1  0.5709510000000  0.5285320000000  0.4850550000000 1.0
C      1  0.4857320000000  0.5538690000000  0.4666800000000 1.0
C      1  0.5043890000000  0.4844580000000  0.5818080000000 1.0
C      1  0.4505220000000  0.4347730000000  0.5164410000000 1.0
C      1  0.5394950000000  0.4983310000000  0.5639650000000 1.0
C      1  0.4863600000000  0.4580330000000  0.4379250000000 1.0
C      1  0.5274420000000  0.5540560000000  0.4759840000000 1.0
C      1  0.4831010000000  0.5524330000000  0.5505800000000 1.0
C      1  0.4326330000000  0.4768820000000  0.5272880000000 1.0
C      1  0.5776710000000  0.4782600000000  0.4875110000000 1.0
C      1  0.4960620000000  0.5043280000000  0.5393320000000 1.0
C      1  0.5464310000000  0.4473250000000  0.5523110000000 1.0
C      1  0.4501920000000  0.5380180000000  0.4374880000000 1.0
C      1  0.4893600000000  0.5728050000000  0.5312280000000 1.0
C      1  0.5686980000000  0.4906300000000  0.4196790000000 1.0
END
