TITL C-884133-6611-455 102.036231893942 125000 -23787.171446568 0 0 162 (C1) n - 1
REM
REM in /home/nfs/bkarasulu/CARBON/AIRSS/Generating-Clusters/ReaxFF-fromJPCA2015/Units_Real/with-SteepDescent/Only-C1/SD-CG/Try1-3A/FIRE-CG
REM
REM
REM
REM
REM
REM ./C.cell (11c1c37f851c82e70ff6c80c92926a4b)
REM
REM compiler GCC version 9.2.1 20190827 (Red Hat 9.2.1-1)
REM options -cpp -mtune=generic -march=x86-64 -g -O0 -fpre-include=/usr/include/finclude/math-vector-fortran.h
REM seed 789561629 -905533239 1980904593 -1571935474 -1252560623 -525902320 1927153538 1971502197 -736968641 -1708134903 -1834429818 -842469275 1124274149 -318733670 1005847802 -1432245584 1321353773 188666346 1775189839 -707640330 -1556545879 -1651093658 2050010710 -1866575153 -1464350565 284734738 -1591332939 16788286 611018250 1814257777 398093845 -1870571060 -632900459
REM
CELL 1.54180   50.00000   50.00000   50.00000   90.00000   90.00000   90.00000
LATT -1
SFAC C  
C      1  0.5189410000000  0.4203520000000  0.4401420000000 1.0
C      1  0.5126220000000  0.4700810000000  0.4023620000000 1.0
C      1  0.4829810000000  0.5513690000000  0.5277740000000 1.0
C      1  0.4855640000000  0.5301480000000  0.4029490000000 1.0
C      1  0.5826360000000  0.5510160000000  0.4679300000000 1.0
C      1  0.4727900000000  0.4402830000000  0.5807900000000 1.0
C      1  0.4493670000000  0.5814510000000  0.4471330000000 1.0
C      1  0.4934230000000  0.4080280000000  0.5484680000000 1.0
C      1  0.5246060000000  0.4548740000000  0.4822350000000 1.0
C      1  0.5497180000000  0.5581720000000  0.5681340000000 1.0
C      1  0.4229280000000  0.4348660000000  0.5554940000000 1.0
C      1  0.4714580000000  0.4763800000000  0.4089870000000 1.0
C      1  0.4487920000000  0.5122960000000  0.5868420000000 1.0
C      1  0.5487470000000  0.5867930000000  0.4879450000000 1.0
C      1  0.4596370000000  0.5433540000000  0.4119400000000 1.0
C      1  0.4814600000000  0.4056870000000  0.4737870000000 1.0
C      1  0.5675680000000  0.5125020000000  0.5665840000000 1.0
C      1  0.5227610000000  0.4560460000000  0.5802530000000 1.0
C      1  0.5460170000000  0.4741880000000  0.5830030000000 1.0
C      1  0.4632780000000  0.5515680000000  0.4743280000000 1.0
C      1  0.4502210000000  0.4999590000000  0.5404270000000 1.0
C      1  0.5140200000000  0.4912260000000  0.5179510000000 1.0
C      1  0.4431810000000  0.4119910000000  0.5576660000000 1.0
C      1  0.5143900000000  0.5413240000000  0.4038140000000 1.0
C      1  0.5460940000000  0.4963090000000  0.4600650000000 1.0
C      1  0.4975380000000  0.4907150000000  0.4954460000000 1.0
C      1  0.5060870000000  0.4098350000000  0.5106120000000 1.0
C      1  0.4723070000000  0.5379890000000  0.5010040000000 1.0
C      1  0.4822510000000  0.4530210000000  0.5581010000000 1.0
C      1  0.4221670000000  0.4956340000000  0.4523620000000 1.0
C      1  0.4744270000000  0.5135300000000  0.4450400000000 1.0
C      1  0.4699860000000  0.4685340000000  0.5158330000000 1.0
C      1  0.5614950000000  0.4934300000000  0.4320990000000 1.0
C      1  0.6109160000000  0.4882330000000  0.5020490000000 1.0
C      1  0.5003100000000  0.5101460000000  0.4549770000000 1.0
C      1  0.5517850000000  0.5200090000000  0.4788310000000 1.0
C      1  0.4648950000000  0.5858520000000  0.5635890000000 1.0
C      1  0.4497090000000  0.4987150000000  0.4906460000000 1.0
C      1  0.5475840000000  0.4022500000000  0.4777260000000 1.0
C      1  0.4957240000000  0.5670810000000  0.5826910000000 1.0
C      1  0.5222270000000  0.4812400000000  0.4220830000000 1.0
C      1  0.5813180000000  0.5306550000000  0.4903740000000 1.0
C      1  0.4059240000000  0.5586190000000  0.5171060000000 1.0
C      1  0.4514100000000  0.4115080000000  0.4493880000000 1.0
C      1  0.5879230000000  0.4438630000000  0.5261710000000 1.0
C      1  0.5167740000000  0.4273980000000  0.4884400000000 1.0
C      1  0.5830730000000  0.4295170000000  0.4810660000000 1.0
C      1  0.5821380000000  0.5333600000000  0.4440010000000 1.0
C      1  0.4907100000000  0.4532080000000  0.4056020000000 1.0
C      1  0.4355930000000  0.5290350000000  0.4235290000000 1.0
C      1  0.5425960000000  0.5023550000000  0.5853930000000 1.0
C      1  0.4221500000000  0.4450110000000  0.4615960000000 1.0
C      1  0.5200370000000  0.5699220000000  0.4081630000000 1.0
C      1  0.4891870000000  0.5952940000000  0.4466360000000 1.0
C      1  0.5948860000000  0.5024340000000  0.4801370000000 1.0
C      1  0.5882460000000  0.4828890000000  0.4366100000000 1.0
C      1  0.5436590000000  0.4966150000000  0.4089930000000 1.0
C      1  0.4640020000000  0.5692700000000  0.4245530000000 1.0
C      1  0.5651520000000  0.4857440000000  0.5192740000000 1.0
C      1  0.4457140000000  0.4576330000000  0.4475490000000 1.0
C      1  0.5288150000000  0.5315760000000  0.4905740000000 1.0
C      1  0.5000470000000  0.5964370000000  0.5034790000000 1.0
C      1  0.4843980000000  0.4458820000000  0.5118050000000 1.0
C      1  0.5627570000000  0.5716270000000  0.4680560000000 1.0
C      1  0.4666910000000  0.5974310000000  0.4646470000000 1.0
C      1  0.5713760000000  0.4345390000000  0.4545210000000 1.0
C      1  0.4217100000000  0.5409630000000  0.4460110000000 1.0
C      1  0.4652020000000  0.4910690000000  0.5991880000000 1.0
C      1  0.4105350000000  0.5596560000000  0.5462560000000 1.0
C      1  0.5716150000000  0.4445100000000  0.5498290000000 1.0
C      1  0.5332750000000  0.4281220000000  0.5800710000000 1.0
C      1  0.4716450000000  0.5947590000000  0.4942340000000 1.0
C      1  0.4363700000000  0.5604030000000  0.4648370000000 1.0
C      1  0.4728650000000  0.4191080000000  0.4356250000000 1.0
C      1  0.4035700000000  0.5370240000000  0.5623710000000 1.0
C      1  0.5197810000000  0.5186080000000  0.5146790000000 1.0
C      1  0.5955060000000  0.5330000000000  0.5171450000000 1.0
C      1  0.5739250000000  0.5421420000000  0.5659860000000 1.0
C      1  0.4669210000000  0.5355830000000  0.5844900000000 1.0
C      1  0.4907980000000  0.4807890000000  0.5878910000000 1.0
C      1  0.4816830000000  0.3954880000000  0.5005590000000 1.0
C      1  0.4590750000000  0.5695500000000  0.5365990000000 1.0
C      1  0.4287790000000  0.4998290000000  0.4241590000000 1.0
C      1  0.5419550000000  0.5291910000000  0.5297860000000 1.0
C      1  0.4410860000000  0.5260140000000  0.5326420000000 1.0
C      1  0.4951760000000  0.4364270000000  0.5384200000000 1.0
C      1  0.4931880000000  0.5876920000000  0.5612040000000 1.0
C      1  0.4911500000000  0.4798400000000  0.5585650000000 1.0
C      1  0.5597350000000  0.5084360000000  0.5373720000000 1.0
C      1  0.5179140000000  0.5535340000000  0.4479280000000 1.0
C      1  0.5167500000000  0.5995350000000  0.4534680000000 1.0
C      1  0.5758370000000  0.5706620000000  0.5276030000000 1.0
C      1  0.4920680000000  0.5640390000000  0.4376900000000 1.0
C      1  0.5483750000000  0.4070180000000  0.5070550000000 1.0
C      1  0.4177020000000  0.4594850000000  0.5407220000000 1.0
C      1  0.5288280000000  0.4693500000000  0.5293110000000 1.0
C      1  0.4231630000000  0.5026690000000  0.5725770000000 1.0
C      1  0.3918310000000  0.5348030000000  0.5091550000000 1.0
C      1  0.5399190000000  0.5265250000000  0.4107850000000 1.0
C      1  0.5156900000000  0.5312490000000  0.4649020000000 1.0
C      1  0.5221360000000  0.5222160000000  0.5922630000000 1.0
C      1  0.5895180000000  0.4889330000000  0.5689760000000 1.0
C      1  0.5088100000000  0.4113450000000  0.4656090000000 1.0
C      1  0.5890930000000  0.5504850000000  0.5403450000000 1.0
C      1  0.3986420000000  0.4909050000000  0.5035420000000 1.0
C      1  0.5142220000000  0.4878920000000  0.4523210000000 1.0
C      1  0.3999110000000  0.5103430000000  0.5549930000000 1.0
C      1  0.5961030000000  0.5077600000000  0.4498940000000 1.0
C      1  0.5074360000000  0.5949780000000  0.5327710000000 1.0
C      1  0.4767570000000  0.4899440000000  0.5353240000000 1.0
C      1  0.5715060000000  0.4833300000000  0.4907870000000 1.0
C      1  0.4712350000000  0.4620150000000  0.5999470000000 1.0
C      1  0.5592460000000  0.5400050000000  0.4271920000000 1.0
C      1  0.5432740000000  0.4272190000000  0.5511430000000 1.0
C      1  0.6029570000000  0.4501420000000  0.4780510000000 1.0
C      1  0.5457530000000  0.5641570000000  0.4423480000000 1.0
C      1  0.3871420000000  0.5276740000000  0.4819380000000 1.0
C      1  0.4757420000000  0.5086530000000  0.4993420000000 1.0
C      1  0.4052230000000  0.4642350000000  0.5111960000000 1.0
C      1  0.4525460000000  0.4691640000000  0.4928720000000 1.0
C      1  0.5335820000000  0.5937710000000  0.5283480000000 1.0
C      1  0.5518470000000  0.4609800000000  0.5180440000000 1.0
C      1  0.5468240000000  0.4171220000000  0.4514180000000 1.0
C      1  0.4510750000000  0.5831880000000  0.5101320000000 1.0
C      1  0.5407960000000  0.5429430000000  0.5902380000000 1.0
C      1  0.5028230000000  0.5430770000000  0.5462030000000 1.0
C      1  0.4325740000000  0.4814030000000  0.5545410000000 1.0
C      1  0.6116880000000  0.5088610000000  0.5237760000000 1.0
C      1  0.5290010000000  0.4067220000000  0.5290280000000 1.0
C      1  0.4726360000000  0.4123900000000  0.5674910000000 1.0
C      1  0.3952800000000  0.5098420000000  0.5239790000000 1.0
C      1  0.5308510000000  0.5878220000000  0.4292100000000 1.0
C      1  0.5210940000000  0.4503230000000  0.5490880000000 1.0
C      1  0.4457280000000  0.4745860000000  0.4236020000000 1.0
C      1  0.4334630000000  0.4182850000000  0.4708170000000 1.0
C      1  0.5214010000000  0.5961160000000  0.4824490000000 1.0
C      1  0.5491770000000  0.4709050000000  0.4768260000000 1.0
C      1  0.4384980000000  0.5506970000000  0.5473380000000 1.0
C      1  0.3982370000000  0.5294640000000  0.4579710000000 1.0
C      1  0.4784860000000  0.5047570000000  0.4142990000000 1.0
C      1  0.5670290000000  0.4326890000000  0.5076420000000 1.0
C      1  0.4960070000000  0.4285190000000  0.4232880000000 1.0
C      1  0.5906440000000  0.4567380000000  0.4506960000000 1.0
C      1  0.4456470000000  0.4289870000000  0.4955580000000 1.0
C      1  0.4731420000000  0.4350270000000  0.4867350000000 1.0
C      1  0.4114180000000  0.4555680000000  0.4856420000000 1.0
C      1  0.5597450000000  0.5908780000000  0.5167870000000 1.0
C      1  0.4664880000000  0.5655430000000  0.5854600000000 1.0
C      1  0.5312220000000  0.5506940000000  0.5457030000000 1.0
C      1  0.5714870000000  0.4652920000000  0.5694810000000 1.0
C      1  0.6045900000000  0.4602590000000  0.5060870000000 1.0
C      1  0.3964380000000  0.5027070000000  0.4715740000000 1.0
C      1  0.4308940000000  0.5632200000000  0.5010610000000 1.0
C      1  0.4770870000000  0.5422370000000  0.4519790000000 1.0
C      1  0.4424650000000  0.4076090000000  0.5304950000000 1.0
C      1  0.4517980000000  0.4009940000000  0.5046930000000 1.0
C      1  0.5010090000000  0.4709680000000  0.4729840000000 1.0
C      1  0.4474670000000  0.5033210000000  0.4618850000000 1.0
C      1  0.4439260000000  0.5357020000000  0.5063440000000 1.0
C      1  0.6042650000000  0.4970350000000  0.5481860000000 1.0
C      1  0.4674210000000  0.4595700000000  0.4680660000000 1.0
C      1  0.4966900000000  0.5364230000000  0.5771310000000 1.0
END
