TITL C-884131-4643-2 -66771.4775615322 125000 -9349.77531164995 0 0 64 (C1) n - 1
REM
REM in /home/nfs/bkarasulu/CARBON/AIRSS/Generating-Clusters/ReaxFF-fromJPCA2015/Units_Real/with-SteepDescent/Only-C1/SD-CG/Try1-3A/FIRE-CG
REM
REM
REM
REM
REM
REM ./C.cell (11c1c37f851c82e70ff6c80c92926a4b)
REM
REM compiler GCC version 9.2.1 20190827 (Red Hat 9.2.1-1)
REM options -cpp -mtune=generic -march=x86-64 -g -O0 -fpre-include=/usr/include/finclude/math-vector-fortran.h
REM seed -1612655982 2103814516 -420241257 -1490018997 -518609502 -368131120 1664466979 -924459771 -1953917905 -1636318075 245730543 -1481219534 1708114609 884792885 284565914 -1091545887 1390227265 -934066350 398655875 -1672051195 1966320993 1718839888 920260217 1926605337 -1473352841 -974111574 1084711496 -1753802824 70816632 120943542 1788954557 -1687275273 251767685
REM
CELL 1.54180   50.00000   50.00000   50.00000   90.00000   90.00000   90.00000
LATT -1
SFAC C  
C      1  0.4978630000000  0.4267860000000  0.4854260000000 1.0
C      1  0.5827530000000  0.5028700000000  0.5111460000000 1.0
C      1  0.4221630000000  0.5237490000000  0.5400070000000 1.0
C      1  0.5144050000000  0.5459970000000  0.5691610000000 1.0
C      1  0.4328530000000  0.5009940000000  0.5563800000000 1.0
C      1  0.5467330000000  0.4495100000000  0.4934690000000 1.0
C      1  0.4527720000000  0.5710440000000  0.5042120000000 1.0
C      1  0.4617110000000  0.5589820000000  0.5291360000000 1.0
C      1  0.5336940000000  0.4457650000000  0.5395380000000 1.0
C      1  0.5049140000000  0.4987390000000  0.5608340000000 1.0
C      1  0.4576390000000  0.4556150000000  0.5685430000000 1.0
C      1  0.4628600000000  0.5703130000000  0.4723090000000 1.0
C      1  0.4876070000000  0.4335450000000  0.5333900000000 1.0
C      1  0.5215910000000  0.5494960000000  0.5209700000000 1.0
C      1  0.5500720000000  0.4867270000000  0.4444230000000 1.0
C      1  0.5330040000000  0.5115890000000  0.4564920000000 1.0
C      1  0.5270550000000  0.4901670000000  0.5181570000000 1.0
C      1  0.4587790000000  0.4906540000000  0.4382210000000 1.0
C      1  0.4811400000000  0.5028370000000  0.4289070000000 1.0
C      1  0.4681450000000  0.5400040000000  0.5510680000000 1.0
C      1  0.4578620000000  0.4692090000000  0.5226270000000 1.0
C      1  0.4711200000000  0.5512510000000  0.4535650000000 1.0
C      1  0.5076410000000  0.4251890000000  0.5137860000000 1.0
C      1  0.4477190000000  0.5017180000000  0.4909690000000 1.0
C      1  0.4510340000000  0.5310460000000  0.4936660000000 1.0
C      1  0.4322900000000  0.5316430000000  0.5148040000000 1.0
C      1  0.4850290000000  0.4483080000000  0.5598510000000 1.0
C      1  0.5429690000000  0.4772120000000  0.4984090000000 1.0
C      1  0.5129810000000  0.5764720000000  0.4791790000000 1.0
C      1  0.4934990000000  0.5273870000000  0.5633140000000 1.0
C      1  0.4466070000000  0.4760270000000  0.5487920000000 1.0
C      1  0.4264300000000  0.4869080000000  0.4738640000000 1.0
C      1  0.4873130000000  0.5318900000000  0.4393520000000 1.0
C      1  0.4727260000000  0.4397440000000  0.4882860000000 1.0
C      1  0.4438280000000  0.5274500000000  0.5604520000000 1.0
C      1  0.4724460000000  0.4678590000000  0.4763750000000 1.0
C      1  0.4711460000000  0.4863950000000  0.5024190000000 1.0
C      1  0.5245640000000  0.5584480000000  0.4592900000000 1.0
C      1  0.4465200000000  0.4738660000000  0.4567630000000 1.0
C      1  0.5304660000000  0.4643980000000  0.5599790000000 1.0
C      1  0.4979530000000  0.4794820000000  0.4375420000000 1.0
C      1  0.5341640000000  0.5670250000000  0.4986810000000 1.0
C      1  0.5117260000000  0.4529700000000  0.4377070000000 1.0
C      1  0.5131830000000  0.4334120000000  0.4607770000000 1.0
C      1  0.5143540000000  0.4964550000000  0.4770420000000 1.0
C      1  0.4878570000000  0.5680290000000  0.4855200000000 1.0
C      1  0.5706850000000  0.4936490000000  0.4638750000000 1.0
C      1  0.5703100000000  0.4834890000000  0.4918950000000 1.0
C      1  0.4967510000000  0.4790200000000  0.4647060000000 1.0
C      1  0.5154430000000  0.5346630000000  0.4454950000000 1.0
C      1  0.5407310000000  0.4411860000000  0.4658530000000 1.0
C      1  0.5638190000000  0.5415180000000  0.4851610000000 1.0
C      1  0.5373820000000  0.5460040000000  0.4823530000000 1.0
C      1  0.4653730000000  0.4414310000000  0.5163810000000 1.0
C      1  0.5405420000000  0.4595260000000  0.4419990000000 1.0
C      1  0.5040930000000  0.5012500000000  0.5043080000000 1.0
C      1  0.5618210000000  0.5211030000000  0.4641480000000 1.0
C      1  0.5774880000000  0.5318950000000  0.5107170000000 1.0
C      1  0.5024610000000  0.4707450000000  0.5697160000000 1.0
C      1  0.5015310000000  0.5302120000000  0.5114210000000 1.0
C      1  0.4813480000000  0.5426540000000  0.4962010000000 1.0
C      1  0.5297190000000  0.4922690000000  0.5469020000000 1.0
C      1  0.5368030000000  0.4319800000000  0.5160310000000 1.0
C      1  0.5225220000000  0.5522300000000  0.5480410000000 1.0
END
