TITL C-884130-5973-214 -13.2820379106123 125000 -16055.3524799377 0 0 108 (C1) n - 1
REM
REM in /home/nfs/bkarasulu/CARBON/AIRSS/Generating-Clusters/ReaxFF-fromJPCA2015/Units_Real/with-SteepDescent/Only-C1/SD-CG/Try1-3A/FIRE-CG
REM
REM
REM
REM
REM
REM ./C.cell (11c1c37f851c82e70ff6c80c92926a4b)
REM
REM compiler GCC version 9.2.1 20190827 (Red Hat 9.2.1-1)
REM options -cpp -mtune=generic -march=x86-64 -g -O0 -fpre-include=/usr/include/finclude/math-vector-fortran.h
REM seed -926826697 1174137448 -2123303355 1756608543 312761495 -332230136 -1939020995 -1355882178 442155148 -10986550 793121612 -555203685 272170585 272842260 -1740361155 -895555813 701013055 -185884295 849692919 613800921 -186563151 -250348751 42559786 -1206161102 -285296800 2041907023 2018587378 -973735817 1598464264 -1903005993 1078257710 -1996070200 1137066165
REM
CELL 1.54180   50.00000   50.00000   50.00000   90.00000   90.00000   90.00000
LATT -1
SFAC C  
C      1  0.5311580000000  0.4822000000000  0.5422380000000 1.0
C      1  0.4188800000000  0.5052940000000  0.4843180000000 1.0
C      1  0.4109840000000  0.5198760000000  0.5091330000000 1.0
C      1  0.5204900000000  0.4778540000000  0.4356020000000 1.0
C      1  0.4971360000000  0.4828630000000  0.5732360000000 1.0
C      1  0.4818540000000  0.4228880000000  0.4619510000000 1.0
C      1  0.5096740000000  0.5524030000000  0.5617450000000 1.0
C      1  0.4216320000000  0.5353970000000  0.5474370000000 1.0
C      1  0.5304520000000  0.4083870000000  0.4822990000000 1.0
C      1  0.4706150000000  0.5202370000000  0.5316820000000 1.0
C      1  0.5477970000000  0.4800390000000  0.5658790000000 1.0
C      1  0.5558570000000  0.5657280000000  0.5435450000000 1.0
C      1  0.5490010000000  0.4997980000000  0.5874650000000 1.0
C      1  0.4408330000000  0.4686050000000  0.5102410000000 1.0
C      1  0.5685720000000  0.5595520000000  0.4929610000000 1.0
C      1  0.5748330000000  0.4584320000000  0.4763140000000 1.0
C      1  0.4191950000000  0.4953180000000  0.4354860000000 1.0
C      1  0.5365720000000  0.5024880000000  0.4260460000000 1.0
C      1  0.5367480000000  0.5760640000000  0.4571490000000 1.0
C      1  0.5420100000000  0.4389370000000  0.5433910000000 1.0
C      1  0.5060470000000  0.5300630000000  0.5797720000000 1.0
C      1  0.5386290000000  0.4397030000000  0.4571860000000 1.0
C      1  0.5121110000000  0.5149510000000  0.5115390000000 1.0
C      1  0.4215730000000  0.5060550000000  0.5373300000000 1.0
C      1  0.4287790000000  0.5407300000000  0.4513440000000 1.0
C      1  0.5663880000000  0.4763000000000  0.4540790000000 1.0
C      1  0.4853180000000  0.5388310000000  0.4658120000000 1.0
C      1  0.5312550000000  0.5879610000000  0.5096380000000 1.0
C      1  0.4458840000000  0.5616070000000  0.4505860000000 1.0
C      1  0.5135340000000  0.4792830000000  0.4658690000000 1.0
C      1  0.4174590000000  0.4746500000000  0.4957320000000 1.0
C      1  0.5574900000000  0.4336270000000  0.5182690000000 1.0
C      1  0.4833370000000  0.5755550000000  0.4446900000000 1.0
C      1  0.4803200000000  0.5225940000000  0.4416100000000 1.0
C      1  0.4963680000000  0.4191090000000  0.5346590000000 1.0
C      1  0.5611030000000  0.5415790000000  0.5596230000000 1.0
C      1  0.5744930000000  0.5189490000000  0.4791690000000 1.0
C      1  0.4853280000000  0.5094430000000  0.5806270000000 1.0
C      1  0.5158040000000  0.5483600000000  0.4244490000000 1.0
C      1  0.5597890000000  0.5049230000000  0.4427860000000 1.0
C      1  0.4478770000000  0.4873890000000  0.5628670000000 1.0
C      1  0.4520320000000  0.5107310000000  0.4767070000000 1.0
C      1  0.4590360000000  0.5559530000000  0.5061420000000 1.0
C      1  0.5192970000000  0.4552550000000  0.4764830000000 1.0
C      1  0.5129910000000  0.4365410000000  0.5507380000000 1.0
C      1  0.4735620000000  0.4960130000000  0.4886260000000 1.0
C      1  0.5296890000000  0.5205690000000  0.5924010000000 1.0
C      1  0.5109760000000  0.5723740000000  0.4371420000000 1.0
C      1  0.4586420000000  0.4192210000000  0.4775300000000 1.0
C      1  0.5025900000000  0.5028460000000  0.4849450000000 1.0
C      1  0.5468980000000  0.4609790000000  0.4394190000000 1.0
C      1  0.4115900000000  0.5470100000000  0.5205870000000 1.0
C      1  0.4150300000000  0.5157990000000  0.4558240000000 1.0
C      1  0.4658490000000  0.4139650000000  0.5055490000000 1.0
C      1  0.4630810000000  0.5806820000000  0.4625580000000 1.0
C      1  0.4587520000000  0.5074630000000  0.4483400000000 1.0
C      1  0.5867010000000  0.5377340000000  0.4979160000000 1.0
C      1  0.4718810000000  0.4356590000000  0.5270110000000 1.0
C      1  0.4347810000000  0.4336640000000  0.4644790000000 1.0
C      1  0.4847640000000  0.4868880000000  0.4158920000000 1.0
C      1  0.5332040000000  0.5937150000000  0.4799470000000 1.0
C      1  0.4475600000000  0.5381760000000  0.5601310000000 1.0
C      1  0.4276560000000  0.4587190000000  0.5329750000000 1.0
C      1  0.5889310000000  0.4959910000000  0.5276180000000 1.0
C      1  0.4671930000000  0.5495090000000  0.5353960000000 1.0
C      1  0.4577440000000  0.5151200000000  0.5747780000000 1.0
C      1  0.5174940000000  0.4636860000000  0.5050300000000 1.0
C      1  0.5206340000000  0.5236410000000  0.4128490000000 1.0
C      1  0.5819050000000  0.4690500000000  0.5302630000000 1.0
C      1  0.4937630000000  0.4545470000000  0.5680620000000 1.0
C      1  0.5579020000000  0.5571850000000  0.4651130000000 1.0
C      1  0.5464090000000  0.5122770000000  0.4873030000000 1.0
C      1  0.5382640000000  0.4825590000000  0.5142680000000 1.0
C      1  0.5899500000000  0.5239550000000  0.5245070000000 1.0
C      1  0.4928190000000  0.4047450000000  0.5085400000000 1.0
C      1  0.4912930000000  0.4635890000000  0.5190780000000 1.0
C      1  0.4759620000000  0.4427620000000  0.4407270000000 1.0
C      1  0.4683300000000  0.4750390000000  0.5045000000000 1.0
C      1  0.4464950000000  0.4943690000000  0.4266130000000 1.0
C      1  0.5094020000000  0.5497240000000  0.4763100000000 1.0
C      1  0.4206330000000  0.4797590000000  0.5524150000000 1.0
C      1  0.4916760000000  0.5148280000000  0.4152650000000 1.0
C      1  0.5400430000000  0.5121340000000  0.5147360000000 1.0
C      1  0.5631930000000  0.4316550000000  0.4711870000000 1.0
C      1  0.5738660000000  0.4547420000000  0.5059080000000 1.0
C      1  0.4209090000000  0.4533900000000  0.4786290000000 1.0
C      1  0.5026350000000  0.4852490000000  0.5436930000000 1.0
C      1  0.4970570000000  0.5111390000000  0.5337040000000 1.0
C      1  0.4499940000000  0.4437480000000  0.5461220000000 1.0
C      1  0.5546390000000  0.5272370000000  0.5846920000000 1.0
C      1  0.5227840000000  0.5242160000000  0.4738480000000 1.0
C      1  0.4921310000000  0.4626270000000  0.4259850000000 1.0
C      1  0.4472000000000  0.4475470000000  0.4412410000000 1.0
C      1  0.4989740000000  0.5711280000000  0.4929590000000 1.0
C      1  0.5025670000000  0.4091490000000  0.4804330000000 1.0
C      1  0.4721010000000  0.5778620000000  0.4928340000000 1.0
C      1  0.4323050000000  0.4699290000000  0.4300240000000 1.0
C      1  0.4935800000000  0.5616730000000  0.5406730000000 1.0
C      1  0.4508520000000  0.5015420000000  0.5369310000000 1.0
C      1  0.5547130000000  0.4152590000000  0.4948230000000 1.0
C      1  0.5678600000000  0.5315010000000  0.4538150000000 1.0
C      1  0.4650080000000  0.4579500000000  0.5655500000000 1.0
C      1  0.5042780000000  0.5773610000000  0.5187540000000 1.0
C      1  0.5621370000000  0.4582440000000  0.5527210000000 1.0
C      1  0.4617210000000  0.5388060000000  0.4835720000000 1.0
C      1  0.5356300000000  0.5615540000000  0.5603590000000 1.0
C      1  0.5544560000000  0.5714100000000  0.5156840000000 1.0
C      1  0.5628260000000  0.5266380000000  0.5353940000000 1.0
END
