TITL C-883740-3686-341 4.30389893035268 125000 -12350.3422277405 0 0 84 (C1) n - 1
REM
REM in /home/nfs/bkarasulu/CARBON/AIRSS/Generating-Clusters/ReaxFF-fromJPCA2015/Units_Real/with-SteepDescent/Only-C1/SD-CG/Try1-3A/FIRE-CG
REM
REM
REM
REM
REM
REM ./C.cell (11c1c37f851c82e70ff6c80c92926a4b)
REM
REM compiler GCC version 9.2.1 20190827 (Red Hat 9.2.1-1)
REM options -cpp -mtune=generic -march=x86-64 -g -O0 -fpre-include=/usr/include/finclude/math-vector-fortran.h
REM seed 334725903 849319061 543133468 6119271 -1007340442 -1697498258 1612627218 1938399466 101755143 -226810171 1871949836 -2009363663 -947623290 -2114717746 -1417741455 -164572872 -76588853 -24885761 -1732955605 1449017694 -874576381 64377019 179079818 -1277483086 1540553919 443302965 -634724620 1711149172 -334999061 1005896526 -1844545711 1719876165 -1359266736
REM
CELL 1.54180   50.00000   50.00000   50.00000   90.00000   90.00000   90.00000
LATT -1
SFAC C  
C      1  0.5330620000000  0.4544560000000  0.5793760000000 1.0
C      1  0.5415320000000  0.5714570000000  0.4933450000000 1.0
C      1  0.5857690000000  0.4879390000000  0.4521230000000 1.0
C      1  0.4885680000000  0.5318570000000  0.4985140000000 1.0
C      1  0.5014320000000  0.4854170000000  0.5651260000000 1.0
C      1  0.4739370000000  0.5670240000000  0.4488460000000 1.0
C      1  0.4620150000000  0.5041520000000  0.5688920000000 1.0
C      1  0.4439790000000  0.4594030000000  0.5606030000000 1.0
C      1  0.4841110000000  0.5458970000000  0.5666910000000 1.0
C      1  0.5352620000000  0.4997260000000  0.4401440000000 1.0
C      1  0.4992950000000  0.5159680000000  0.4228050000000 1.0
C      1  0.4234880000000  0.5038210000000  0.5408550000000 1.0
C      1  0.4804120000000  0.5096260000000  0.5163900000000 1.0
C      1  0.4279430000000  0.5270690000000  0.4850500000000 1.0
C      1  0.5230020000000  0.5370930000000  0.5796850000000 1.0
C      1  0.4800050000000  0.4388050000000  0.4385570000000 1.0
C      1  0.4236050000000  0.5459690000000  0.5061920000000 1.0
C      1  0.5207450000000  0.4165210000000  0.5162310000000 1.0
C      1  0.5656970000000  0.5459140000000  0.5268860000000 1.0
C      1  0.5297590000000  0.4751990000000  0.5229850000000 1.0
C      1  0.5202540000000  0.5717550000000  0.5389730000000 1.0
C      1  0.5464690000000  0.5231890000000  0.5662670000000 1.0
C      1  0.5014080000000  0.5682020000000  0.4496410000000 1.0
C      1  0.5460510000000  0.4929750000000  0.5106710000000 1.0
C      1  0.4836520000000  0.5269740000000  0.4460940000000 1.0
C      1  0.4747810000000  0.4832850000000  0.4755470000000 1.0
C      1  0.4536190000000  0.5861810000000  0.4859730000000 1.0
C      1  0.4371860000000  0.5281200000000  0.4571360000000 1.0
C      1  0.5517930000000  0.4315230000000  0.4595890000000 1.0
C      1  0.5439810000000  0.5041160000000  0.4857530000000 1.0
C      1  0.5107640000000  0.5586720000000  0.5632930000000 1.0
C      1  0.4733360000000  0.4681860000000  0.4281380000000 1.0
C      1  0.5597240000000  0.4566010000000  0.4494080000000 1.0
C      1  0.6167030000000  0.5131300000000  0.4573030000000 1.0
C      1  0.4965070000000  0.5768850000000  0.5217790000000 1.0
C      1  0.4847890000000  0.5787300000000  0.4725030000000 1.0
C      1  0.4590470000000  0.4821540000000  0.4502260000000 1.0
C      1  0.5643210000000  0.5229710000000  0.5441510000000 1.0
C      1  0.5047430000000  0.4267950000000  0.4392750000000 1.0
C      1  0.4609920000000  0.4335550000000  0.4889790000000 1.0
C      1  0.4960740000000  0.5265370000000  0.5849940000000 1.0
C      1  0.4952900000000  0.4106770000000  0.5234030000000 1.0
C      1  0.5263020000000  0.5258080000000  0.4316450000000 1.0
C      1  0.4751730000000  0.4376100000000  0.5194280000000 1.0
C      1  0.4495640000000  0.5423070000000  0.5466430000000 1.0
C      1  0.5148340000000  0.4717350000000  0.5804810000000 1.0
C      1  0.4252520000000  0.4567110000000  0.5192630000000 1.0
C      1  0.5782660000000  0.5364890000000  0.5015800000000 1.0
C      1  0.5241040000000  0.5502680000000  0.4481410000000 1.0
C      1  0.5454690000000  0.4282930000000  0.5138210000000 1.0
C      1  0.5298970000000  0.4160620000000  0.4404820000000 1.0
C      1  0.4315170000000  0.4978050000000  0.4942790000000 1.0
C      1  0.5435690000000  0.5524470000000  0.4703430000000 1.0
C      1  0.4326300000000  0.4412650000000  0.4945410000000 1.0
C      1  0.5449050000000  0.5662540000000  0.5221950000000 1.0
C      1  0.4467880000000  0.4451770000000  0.5357550000000 1.0
C      1  0.5003220000000  0.4948040000000  0.4744830000000 1.0
C      1  0.4625540000000  0.4945260000000  0.4986700000000 1.0
C      1  0.4723390000000  0.4341540000000  0.4644100000000 1.0
C      1  0.4007440000000  0.4660920000000  0.4606310000000 1.0
C      1  0.5589000000000  0.5290940000000  0.4804450000000 1.0
C      1  0.5261130000000  0.4911850000000  0.4663060000000 1.0
C      1  0.4941570000000  0.5211750000000  0.4722670000000 1.0
C      1  0.4161490000000  0.4856700000000  0.4654400000000 1.0
C      1  0.5721080000000  0.4974300000000  0.5234320000000 1.0
C      1  0.4893130000000  0.4891760000000  0.4213200000000 1.0
C      1  0.4390640000000  0.4900130000000  0.5617770000000 1.0
C      1  0.6011600000000  0.4993230000000  0.4750930000000 1.0
C      1  0.5765340000000  0.4673040000000  0.5325100000000 1.0
C      1  0.4860980000000  0.5614280000000  0.4988420000000 1.0
C      1  0.5508350000000  0.4406360000000  0.5657250000000 1.0
C      1  0.5501290000000  0.4548460000000  0.5338220000000 1.0
C      1  0.4915000000000  0.4599810000000  0.5243140000000 1.0
C      1  0.4381360000000  0.5668750000000  0.4961580000000 1.0
C      1  0.4358570000000  0.5002910000000  0.4482590000000 1.0
C      1  0.4193540000000  0.4859890000000  0.5189370000000 1.0
C      1  0.4858350000000  0.4995560000000  0.5828980000000 1.0
C      1  0.4261820000000  0.5338680000000  0.5351650000000 1.0
C      1  0.4715720000000  0.5239700000000  0.5475780000000 1.0
C      1  0.5477810000000  0.4288050000000  0.4871650000000 1.0
C      1  0.5616670000000  0.4824170000000  0.4379050000000 1.0
C      1  0.5899170000000  0.5106320000000  0.5028190000000 1.0
C      1  0.5027570000000  0.4850950000000  0.5317360000000 1.0
C      1  0.4595520000000  0.5429080000000  0.4449000000000 1.0
END
