TITL C-883741-3679-30 -357061.308782957 125000 -15565.1523729315 0 0 104 (C1) n - 1
REM
REM in /home/nfs/bkarasulu/CARBON/AIRSS/Generating-Clusters/ReaxFF-fromJPCA2015/Units_Real/with-SteepDescent/Only-C1/SD-CG/Try1-3A/FIRE-CG
REM
REM
REM
REM
REM
REM ./C.cell (11c1c37f851c82e70ff6c80c92926a4b)
REM
REM compiler GCC version 9.2.1 20190827 (Red Hat 9.2.1-1)
REM options -cpp -mtune=generic -march=x86-64 -g -O0 -fpre-include=/usr/include/finclude/math-vector-fortran.h
REM seed -17277571 -632506209 -6813580 -958504261 -1961385400 -177130575 1574054364 -217003272 -551483309 -1797582441 1332290199 1668991295 722630900 1392818388 1283532641 1919699427 120537155 1167194255 7111976 64377133 1781877074 -1334949665 -1867633728 -786287448 -459331129 1945577475 -561850673 -1151520902 -1013795549 -521756948 1611461319 1715593767 694102489
REM
CELL 1.54180   50.00000   50.00000   50.00000   90.00000   90.00000   90.00000
LATT -1
SFAC C  
C      1  0.4377000000000  0.4887540000000  0.4530910000000 1.0
C      1  0.4638050000000  0.4688820000000  0.4219580000000 1.0
C      1  0.4911710000000  0.4748780000000  0.4173880000000 1.0
C      1  0.4534360000000  0.5678490000000  0.4929480000000 1.0
C      1  0.5160160000000  0.5014980000000  0.4742190000000 1.0
C      1  0.5643210000000  0.4268980000000  0.5226050000000 1.0
C      1  0.5251340000000  0.4056330000000  0.4942270000000 1.0
C      1  0.4342590000000  0.5101780000000  0.5666220000000 1.0
C      1  0.5035520000000  0.5416850000000  0.5722270000000 1.0
C      1  0.5382710000000  0.4939260000000  0.4906600000000 1.0
C      1  0.4879250000000  0.4777820000000  0.5056180000000 1.0
C      1  0.5747530000000  0.5570960000000  0.4839880000000 1.0
C      1  0.4392920000000  0.5631360000000  0.5384590000000 1.0
C      1  0.4606340000000  0.5051220000000  0.4611690000000 1.0
C      1  0.4500660000000  0.5839480000000  0.5167030000000 1.0
C      1  0.4570580000000  0.5571360000000  0.4440340000000 1.0
C      1  0.5728890000000  0.4652780000000  0.5380210000000 1.0
C      1  0.4231950000000  0.5138850000000  0.4831570000000 1.0
C      1  0.4289310000000  0.5486520000000  0.4439030000000 1.0
C      1  0.5318580000000  0.5448050000000  0.4894210000000 1.0
C      1  0.4944090000000  0.4981700000000  0.5885110000000 1.0
C      1  0.5671440000000  0.5429440000000  0.5321780000000 1.0
C      1  0.5423530000000  0.5047110000000  0.5683840000000 1.0
C      1  0.5368660000000  0.5752070000000  0.4762450000000 1.0
C      1  0.4827020000000  0.5695420000000  0.5395860000000 1.0
C      1  0.5133180000000  0.5302930000000  0.4727100000000 1.0
C      1  0.4138230000000  0.5315070000000  0.4615180000000 1.0
C      1  0.5007560000000  0.5843430000000  0.4959140000000 1.0
C      1  0.4919500000000  0.4737210000000  0.5715640000000 1.0
C      1  0.4956040000000  0.5354860000000  0.5099880000000 1.0
C      1  0.4854430000000  0.4967790000000  0.5276110000000 1.0
C      1  0.5047910000000  0.4987270000000  0.4236640000000 1.0
C      1  0.4649220000000  0.5404670000000  0.5030600000000 1.0
C      1  0.4806220000000  0.5425330000000  0.4371860000000 1.0
C      1  0.4444600000000  0.4416480000000  0.4673660000000 1.0
C      1  0.5336780000000  0.4213070000000  0.5175940000000 1.0
C      1  0.4562320000000  0.4970090000000  0.4171370000000 1.0
C      1  0.4041640000000  0.4897090000000  0.5333520000000 1.0
C      1  0.5580310000000  0.4930480000000  0.5431830000000 1.0
C      1  0.4448190000000  0.4047840000000  0.5093490000000 1.0
C      1  0.5585430000000  0.4420030000000  0.5465190000000 1.0
C      1  0.5886960000000  0.4920970000000  0.4628810000000 1.0
C      1  0.4733180000000  0.4832840000000  0.5516750000000 1.0
C      1  0.4647290000000  0.5751860000000  0.4664930000000 1.0
C      1  0.5244360000000  0.5265380000000  0.5554550000000 1.0
C      1  0.5258800000000  0.4278920000000  0.4502990000000 1.0
C      1  0.4969400000000  0.4030380000000  0.5012150000000 1.0
C      1  0.4930710000000  0.5750900000000  0.4680070000000 1.0
C      1  0.5392100000000  0.4711660000000  0.4377260000000 1.0
C      1  0.5751170000000  0.5175390000000  0.4533800000000 1.0
C      1  0.5396850000000  0.5488230000000  0.4445500000000 1.0
C      1  0.5336840000000  0.4711360000000  0.5085120000000 1.0
C      1  0.4296510000000  0.5010980000000  0.4274930000000 1.0
C      1  0.4296950000000  0.4728550000000  0.5340570000000 1.0
C      1  0.4073990000000  0.5122120000000  0.5523530000000 1.0
C      1  0.4931850000000  0.4038520000000  0.5306620000000 1.0
C      1  0.5469660000000  0.5830080000000  0.5207050000000 1.0
C      1  0.5679080000000  0.5642350000000  0.5117370000000 1.0
C      1  0.4944970000000  0.4810540000000  0.4776410000000 1.0
C      1  0.4780280000000  0.4228510000000  0.4906600000000 1.0
C      1  0.5169230000000  0.4141180000000  0.5440130000000 1.0
C      1  0.5895930000000  0.4769790000000  0.4881540000000 1.0
C      1  0.4961020000000  0.4543220000000  0.5194190000000 1.0
C      1  0.5055900000000  0.5518690000000  0.4521860000000 1.0
C      1  0.5874260000000  0.4620230000000  0.5124440000000 1.0
C      1  0.5327540000000  0.4993020000000  0.4308300000000 1.0
C      1  0.5648230000000  0.5155440000000  0.5244200000000 1.0
C      1  0.5120270000000  0.5577730000000  0.5064780000000 1.0
C      1  0.4688020000000  0.4402780000000  0.5163550000000 1.0
C      1  0.5311220000000  0.4805370000000  0.5355020000000 1.0
C      1  0.5398210000000  0.4140560000000  0.4698650000000 1.0
C      1  0.4444920000000  0.4847480000000  0.5562540000000 1.0
C      1  0.5314110000000  0.5930680000000  0.4981370000000 1.0
C      1  0.5541720000000  0.5168940000000  0.4984290000000 1.0
C      1  0.4640710000000  0.4528580000000  0.4480730000000 1.0
C      1  0.5546180000000  0.4570910000000  0.4556760000000 1.0
C      1  0.4512080000000  0.4163810000000  0.4815070000000 1.0
C      1  0.4629870000000  0.5473840000000  0.5323810000000 1.0
C      1  0.4822230000000  0.5252550000000  0.5819620000000 1.0
C      1  0.5292760000000  0.4374200000000  0.5550000000000 1.0
C      1  0.5197920000000  0.4454920000000  0.5058630000000 1.0
C      1  0.4423470000000  0.4572650000000  0.5136170000000 1.0
C      1  0.4522560000000  0.5170930000000  0.4853440000000 1.0
C      1  0.5764130000000  0.5287040000000  0.4799710000000 1.0
C      1  0.4168180000000  0.5256210000000  0.4340790000000 1.0
C      1  0.4774280000000  0.5132440000000  0.4346390000000 1.0
C      1  0.5045490000000  0.5181140000000  0.5301540000000 1.0
C      1  0.4321440000000  0.4602760000000  0.4870630000000 1.0
C      1  0.4906410000000  0.4601340000000  0.4575970000000 1.0
C      1  0.5065670000000  0.5665050000000  0.5565290000000 1.0
C      1  0.4783510000000  0.5893910000000  0.5190500000000 1.0
C      1  0.4646570000000  0.4132330000000  0.5301820000000 1.0
C      1  0.5583830000000  0.5654450000000  0.4597060000000 1.0
C      1  0.5496060000000  0.5226370000000  0.4385690000000 1.0
C      1  0.4526710000000  0.5303900000000  0.5783330000000 1.0
C      1  0.5149710000000  0.4514350000000  0.4389890000000 1.0
C      1  0.5612490000000  0.4361480000000  0.4725820000000 1.0
C      1  0.5768720000000  0.4381000000000  0.4992240000000 1.0
C      1  0.5336500000000  0.5746320000000  0.5461330000000 1.0
C      1  0.4204200000000  0.4854380000000  0.4765730000000 1.0
C      1  0.5128300000000  0.4621150000000  0.5502310000000 1.0
C      1  0.5220410000000  0.4958290000000  0.5846850000000 1.0
C      1  0.4395800000000  0.5517120000000  0.5644330000000 1.0
C      1  0.5453280000000  0.5492320000000  0.5508300000000 1.0
END
