TITL C-884142-5251-289 40.2020416236081 125000 -17375.9529827342 0 0 120 (C1) n - 1
REM
REM in /home/nfs/bkarasulu/CARBON/AIRSS/Generating-Clusters/ReaxFF-fromJPCA2015/Units_Real/with-SteepDescent/Only-C1/SD-CG/Try1-3A/FIRE-CG
REM
REM
REM
REM
REM
REM ./C.cell (11c1c37f851c82e70ff6c80c92926a4b)
REM
REM compiler GCC version 9.2.1 20190827 (Red Hat 9.2.1-1)
REM options -cpp -mtune=generic -march=x86-64 -g -O0 -fpre-include=/usr/include/finclude/math-vector-fortran.h
REM seed 892948445 765216103 -1511472653 1840090189 -893839532 1818395296 -796314741 -319728328 -568993059 -1993941199 1090675161 145993904 -1797916354 -266227671 -2021989598 6474403 -1312641630 1083864823 -974740469 1316578694 323597168 195095438 537211386 961368312 -1646524112 -1604440861 1591329661 889542893 1143407084 966268018 1436676129 407368964 -512796151
REM
CELL 1.54180   50.00000   50.00000   50.00000   90.00000   90.00000   90.00000
LATT -1
SFAC C  
C      1  0.4816250000000  0.5426800000000  0.5320120000000 1.0
C      1  0.5157010000000  0.5484420000000  0.4269700000000 1.0
C      1  0.4395060000000  0.4804750000000  0.4377330000000 1.0
C      1  0.5511900000000  0.5472710000000  0.5297350000000 1.0
C      1  0.5422210000000  0.4265650000000  0.4663600000000 1.0
C      1  0.5719100000000  0.4954770000000  0.5611100000000 1.0
C      1  0.4699950000000  0.5286650000000  0.5763790000000 1.0
C      1  0.4917630000000  0.4440760000000  0.5836860000000 1.0
C      1  0.5856840000000  0.4917730000000  0.5355250000000 1.0
C      1  0.4386970000000  0.4657920000000  0.4628730000000 1.0
C      1  0.4029960000000  0.4576610000000  0.4908080000000 1.0
C      1  0.5426120000000  0.4480820000000  0.5608600000000 1.0
C      1  0.4911010000000  0.5513020000000  0.5777490000000 1.0
C      1  0.5185530000000  0.5129410000000  0.5452230000000 1.0
C      1  0.5382940000000  0.4794790000000  0.4158230000000 1.0
C      1  0.6005400000000  0.5045310000000  0.4884600000000 1.0
C      1  0.5028080000000  0.5252370000000  0.4146050000000 1.0
C      1  0.4512020000000  0.4181930000000  0.4620210000000 1.0
C      1  0.4913940000000  0.4295380000000  0.4725420000000 1.0
C      1  0.4138880000000  0.5108130000000  0.5386790000000 1.0
C      1  0.4867890000000  0.5229460000000  0.4631440000000 1.0
C      1  0.5712060000000  0.4530150000000  0.4937640000000 1.0
C      1  0.4964180000000  0.5878990000000  0.5143690000000 1.0
C      1  0.4044730000000  0.5171860000000  0.5111860000000 1.0
C      1  0.5393090000000  0.4125680000000  0.4900090000000 1.0
C      1  0.4773540000000  0.5015080000000  0.5802630000000 1.0
C      1  0.4480360000000  0.5236680000000  0.5584190000000 1.0
C      1  0.4635000000000  0.4707830000000  0.4224630000000 1.0
C      1  0.4583110000000  0.4258350000000  0.5154170000000 1.0
C      1  0.4481470000000  0.5828110000000  0.4921910000000 1.0
C      1  0.4525190000000  0.4945640000000  0.5038840000000 1.0
C      1  0.5445010000000  0.5730790000000  0.4798760000000 1.0
C      1  0.4841550000000  0.6009560000000  0.4698790000000 1.0
C      1  0.4828330000000  0.4610690000000  0.4857260000000 1.0
C      1  0.4821190000000  0.4499850000000  0.5123620000000 1.0
C      1  0.5289070000000  0.5095200000000  0.4798380000000 1.0
C      1  0.5644070000000  0.4741280000000  0.4303910000000 1.0
C      1  0.5103530000000  0.5922010000000  0.4673680000000 1.0
C      1  0.3999340000000  0.4990490000000  0.4894480000000 1.0
C      1  0.4814640000000  0.4725770000000  0.5303790000000 1.0
C      1  0.4280990000000  0.4579910000000  0.5345580000000 1.0
C      1  0.4910140000000  0.4410730000000  0.4390490000000 1.0
C      1  0.5025840000000  0.5830350000000  0.5546620000000 1.0
C      1  0.4478870000000  0.5250070000000  0.5004680000000 1.0
C      1  0.5958430000000  0.5026880000000  0.4588830000000 1.0
C      1  0.5214100000000  0.5158870000000  0.5801880000000 1.0
C      1  0.4336570000000  0.5495890000000  0.4511840000000 1.0
C      1  0.5619710000000  0.5228800000000  0.5686510000000 1.0
C      1  0.4334530000000  0.4984080000000  0.5563510000000 1.0
C      1  0.5259210000000  0.4754230000000  0.5023850000000 1.0
C      1  0.5701940000000  0.4702470000000  0.5230320000000 1.0
C      1  0.5604080000000  0.4457650000000  0.5384540000000 1.0
C      1  0.4722640000000  0.5333310000000  0.4855490000000 1.0
C      1  0.5448160000000  0.5456100000000  0.5626030000000 1.0
C      1  0.5043560000000  0.4796030000000  0.4839280000000 1.0
C      1  0.4487490000000  0.5715390000000  0.4630520000000 1.0
C      1  0.6059110000000  0.4796090000000  0.4737650000000 1.0
C      1  0.4042630000000  0.4785230000000  0.5029500000000 1.0
C      1  0.5699460000000  0.4517770000000  0.4494250000000 1.0
C      1  0.5079470000000  0.4729010000000  0.5636740000000 1.0
C      1  0.5809380000000  0.5399670000000  0.5230430000000 1.0
C      1  0.5905330000000  0.4545780000000  0.4713040000000 1.0
C      1  0.5060180000000  0.4322120000000  0.5157740000000 1.0
C      1  0.4884550000000  0.5608670000000  0.4320350000000 1.0
C      1  0.4637450000000  0.4479470000000  0.5650330000000 1.0
C      1  0.4909240000000  0.5162750000000  0.5361740000000 1.0
C      1  0.4582380000000  0.4755980000000  0.4815460000000 1.0
C      1  0.4491050000000  0.5426110000000  0.5288590000000 1.0
C      1  0.4777090000000  0.4976050000000  0.5200430000000 1.0
C      1  0.4285190000000  0.4818860000000  0.5174780000000 1.0
C      1  0.5700640000000  0.5314850000000  0.4762290000000 1.0
C      1  0.5166510000000  0.5319750000000  0.4969920000000 1.0
C      1  0.5359980000000  0.5218340000000  0.5222510000000 1.0
C      1  0.5026190000000  0.4975110000000  0.5933520000000 1.0
C      1  0.4410280000000  0.4668840000000  0.5581370000000 1.0
C      1  0.4736580000000  0.5962450000000  0.4977270000000 1.0
C      1  0.5003980000000  0.4939820000000  0.4578560000000 1.0
C      1  0.5247500000000  0.5899090000000  0.5117000000000 1.0
C      1  0.4333730000000  0.5085970000000  0.4416570000000 1.0
C      1  0.5121550000000  0.5995520000000  0.5354530000000 1.0
C      1  0.5566570000000  0.5064110000000  0.4845370000000 1.0
C      1  0.5742630000000  0.4997190000000  0.4388710000000 1.0
C      1  0.4210460000000  0.5313090000000  0.4912770000000 1.0
C      1  0.4878510000000  0.4705100000000  0.4380620000000 1.0
C      1  0.5580010000000  0.5541510000000  0.4615600000000 1.0
C      1  0.4903580000000  0.5618470000000  0.5541280000000 1.0
C      1  0.5483160000000  0.5153930000000  0.4362170000000 1.0
C      1  0.5287230000000  0.4488700000000  0.5129020000000 1.0
C      1  0.4302280000000  0.4358880000000  0.5141110000000 1.0
C      1  0.5918450000000  0.5131120000000  0.5159500000000 1.0
C      1  0.4489540000000  0.5669440000000  0.5145900000000 1.0
C      1  0.4908270000000  0.5423530000000  0.5054230000000 1.0
C      1  0.5494330000000  0.4536200000000  0.4700580000000 1.0
C      1  0.5195970000000  0.5673720000000  0.4646630000000 1.0
C      1  0.4289380000000  0.4374470000000  0.4655240000000 1.0
C      1  0.4982620000000  0.4228920000000  0.5446350000000 1.0
C      1  0.4154530000000  0.4344340000000  0.4902280000000 1.0
C      1  0.4737650000000  0.5791630000000  0.4513920000000 1.0
C      1  0.4192500000000  0.5254690000000  0.4625030000000 1.0
C      1  0.4481180000000  0.5322100000000  0.4319280000000 1.0
C      1  0.4672160000000  0.4219320000000  0.4372170000000 1.0
C      1  0.5535650000000  0.4339510000000  0.5099680000000 1.0
C      1  0.5493290000000  0.4764890000000  0.5651010000000 1.0
C      1  0.4801920000000  0.4762580000000  0.5587980000000 1.0
C      1  0.5081720000000  0.5409930000000  0.4692340000000 1.0
C      1  0.5200250000000  0.5442070000000  0.5797530000000 1.0
C      1  0.5449380000000  0.5699260000000  0.5091430000000 1.0
C      1  0.4700840000000  0.4267490000000  0.5436770000000 1.0
C      1  0.5428400000000  0.5444590000000  0.4382720000000 1.0
C      1  0.5266750000000  0.4870530000000  0.5519340000000 1.0
C      1  0.5105440000000  0.4141230000000  0.4888300000000 1.0
C      1  0.5174880000000  0.4995410000000  0.4113720000000 1.0
C      1  0.4754470000000  0.5376280000000  0.4213790000000 1.0
C      1  0.5137200000000  0.4345280000000  0.5667880000000 1.0
C      1  0.5070180000000  0.4671060000000  0.5927550000000 1.0
C      1  0.5285560000000  0.5011100000000  0.4533160000000 1.0
C      1  0.4681060000000  0.4173260000000  0.4852660000000 1.0
C      1  0.5489670000000  0.4943080000000  0.5098500000000 1.0
C      1  0.4667650000000  0.4419940000000  0.4170280000000 1.0
C      1  0.5784810000000  0.5484650000000  0.4967770000000 1.0
END
