TITL C-884130-5973-316 5.91141217398026 125000 -5179.91261210798 0 0 36 (C1) n - 1
REM
REM in /home/nfs/bkarasulu/CARBON/AIRSS/Generating-Clusters/ReaxFF-fromJPCA2015/Units_Real/with-SteepDescent/Only-C1/SD-CG/Try1-3A/FIRE-CG
REM
REM
REM
REM
REM
REM ./C.cell (11c1c37f851c82e70ff6c80c92926a4b)
REM
REM compiler GCC version 9.2.1 20190827 (Red Hat 9.2.1-1)
REM options -cpp -mtune=generic -march=x86-64 -g -O0 -fpre-include=/usr/include/finclude/math-vector-fortran.h
REM seed 300812702 1452374012 -1409850336 321098787 1431001149 -301224501 1138732569 -358709019 -106899332 308615743 -745913485 -215881437 -1644971641 -98655666 2102325791 1704656210 -524338231 525869499 1586784901 2040410268 -452852291 -464996383 -153637563 1134445279 -882333846 1989696138 -370016062 -1972286581 1547035306 1373784197 -1244229260 1861875814 932629778
REM
CELL 1.54180   50.00000   50.00000   50.00000   90.00000   90.00000   90.00000
LATT -1
SFAC C  
C      1  0.5346980000000  0.4831050000000  0.4958530000000 1.0
C      1  0.5190950000000  0.5197200000000  0.5353910000000 1.0
C      1  0.4935040000000  0.5177280000000  0.5502070000000 1.0
C      1  0.4707520000000  0.5580440000000  0.4671480000000 1.0
C      1  0.5005370000000  0.5247820000000  0.4553910000000 1.0
C      1  0.5489380000000  0.4932760000000  0.5554960000000 1.0
C      1  0.5466510000000  0.4499990000000  0.5328410000000 1.0
C      1  0.5268100000000  0.5100410000000  0.5083160000000 1.0
C      1  0.4826010000000  0.4890140000000  0.5511190000000 1.0
C      1  0.4335670000000  0.4768040000000  0.4945460000000 1.0
C      1  0.5527140000000  0.5230500000000  0.5116640000000 1.0
C      1  0.4407500000000  0.4972480000000  0.5170120000000 1.0
C      1  0.5138450000000  0.4993690000000  0.4622010000000 1.0
C      1  0.5439450000000  0.4566640000000  0.5038040000000 1.0
C      1  0.4614720000000  0.4923870000000  0.5345580000000 1.0
C      1  0.4977910000000  0.4634630000000  0.5153540000000 1.0
C      1  0.5324590000000  0.4692290000000  0.5509350000000 1.0
C      1  0.4384920000000  0.5212900000000  0.4756360000000 1.0
C      1  0.4800250000000  0.5573730000000  0.4930370000000 1.0
C      1  0.4432120000000  0.5241250000000  0.5037840000000 1.0
C      1  0.4749560000000  0.5384560000000  0.5403440000000 1.0
C      1  0.5488030000000  0.5198490000000  0.5415450000000 1.0
C      1  0.4971840000000  0.5491380000000  0.4710330000000 1.0
C      1  0.4545630000000  0.5368100000000  0.4571420000000 1.0
C      1  0.4636620000000  0.5432360000000  0.5131280000000 1.0
C      1  0.5073520000000  0.4326010000000  0.4791180000000 1.0
C      1  0.4677900000000  0.4902890000000  0.4569670000000 1.0
C      1  0.5359370000000  0.4333930000000  0.4852500000000 1.0
C      1  0.5823430000000  0.5031660000000  0.4719010000000 1.0
C      1  0.4737250000000  0.5171560000000  0.4473890000000 1.0
C      1  0.4920590000000  0.4803300000000  0.4684580000000 1.0
C      1  0.5026830000000  0.4687390000000  0.5415090000000 1.0
C      1  0.5617470000000  0.5155150000000  0.4823850000000 1.0
C      1  0.5418070000000  0.4947170000000  0.4701420000000 1.0
C      1  0.4406760000000  0.4917520000000  0.4704210000000 1.0
C      1  0.4928580000000  0.4581420000000  0.4889780000000 1.0
END
