TITL C-884128-4793-161 -18.8792616115241 125000 -7593.31659614661 0 0 52 (C1) n - 1
REM
REM in /home/nfs/bkarasulu/CARBON/AIRSS/Generating-Clusters/ReaxFF-fromJPCA2015/Units_Real/with-SteepDescent/Only-C1/SD-CG/Try1-3A/FIRE-CG
REM
REM
REM
REM
REM
REM ./C.cell (11c1c37f851c82e70ff6c80c92926a4b)
REM
REM compiler GCC version 9.2.1 20190827 (Red Hat 9.2.1-1)
REM options -cpp -mtune=generic -march=x86-64 -g -O0 -fpre-include=/usr/include/finclude/math-vector-fortran.h
REM seed -355881297 603321828 903409360 -2055694335 1254247079 -302953418 -1137734470 580609495 -1004401230 1349228173 1966655914 689077440 305252131 -656311421 -1885219860 -1897986965 -744634794 -982809477 1482273981 -1432920798 -1976885066 -228105609 1940590873 986574918 -460364144 -151549146 -933963302 129152415 -540938195 651050557 312955875 -1462151577 1851003921
REM
CELL 1.54180   50.00000   50.00000   50.00000   90.00000   90.00000   90.00000
LATT -1
SFAC C  
C      1  0.5182350000000  0.4509880000000  0.4894820000000 1.0
C      1  0.4407580000000  0.4999570000000  0.4998180000000 1.0
C      1  0.5091830000000  0.5352460000000  0.5576500000000 1.0
C      1  0.4676110000000  0.4965260000000  0.5141140000000 1.0
C      1  0.4419530000000  0.4491120000000  0.4940190000000 1.0
C      1  0.4327740000000  0.5177560000000  0.5513560000000 1.0
C      1  0.4313620000000  0.4692480000000  0.5379120000000 1.0
C      1  0.5697240000000  0.5118750000000  0.5273150000000 1.0
C      1  0.4333440000000  0.5511720000000  0.4970000000000 1.0
C      1  0.5115310000000  0.4417170000000  0.5514790000000 1.0
C      1  0.4813660000000  0.5322310000000  0.5730230000000 1.0
C      1  0.5021280000000  0.4544800000000  0.4640780000000 1.0
C      1  0.5417540000000  0.4616740000000  0.4796480000000 1.0
C      1  0.4894340000000  0.5028430000000  0.4281240000000 1.0
C      1  0.5208930000000  0.5132570000000  0.5413850000000 1.0
C      1  0.5109280000000  0.5546840000000  0.5384990000000 1.0
C      1  0.4562550000000  0.5256860000000  0.5636390000000 1.0
C      1  0.4655110000000  0.5058150000000  0.4449260000000 1.0
C      1  0.5483130000000  0.5030600000000  0.5464720000000 1.0
C      1  0.5344410000000  0.5600570000000  0.5051490000000 1.0
C      1  0.5107590000000  0.5412270000000  0.4621840000000 1.0
C      1  0.5138580000000  0.5109960000000  0.5132660000000 1.0
C      1  0.4780500000000  0.4707340000000  0.5199130000000 1.0
C      1  0.5270760000000  0.4584130000000  0.5371440000000 1.0
C      1  0.5619740000000  0.4934110000000  0.4453030000000 1.0
C      1  0.5374510000000  0.5375600000000  0.4607100000000 1.0
C      1  0.4629370000000  0.4814580000000  0.4616770000000 1.0
C      1  0.4280470000000  0.4957400000000  0.5287710000000 1.0
C      1  0.5525060000000  0.4751670000000  0.5403830000000 1.0
C      1  0.4412780000000  0.4741430000000  0.4803290000000 1.0
C      1  0.5117220000000  0.4582190000000  0.4362970000000 1.0
C      1  0.5414720000000  0.4982350000000  0.4271550000000 1.0
C      1  0.4634690000000  0.4252660000000  0.5420790000000 1.0
C      1  0.5637510000000  0.4733100000000  0.4679370000000 1.0
C      1  0.4573970000000  0.5661540000000  0.5071000000000 1.0
C      1  0.5084770000000  0.5672540000000  0.5131690000000 1.0
C      1  0.5060740000000  0.4608080000000  0.5160220000000 1.0
C      1  0.5024490000000  0.5006920000000  0.4894930000000 1.0
C      1  0.5799620000000  0.4738850000000  0.4939180000000 1.0
C      1  0.5625890000000  0.5298100000000  0.5072500000000 1.0
C      1  0.4834640000000  0.5541650000000  0.4984780000000 1.0
C      1  0.4409740000000  0.5261040000000  0.4827770000000 1.0
C      1  0.4872470000000  0.5185760000000  0.5063870000000 1.0
C      1  0.5139380000000  0.4863190000000  0.4254420000000 1.0
C      1  0.5511840000000  0.5190240000000  0.4422850000000 1.0
C      1  0.4536270000000  0.4515770000000  0.5234470000000 1.0
C      1  0.4886990000000  0.4309030000000  0.5506080000000 1.0
C      1  0.5750130000000  0.4811920000000  0.5217600000000 1.0
C      1  0.5524350000000  0.5471770000000  0.4876780000000 1.0
C      1  0.4609960000000  0.5294450000000  0.4621720000000 1.0
C      1  0.4891190000000  0.4790190000000  0.4750370000000 1.0
C      1  0.4845040000000  0.5466340000000  0.4687370000000 1.0
END
