TITL C-883727-9645-296 26.1993286761952 125000 -21958.6452495198 0 0 148 (C1) n - 1
REM
REM in /home/nfs/bkarasulu/CARBON/AIRSS/Generating-Clusters/ReaxFF-fromJPCA2015/Units_Real/with-SteepDescent/Only-C1/SD-CG/Try1-3A/FIRE-CG
REM
REM
REM
REM
REM
REM ./C.cell (11c1c37f851c82e70ff6c80c92926a4b)
REM
REM compiler GCC version 9.2.1 20190827 (Red Hat 9.2.1-1)
REM options -cpp -mtune=generic -march=x86-64 -g -O0 -fpre-include=/usr/include/finclude/math-vector-fortran.h
REM seed -171333090 -195198262 1103732184 -1986993953 -797032518 854807911 1906752925 -506281874 -958797127 -429209979 128933034 2098100977 -1221439809 1543617273 -1205771994 -1663114160 -122548413 -1419999273 387092292 216385749 -769409802 638759762 709501767 1001204 -1089093927 548575327 -1135440077 -1743792387 -1254115353 485367569 -2073705598 -1793147265 351513881
REM
CELL 1.54180   50.00000   50.00000   50.00000   90.00000   90.00000   90.00000
LATT -1
SFAC C  
C      1  0.5149220000000  0.4379330000000  0.4529690000000 1.0
C      1  0.5596660000000  0.5510860000000  0.5590000000000 1.0
C      1  0.4620670000000  0.4902150000000  0.4759220000000 1.0
C      1  0.5041800000000  0.4556740000000  0.4050170000000 1.0
C      1  0.5037620000000  0.5133350000000  0.5201210000000 1.0
C      1  0.5076380000000  0.5563680000000  0.5700990000000 1.0
C      1  0.4320960000000  0.5178100000000  0.4533670000000 1.0
C      1  0.5382370000000  0.4237710000000  0.5604380000000 1.0
C      1  0.5068690000000  0.4552190000000  0.5298770000000 1.0
C      1  0.4372980000000  0.4418470000000  0.4442510000000 1.0
C      1  0.4383780000000  0.5668660000000  0.4502290000000 1.0
C      1  0.5399410000000  0.4679160000000  0.5953670000000 1.0
C      1  0.5657830000000  0.4539660000000  0.4204510000000 1.0
C      1  0.5871040000000  0.4760110000000  0.5410730000000 1.0
C      1  0.4749670000000  0.5545280000000  0.4790920000000 1.0
C      1  0.5507030000000  0.4953420000000  0.5930410000000 1.0
C      1  0.5605930000000  0.5759090000000  0.5443440000000 1.0
C      1  0.4959630000000  0.3947030000000  0.5063190000000 1.0
C      1  0.4681570000000  0.5812960000000  0.5283490000000 1.0
C      1  0.4765420000000  0.5452290000000  0.5739080000000 1.0
C      1  0.5151500000000  0.5728540000000  0.5473910000000 1.0
C      1  0.4498140000000  0.5035320000000  0.5211090000000 1.0
C      1  0.4453410000000  0.5019040000000  0.5814810000000 1.0
C      1  0.5965040000000  0.5068240000000  0.4835920000000 1.0
C      1  0.5500050000000  0.5257590000000  0.4925930000000 1.0
C      1  0.4227490000000  0.4897960000000  0.4521090000000 1.0
C      1  0.5361570000000  0.5917700000000  0.5385340000000 1.0
C      1  0.5115050000000  0.5086040000000  0.4328490000000 1.0
C      1  0.6008060000000  0.5333440000000  0.4961500000000 1.0
C      1  0.4356560000000  0.4706070000000  0.4341390000000 1.0
C      1  0.4900790000000  0.4815770000000  0.6018260000000 1.0
C      1  0.4851720000000  0.5087990000000  0.6058570000000 1.0
C      1  0.5492690000000  0.5627250000000  0.4729470000000 1.0
C      1  0.5211880000000  0.4243960000000  0.4806130000000 1.0
C      1  0.5234410000000  0.5559490000000  0.5233010000000 1.0
C      1  0.4853780000000  0.5175180000000  0.3929860000000 1.0
C      1  0.4226160000000  0.5111450000000  0.5633180000000 1.0
C      1  0.4532870000000  0.4787810000000  0.4121400000000 1.0
C      1  0.4686710000000  0.5152390000000  0.5046850000000 1.0
C      1  0.4579260000000  0.4218170000000  0.4518740000000 1.0
C      1  0.5425770000000  0.5216200000000  0.4030710000000 1.0
C      1  0.4474100000000  0.4414780000000  0.4857220000000 1.0
C      1  0.5210770000000  0.5600080000000  0.4649620000000 1.0
C      1  0.5488170000000  0.5493380000000  0.4118000000000 1.0
C      1  0.4664610000000  0.4005470000000  0.5018780000000 1.0
C      1  0.5010310000000  0.5418530000000  0.5156210000000 1.0
C      1  0.5595160000000  0.5022480000000  0.4151560000000 1.0
C      1  0.4737100000000  0.4610550000000  0.5898080000000 1.0
C      1  0.5232720000000  0.5815860000000  0.4444100000000 1.0
C      1  0.4499400000000  0.5864060000000  0.5072240000000 1.0
C      1  0.4075600000000  0.4818950000000  0.4767360000000 1.0
C      1  0.4976250000000  0.5422770000000  0.4653350000000 1.0
C      1  0.4892510000000  0.5216200000000  0.4464000000000 1.0
C      1  0.4602090000000  0.5839030000000  0.4560620000000 1.0
C      1  0.5007980000000  0.4007870000000  0.4786880000000 1.0
C      1  0.5226110000000  0.4768490000000  0.3986000000000 1.0
C      1  0.4980970000000  0.5008300000000  0.5821330000000 1.0
C      1  0.5744520000000  0.4702000000000  0.4443430000000 1.0
C      1  0.4092800000000  0.5256040000000  0.5020810000000 1.0
C      1  0.4274760000000  0.4626400000000  0.5593090000000 1.0
C      1  0.4277820000000  0.5681900000000  0.5046390000000 1.0
C      1  0.4069310000000  0.4537920000000  0.5164520000000 1.0
C      1  0.5737000000000  0.4512210000000  0.4620340000000 1.0
C      1  0.5801150000000  0.4498670000000  0.5327690000000 1.0
C      1  0.4001530000000  0.4806630000000  0.5253810000000 1.0
C      1  0.5729900000000  0.4358260000000  0.4850770000000 1.0
C      1  0.4870750000000  0.5030220000000  0.5549430000000 1.0
C      1  0.5864920000000  0.5023890000000  0.5517400000000 1.0
C      1  0.4873770000000  0.4212500000000  0.5630020000000 1.0
C      1  0.5449260000000  0.5349170000000  0.5216230000000 1.0
C      1  0.5251550000000  0.4428620000000  0.5837320000000 1.0
C      1  0.4610740000000  0.5396390000000  0.4985000000000 1.0
C      1  0.5394700000000  0.4789170000000  0.5202910000000 1.0
C      1  0.4715230000000  0.5284280000000  0.5495480000000 1.0
C      1  0.5565630000000  0.5783620000000  0.4975240000000 1.0
C      1  0.4490000000000  0.4206600000000  0.5039740000000 1.0
C      1  0.4836970000000  0.5033980000000  0.4879430000000 1.0
C      1  0.4931980000000  0.4406900000000  0.5824120000000 1.0
C      1  0.4295100000000  0.5328050000000  0.4801620000000 1.0
C      1  0.5148290000000  0.5951910000000  0.4890240000000 1.0
C      1  0.5833490000000  0.4828700000000  0.4947960000000 1.0
C      1  0.4019430000000  0.4974980000000  0.5011320000000 1.0
C      1  0.4959910000000  0.5940610000000  0.4709910000000 1.0
C      1  0.5509380000000  0.4758110000000  0.4050350000000 1.0
C      1  0.5174360000000  0.4012390000000  0.5255040000000 1.0
C      1  0.5360360000000  0.5958920000000  0.5084520000000 1.0
C      1  0.5137020000000  0.4100950000000  0.5523840000000 1.0
C      1  0.4781260000000  0.4635560000000  0.4157960000000 1.0
C      1  0.4068170000000  0.4547750000000  0.4864340000000 1.0
C      1  0.4691150000000  0.4995900000000  0.4493890000000 1.0
C      1  0.4499250000000  0.5328700000000  0.4098550000000 1.0
C      1  0.5430280000000  0.4375360000000  0.4225230000000 1.0
C      1  0.4526860000000  0.4687280000000  0.4923260000000 1.0
C      1  0.5441670000000  0.4979640000000  0.5414560000000 1.0
C      1  0.5585460000000  0.4279350000000  0.5406670000000 1.0
C      1  0.4489440000000  0.5813500000000  0.5483050000000 1.0
C      1  0.5902040000000  0.5441030000000  0.4482250000000 1.0
C      1  0.4494480000000  0.4751130000000  0.5199050000000 1.0
C      1  0.4262300000000  0.5595070000000  0.5722070000000 1.0
C      1  0.5916660000000  0.5146810000000  0.4551200000000 1.0
C      1  0.5894220000000  0.5454630000000  0.5206140000000 1.0
C      1  0.4701330000000  0.5838420000000  0.4793160000000 1.0
C      1  0.4078840000000  0.5391610000000  0.5742200000000 1.0
C      1  0.4110330000000  0.4851420000000  0.5522310000000 1.0
C      1  0.5269810000000  0.5170500000000  0.5349650000000 1.0
C      1  0.5749560000000  0.5708060000000  0.5188540000000 1.0
C      1  0.5537230000000  0.4796000000000  0.4937680000000 1.0
C      1  0.4228630000000  0.4369380000000  0.4694220000000 1.0
C      1  0.5680800000000  0.5587270000000  0.4337640000000 1.0
C      1  0.4883800000000  0.4766120000000  0.5417810000000 1.0
C      1  0.5329730000000  0.4596110000000  0.5402170000000 1.0
C      1  0.4859380000000  0.4762310000000  0.4413540000000 1.0
C      1  0.6036560000000  0.5529600000000  0.4732290000000 1.0
C      1  0.4645800000000  0.4318230000000  0.5471970000000 1.0
C      1  0.5451480000000  0.4123220000000  0.5194890000000 1.0
C      1  0.5154630000000  0.5068140000000  0.4019340000000 1.0
C      1  0.5229250000000  0.4907790000000  0.4514460000000 1.0
C      1  0.4385290000000  0.5400610000000  0.4355680000000 1.0
C      1  0.4530890000000  0.5675440000000  0.5719060000000 1.0
C      1  0.4247770000000  0.5617310000000  0.4756120000000 1.0
C      1  0.5068060000000  0.4918200000000  0.4998330000000 1.0
C      1  0.4385480000000  0.5245520000000  0.5387270000000 1.0
C      1  0.4761870000000  0.5451290000000  0.3967200000000 1.0
C      1  0.5491140000000  0.4200930000000  0.4918860000000 1.0
C      1  0.4646800000000  0.4602270000000  0.5397670000000 1.0
C      1  0.5373510000000  0.5221460000000  0.5943980000000 1.0
C      1  0.5538800000000  0.5220260000000  0.4707340000000 1.0
C      1  0.5294610000000  0.5678770000000  0.4200210000000 1.0
C      1  0.4985580000000  0.4648890000000  0.4896670000000 1.0
C      1  0.4640980000000  0.5221180000000  0.5916490000000 1.0
C      1  0.5875680000000  0.4548320000000  0.5047560000000 1.0
C      1  0.5672800000000  0.5017410000000  0.4449140000000 1.0
C      1  0.4976850000000  0.4584880000000  0.4610520000000 1.0
C      1  0.4218990000000  0.5432760000000  0.5208840000000 1.0
C      1  0.5062640000000  0.4427530000000  0.5040180000000 1.0
C      1  0.5312000000000  0.4684950000000  0.5684090000000 1.0
C      1  0.4246420000000  0.4424770000000  0.5370460000000 1.0
C      1  0.5343240000000  0.5451300000000  0.5765040000000 1.0
C      1  0.4591760000000  0.5060810000000  0.4022030000000 1.0
C      1  0.5156160000000  0.4338240000000  0.4233240000000 1.0
C      1  0.4747280000000  0.5501870000000  0.5242720000000 1.0
C      1  0.5760530000000  0.5318640000000  0.5432070000000 1.0
C      1  0.4724550000000  0.4048190000000  0.4717100000000 1.0
C      1  0.5615780000000  0.4976120000000  0.5651930000000 1.0
C      1  0.5369550000000  0.4839110000000  0.4710790000000 1.0
C      1  0.4433830000000  0.4197520000000  0.5304020000000 1.0
C      1  0.4487290000000  0.4731320000000  0.5780100000000 1.0
C      1  0.5546350000000  0.5795570000000  0.4493840000000 1.0
END
