TITL C-883736-9678-331 18.7992980121373 125000 -16472.7046295339 0 0 112 (C1) n - 1
REM
REM in /home/nfs/bkarasulu/CARBON/AIRSS/Generating-Clusters/ReaxFF-fromJPCA2015/Units_Real/with-SteepDescent/Only-C1/SD-CG/Try1-3A/FIRE-CG
REM
REM
REM
REM
REM
REM ./C.cell (11c1c37f851c82e70ff6c80c92926a4b)
REM
REM compiler GCC version 9.2.1 20190827 (Red Hat 9.2.1-1)
REM options -cpp -mtune=generic -march=x86-64 -g -O0 -fpre-include=/usr/include/finclude/math-vector-fortran.h
REM seed 608296622 2063429479 -899032105 789390306 -1460167574 895047206 -1533655618 1944314859 -1565830017 230695663 1404436177 -1106485743 -322649303 -1765628767 -1433096759 2078806381 211093282 -351130835 834880479 1902211892 227415904 1270043966 -1798210195 1686979551 1003447438 -1893179735 1171017245 -1869792654 -153095515 1978221796 1936928286 1631436451 1973982402
REM
CELL 1.54180   50.00000   50.00000   50.00000   90.00000   90.00000   90.00000
LATT -1
SFAC C  
C      1  0.4690420000000  0.4866840000000  0.4827420000000 1.0
C      1  0.5587670000000  0.4484060000000  0.4394980000000 1.0
C      1  0.5769860000000  0.4716860000000  0.4429160000000 1.0
C      1  0.5640030000000  0.4433330000000  0.5528270000000 1.0
C      1  0.4804130000000  0.4180980000000  0.4817150000000 1.0
C      1  0.4967730000000  0.3913200000000  0.5076540000000 1.0
C      1  0.5943180000000  0.5071650000000  0.4793950000000 1.0
C      1  0.5267410000000  0.5747090000000  0.5477420000000 1.0
C      1  0.4819270000000  0.5500730000000  0.4101410000000 1.0
C      1  0.5416940000000  0.4142760000000  0.4905340000000 1.0
C      1  0.5087970000000  0.5344570000000  0.5698180000000 1.0
C      1  0.5124650000000  0.5243810000000  0.4574640000000 1.0
C      1  0.5185570000000  0.4758560000000  0.4835830000000 1.0
C      1  0.5754550000000  0.4997030000000  0.5279030000000 1.0
C      1  0.5322850000000  0.5169280000000  0.5023840000000 1.0
C      1  0.4606170000000  0.5115080000000  0.5650220000000 1.0
C      1  0.5342840000000  0.4141070000000  0.5413020000000 1.0
C      1  0.4783390000000  0.4538400000000  0.4323080000000 1.0
C      1  0.4339350000000  0.5155670000000  0.5526340000000 1.0
C      1  0.5197300000000  0.5926090000000  0.5273400000000 1.0
C      1  0.5570310000000  0.5319980000000  0.5016260000000 1.0
C      1  0.5687740000000  0.5599780000000  0.5295630000000 1.0
C      1  0.5124790000000  0.5304250000000  0.4857450000000 1.0
C      1  0.5303730000000  0.4402540000000  0.4442890000000 1.0
C      1  0.5479520000000  0.4461580000000  0.5754760000000 1.0
C      1  0.4571410000000  0.4682360000000  0.5014660000000 1.0
C      1  0.5196100000000  0.4982930000000  0.4037000000000 1.0
C      1  0.4631490000000  0.4787150000000  0.4268730000000 1.0
C      1  0.4693990000000  0.5623990000000  0.5593310000000 1.0
C      1  0.5663180000000  0.4466970000000  0.5250870000000 1.0
C      1  0.5822850000000  0.5162590000000  0.5047140000000 1.0
C      1  0.3937800000000  0.5203360000000  0.5392890000000 1.0
C      1  0.4536100000000  0.5741350000000  0.5385310000000 1.0
C      1  0.5083030000000  0.4097190000000  0.5279470000000 1.0
C      1  0.4674830000000  0.5898970000000  0.4840060000000 1.0
C      1  0.4912860000000  0.6017150000000  0.5269630000000 1.0
C      1  0.4230610000000  0.5523850000000  0.5124150000000 1.0
C      1  0.4799300000000  0.4948960000000  0.5280570000000 1.0
C      1  0.4406420000000  0.4373600000000  0.5212110000000 1.0
C      1  0.4307540000000  0.5313440000000  0.4622880000000 1.0
C      1  0.4945660000000  0.4840040000000  0.4708440000000 1.0
C      1  0.4957970000000  0.5123330000000  0.4049730000000 1.0
C      1  0.4377340000000  0.4815240000000  0.4409490000000 1.0
C      1  0.5653160000000  0.5127150000000  0.5519070000000 1.0
C      1  0.4176590000000  0.4599480000000  0.4776660000000 1.0
C      1  0.5217100000000  0.5091600000000  0.5718300000000 1.0
C      1  0.5297640000000  0.4879430000000  0.5090940000000 1.0
C      1  0.4670790000000  0.5626020000000  0.4895590000000 1.0
C      1  0.4472890000000  0.5183480000000  0.5066420000000 1.0
C      1  0.5580040000000  0.5426840000000  0.5496680000000 1.0
C      1  0.5044420000000  0.4370420000000  0.5162420000000 1.0
C      1  0.4608970000000  0.4194310000000  0.5295360000000 1.0
C      1  0.4160870000000  0.4889760000000  0.4824260000000 1.0
C      1  0.5231470000000  0.3914790000000  0.4920490000000 1.0
C      1  0.4245660000000  0.4997550000000  0.5085480000000 1.0
C      1  0.4753050000000  0.5886800000000  0.5473960000000 1.0
C      1  0.5702570000000  0.5126920000000  0.4408350000000 1.0
C      1  0.5432220000000  0.4796100000000  0.4686510000000 1.0
C      1  0.5114390000000  0.5872280000000  0.4622200000000 1.0
C      1  0.5439130000000  0.4750830000000  0.5881190000000 1.0
C      1  0.5262170000000  0.4325120000000  0.4722470000000 1.0
C      1  0.5891920000000  0.4802860000000  0.4697930000000 1.0
C      1  0.5083150000000  0.5364010000000  0.4111600000000 1.0
C      1  0.4481530000000  0.5667740000000  0.5116860000000 1.0
C      1  0.4651060000000  0.4290290000000  0.4626260000000 1.0
C      1  0.4159970000000  0.4980400000000  0.5366370000000 1.0
C      1  0.5244700000000  0.5726770000000  0.5061040000000 1.0
C      1  0.4601140000000  0.5397900000000  0.4669710000000 1.0
C      1  0.4979170000000  0.4437190000000  0.5626620000000 1.0
C      1  0.5080870000000  0.4530160000000  0.4279990000000 1.0
C      1  0.5720070000000  0.5487740000000  0.4586510000000 1.0
C      1  0.4693230000000  0.4360100000000  0.5522600000000 1.0
C      1  0.5514860000000  0.4228550000000  0.5181560000000 1.0
C      1  0.4204390000000  0.5414890000000  0.4865130000000 1.0
C      1  0.5015670000000  0.4384280000000  0.4869130000000 1.0
C      1  0.4920270000000  0.6035580000000  0.4729550000000 1.0
C      1  0.5530670000000  0.4902890000000  0.4416570000000 1.0
C      1  0.5172800000000  0.4748900000000  0.4138370000000 1.0
C      1  0.5540490000000  0.5667620000000  0.4682820000000 1.0
C      1  0.4707120000000  0.5202600000000  0.5252450000000 1.0
C      1  0.5314400000000  0.5528750000000  0.5637620000000 1.0
C      1  0.4795270000000  0.5525340000000  0.4411740000000 1.0
C      1  0.5497660000000  0.5011430000000  0.5735950000000 1.0
C      1  0.5898790000000  0.5264860000000  0.4560180000000 1.0
C      1  0.4971880000000  0.5019670000000  0.4506670000000 1.0
C      1  0.4912090000000  0.5416270000000  0.5255630000000 1.0
C      1  0.5129260000000  0.5455230000000  0.4388720000000 1.0
C      1  0.5264890000000  0.4298980000000  0.5648190000000 1.0
C      1  0.5054830000000  0.4561690000000  0.5366040000000 1.0
C      1  0.4346790000000  0.4552800000000  0.4536060000000 1.0
C      1  0.4170080000000  0.5388790000000  0.5404430000000 1.0
C      1  0.4569130000000  0.4620780000000  0.5555030000000 1.0
C      1  0.5068240000000  0.4848380000000  0.5336260000000 1.0
C      1  0.4716110000000  0.4055060000000  0.5053480000000 1.0
C      1  0.4813430000000  0.6073590000000  0.5006680000000 1.0
C      1  0.4797190000000  0.5357260000000  0.5654500000000 1.0
C      1  0.4248830000000  0.4458420000000  0.5013450000000 1.0
C      1  0.5100880000000  0.4871970000000  0.5607030000000 1.0
C      1  0.5188570000000  0.4744230000000  0.6015010000000 1.0
C      1  0.4635840000000  0.5153020000000  0.4831010000000 1.0
C      1  0.5519370000000  0.5627430000000  0.5006020000000 1.0
C      1  0.4593750000000  0.4745510000000  0.5278110000000 1.0
C      1  0.4256440000000  0.5020850000000  0.4582290000000 1.0
C      1  0.4624920000000  0.4509170000000  0.4547070000000 1.0
C      1  0.4807930000000  0.5013920000000  0.4275420000000 1.0
C      1  0.4697290000000  0.5745210000000  0.4226610000000 1.0
C      1  0.4672850000000  0.4838560000000  0.5716780000000 1.0
C      1  0.5291790000000  0.5702900000000  0.4518990000000 1.0
C      1  0.5605120000000  0.4763860000000  0.5151190000000 1.0
C      1  0.5002500000000  0.5548840000000  0.4989070000000 1.0
C      1  0.5656350000000  0.4733620000000  0.4850550000000 1.0
C      1  0.4955480000000  0.4716600000000  0.5784170000000 1.0
END
