TITL C-883737-113-258 9.93824901598894 125000 -21232.5138950839 0 0 143 (C1) n - 1
REM
REM in /home/nfs/bkarasulu/CARBON/AIRSS/Generating-Clusters/ReaxFF-fromJPCA2015/Units_Real/with-SteepDescent/Only-C1/SD-CG/Try1-3A/FIRE-CG
REM
REM
REM
REM
REM
REM ./C.cell (11c1c37f851c82e70ff6c80c92926a4b)
REM
REM compiler GCC version 9.2.1 20190827 (Red Hat 9.2.1-1)
REM options -cpp -mtune=generic -march=x86-64 -g -O0 -fpre-include=/usr/include/finclude/math-vector-fortran.h
REM seed -1252927490 1350028591 663220710 -496143659 1502062028 -25754474 1136170426 1243918030 103363897 568010519 -168565119 2095826826 1926563902 -506846902 1611067495 -277120109 229558628 631979278 1945508632 -839214505 726183586 37522825 1585137908 -614677720 -118425111 1098427943 -1557308619 1715796422 -964673436 -363261754 882703048 412300907 -1977190955
REM
CELL 1.54180   50.00000   50.00000   50.00000   90.00000   90.00000   90.00000
LATT -1
SFAC C  
C      1  0.4376920000000  0.4516760000000  0.4328620000000 1.0
C      1  0.4756210000000  0.5817140000000  0.4554490000000 1.0
C      1  0.4535240000000  0.5065320000000  0.4710830000000 1.0
C      1  0.5186180000000  0.5365080000000  0.3967820000000 1.0
C      1  0.4744210000000  0.4942200000000  0.6111080000000 1.0
C      1  0.4971040000000  0.5705090000000  0.5560120000000 1.0
C      1  0.4797360000000  0.5101470000000  0.5099620000000 1.0
C      1  0.4848240000000  0.4204860000000  0.4500530000000 1.0
C      1  0.4331080000000  0.4293300000000  0.5315520000000 1.0
C      1  0.4090780000000  0.5471180000000  0.5064020000000 1.0
C      1  0.5749910000000  0.5379800000000  0.5590740000000 1.0
C      1  0.5143280000000  0.4321150000000  0.4821830000000 1.0
C      1  0.5163100000000  0.5486280000000  0.5614440000000 1.0
C      1  0.4952010000000  0.5153530000000  0.4684380000000 1.0
C      1  0.5391320000000  0.4202660000000  0.5394380000000 1.0
C      1  0.4293810000000  0.4177050000000  0.5049400000000 1.0
C      1  0.4650120000000  0.5140330000000  0.5922020000000 1.0
C      1  0.4932530000000  0.4882370000000  0.4568540000000 1.0
C      1  0.5366800000000  0.5650700000000  0.5499670000000 1.0
C      1  0.5480260000000  0.4421240000000  0.5237230000000 1.0
C      1  0.5097230000000  0.4513610000000  0.4364160000000 1.0
C      1  0.4358490000000  0.5823560000000  0.5322910000000 1.0
C      1  0.5328950000000  0.4805060000000  0.4026070000000 1.0
C      1  0.5454670000000  0.5821850000000  0.4997050000000 1.0
C      1  0.5461450000000  0.5048300000000  0.4015200000000 1.0
C      1  0.5233630000000  0.5466510000000  0.5914970000000 1.0
C      1  0.4163610000000  0.5300010000000  0.5286260000000 1.0
C      1  0.4273140000000  0.4821820000000  0.5632030000000 1.0
C      1  0.5928420000000  0.5102370000000  0.4568290000000 1.0
C      1  0.4322670000000  0.5146080000000  0.4213090000000 1.0
C      1  0.5733980000000  0.4391290000000  0.4721140000000 1.0
C      1  0.4399830000000  0.5545060000000  0.4630690000000 1.0
C      1  0.4820380000000  0.5772630000000  0.5169200000000 1.0
C      1  0.4738450000000  0.4864390000000  0.4123710000000 1.0
C      1  0.5842480000000  0.4870190000000  0.4427080000000 1.0
C      1  0.5036100000000  0.5105750000000  0.4965840000000 1.0
C      1  0.5354490000000  0.4930240000000  0.5240010000000 1.0
C      1  0.4618180000000  0.5586460000000  0.4428110000000 1.0
C      1  0.5067760000000  0.5112040000000  0.3906800000000 1.0
C      1  0.5520710000000  0.5354640000000  0.4892290000000 1.0
C      1  0.4042110000000  0.4919760000000  0.4895400000000 1.0
C      1  0.5643080000000  0.4957910000000  0.5917700000000 1.0
C      1  0.5412810000000  0.5681180000000  0.4442450000000 1.0
C      1  0.4749040000000  0.4301560000000  0.5674450000000 1.0
C      1  0.6023850000000  0.5111500000000  0.4855720000000 1.0
C      1  0.4630680000000  0.4317880000000  0.5400660000000 1.0
C      1  0.5455470000000  0.5802770000000  0.4705550000000 1.0
C      1  0.5235680000000  0.4097550000000  0.5159880000000 1.0
C      1  0.5019000000000  0.5515540000000  0.4833520000000 1.0
C      1  0.5140230000000  0.5676370000000  0.4343560000000 1.0
C      1  0.5260490000000  0.4293210000000  0.5640390000000 1.0
C      1  0.5540950000000  0.5396320000000  0.4360490000000 1.0
C      1  0.5980830000000  0.5373160000000  0.4923700000000 1.0
C      1  0.5912180000000  0.5258510000000  0.5391030000000 1.0
C      1  0.4415990000000  0.5696160000000  0.5593290000000 1.0
C      1  0.5587640000000  0.4600910000000  0.4848060000000 1.0
C      1  0.4899410000000  0.4525960000000  0.5359530000000 1.0
C      1  0.4945550000000  0.4670040000000  0.5122500000000 1.0
C      1  0.4342300000000  0.4947160000000  0.5373390000000 1.0
C      1  0.5050180000000  0.5354800000000  0.6070810000000 1.0
C      1  0.5028930000000  0.5717240000000  0.4610930000000 1.0
C      1  0.4751410000000  0.4584430000000  0.5790930000000 1.0
C      1  0.5363620000000  0.4302570000000  0.5001850000000 1.0
C      1  0.4440630000000  0.5220050000000  0.5362050000000 1.0
C      1  0.5180410000000  0.4824730000000  0.5025430000000 1.0
C      1  0.5913950000000  0.4971820000000  0.5350950000000 1.0
C      1  0.4909380000000  0.5974750000000  0.5020340000000 1.0
C      1  0.5579230000000  0.4738970000000  0.5738300000000 1.0
C      1  0.5731850000000  0.4777700000000  0.5495580000000 1.0
C      1  0.4073250000000  0.4338850000000  0.4908820000000 1.0
C      1  0.5811810000000  0.4393130000000  0.4461660000000 1.0
C      1  0.4713730000000  0.4098510000000  0.5192110000000 1.0
C      1  0.5449750000000  0.5036180000000  0.6141010000000 1.0
C      1  0.5356180000000  0.4171230000000  0.4440250000000 1.0
C      1  0.4111260000000  0.4478500000000  0.5333450000000 1.0
C      1  0.4687480000000  0.5923960000000  0.4817770000000 1.0
C      1  0.5624040000000  0.4193570000000  0.4550500000000 1.0
C      1  0.4605480000000  0.5311640000000  0.5091750000000 1.0
C      1  0.4558920000000  0.4107210000000  0.4947260000000 1.0
C      1  0.5186980000000  0.5904210000000  0.5110000000000 1.0
C      1  0.5666240000000  0.4847710000000  0.4987500000000 1.0
C      1  0.4852110000000  0.4412290000000  0.4297850000000 1.0
C      1  0.5496320000000  0.4698300000000  0.5335700000000 1.0
C      1  0.5466000000000  0.5324140000000  0.6035520000000 1.0
C      1  0.4186160000000  0.5375740000000  0.4309230000000 1.0
C      1  0.5487250000000  0.4598830000000  0.4153750000000 1.0
C      1  0.4406430000000  0.4635120000000  0.4995530000000 1.0
C      1  0.5941420000000  0.4925930000000  0.5062090000000 1.0
C      1  0.5669320000000  0.5245890000000  0.5839750000000 1.0
C      1  0.5356930000000  0.5146080000000  0.4413090000000 1.0
C      1  0.4569600000000  0.4572430000000  0.4768570000000 1.0
C      1  0.5676820000000  0.5644080000000  0.5156770000000 1.0
C      1  0.4821510000000  0.5235790000000  0.6155930000000 1.0
C      1  0.4699130000000  0.5810450000000  0.5594800000000 1.0
C      1  0.4996720000000  0.4175100000000  0.5584650000000 1.0
C      1  0.4501420000000  0.4785270000000  0.5211730000000 1.0
C      1  0.5138220000000  0.5287100000000  0.5176650000000 1.0
C      1  0.5335770000000  0.4724720000000  0.4744400000000 1.0
C      1  0.5125300000000  0.4562070000000  0.4636910000000 1.0
C      1  0.5245520000000  0.4849730000000  0.6127740000000 1.0
C      1  0.4132540000000  0.4695770000000  0.4398760000000 1.0
C      1  0.5001420000000  0.5495780000000  0.4159550000000 1.0
C      1  0.5271070000000  0.5454420000000  0.4985740000000 1.0
C      1  0.4034910000000  0.4876470000000  0.4613320000000 1.0
C      1  0.4456090000000  0.5286280000000  0.4807820000000 1.0
C      1  0.5620960000000  0.5594830000000  0.5431220000000 1.0
C      1  0.5534920000000  0.5072160000000  0.4855780000000 1.0
C      1  0.4370590000000  0.4264490000000  0.4462080000000 1.0
C      1  0.4269110000000  0.5707100000000  0.5062790000000 1.0
C      1  0.4062800000000  0.4603680000000  0.5596400000000 1.0
C      1  0.5904970000000  0.5463280000000  0.5166610000000 1.0
C      1  0.4735530000000  0.5396940000000  0.4239160000000 1.0
C      1  0.4799180000000  0.5533800000000  0.5027710000000 1.0
C      1  0.4612100000000  0.5129590000000  0.4179870000000 1.0
C      1  0.4438190000000  0.5777750000000  0.4836300000000 1.0
C      1  0.5752840000000  0.4637030000000  0.4297460000000 1.0
C      1  0.5006870000000  0.4685920000000  0.5582670000000 1.0
C      1  0.5312200000000  0.4389520000000  0.4252740000000 1.0
C      1  0.5197640000000  0.5125100000000  0.5412760000000 1.0
C      1  0.4762190000000  0.4867390000000  0.5214330000000 1.0
C      1  0.5785890000000  0.5355790000000  0.4523960000000 1.0
C      1  0.4609400000000  0.4265820000000  0.4681570000000 1.0
C      1  0.5001830000000  0.4858830000000  0.3985540000000 1.0
C      1  0.5162730000000  0.4619790000000  0.6018940000000 1.0
C      1  0.5181690000000  0.5834390000000  0.5393550000000 1.0
C      1  0.5763110000000  0.5491640000000  0.4786520000000 1.0
C      1  0.4110050000000  0.4966440000000  0.4323940000000 1.0
C      1  0.4646460000000  0.4606210000000  0.4224990000000 1.0
C      1  0.4961080000000  0.4982930000000  0.5531800000000 1.0
C      1  0.4679180000000  0.5070990000000  0.5625570000000 1.0
C      1  0.4039800000000  0.5171910000000  0.5038930000000 1.0
C      1  0.4103370000000  0.5586550000000  0.4460530000000 1.0
C      1  0.5294810000000  0.4571310000000  0.5738930000000 1.0
C      1  0.4876620000000  0.4688010000000  0.6052440000000 1.0
C      1  0.4556520000000  0.4805290000000  0.5692930000000 1.0
C      1  0.4641910000000  0.4818450000000  0.4629040000000 1.0
C      1  0.5110390000000  0.4132930000000  0.4599900000000 1.0
C      1  0.4636270000000  0.5926550000000  0.5326270000000 1.0
C      1  0.4977610000000  0.4070710000000  0.5306820000000 1.0
C      1  0.4091320000000  0.4612810000000  0.5027930000000 1.0
C      1  0.5078700000000  0.5103600000000  0.4435800000000 1.0
C      1  0.5423290000000  0.4973030000000  0.4621320000000 1.0
C      1  0.5472900000000  0.5325050000000  0.4058390000000 1.0
END
