TITL C-883738-3659-136 59.6623350174393 125000 -11555.4041354111 0 0 79 (C1) n - 1
REM
REM in /home/nfs/bkarasulu/CARBON/AIRSS/Generating-Clusters/ReaxFF-fromJPCA2015/Units_Real/with-SteepDescent/Only-C1/SD-CG/Try1-3A/FIRE-CG
REM
REM
REM
REM
REM
REM ./C.cell (11c1c37f851c82e70ff6c80c92926a4b)
REM
REM compiler GCC version 9.2.1 20190827 (Red Hat 9.2.1-1)
REM options -cpp -mtune=generic -march=x86-64 -g -O0 -fpre-include=/usr/include/finclude/math-vector-fortran.h
REM seed 29306243 -1989518730 -859146217 1248079186 -564881485 350628358 -1009369842 1103719905 981120623 536196924 801138455 -2070301181 244841079 958226377 150452605 735521663 75173488 855532000 -656264395 938955880 2057427511 1088475338 9649961 -1920689721 1462562268 447624736 -43995054 -1835856029 2106892859 -1495364832 773805634 587246322 1786187247
REM
CELL 1.54180   50.00000   50.00000   50.00000   90.00000   90.00000   90.00000
LATT -1
SFAC C  
C      1  0.5091770000000  0.4395030000000  0.5570350000000 1.0
C      1  0.5233760000000  0.4502110000000  0.5063830000000 1.0
C      1  0.5012210000000  0.5620430000000  0.5437650000000 1.0
C      1  0.5288160000000  0.4248020000000  0.4902280000000 1.0
C      1  0.4622650000000  0.5075460000000  0.5062880000000 1.0
C      1  0.4740780000000  0.4816660000000  0.5704900000000 1.0
C      1  0.4269140000000  0.4748550000000  0.4988190000000 1.0
C      1  0.5235920000000  0.5283100000000  0.5743160000000 1.0
C      1  0.4531300000000  0.4659310000000  0.5363920000000 1.0
C      1  0.5245410000000  0.5497210000000  0.5530460000000 1.0
C      1  0.5539960000000  0.5041960000000  0.4633660000000 1.0
C      1  0.4982600000000  0.5614870000000  0.4331660000000 1.0
C      1  0.4753090000000  0.4669040000000  0.4525840000000 1.0
C      1  0.4870960000000  0.4742440000000  0.4785160000000 1.0
C      1  0.5686410000000  0.4752570000000  0.4617810000000 1.0
C      1  0.4832240000000  0.5803080000000  0.4521720000000 1.0
C      1  0.4444380000000  0.5487130000000  0.4711720000000 1.0
C      1  0.4950460000000  0.5795300000000  0.5089490000000 1.0
C      1  0.4830460000000  0.5532470000000  0.5548830000000 1.0
C      1  0.4875600000000  0.5118980000000  0.5214300000000 1.0
C      1  0.4359460000000  0.4363660000000  0.5138240000000 1.0
C      1  0.4479120000000  0.5529220000000  0.5010600000000 1.0
C      1  0.4975410000000  0.5152230000000  0.4719250000000 1.0
C      1  0.4849500000000  0.4549140000000  0.5599490000000 1.0
C      1  0.4776460000000  0.4325740000000  0.4778010000000 1.0
C      1  0.4734860000000  0.5618620000000  0.5150560000000 1.0
C      1  0.5084780000000  0.4944470000000  0.4882370000000 1.0
C      1  0.4784880000000  0.5093370000000  0.5722830000000 1.0
C      1  0.5147200000000  0.4169380000000  0.5362500000000 1.0
C      1  0.5823130000000  0.4733240000000  0.4877410000000 1.0
C      1  0.5452180000000  0.5477920000000  0.5321120000000 1.0
C      1  0.5118120000000  0.4369720000000  0.4418430000000 1.0
C      1  0.4406740000000  0.5297090000000  0.5165120000000 1.0
C      1  0.5286240000000  0.4413240000000  0.5358460000000 1.0
C      1  0.4139920000000  0.4541630000000  0.5155900000000 1.0
C      1  0.4806550000000  0.4882450000000  0.4324130000000 1.0
C      1  0.4139500000000  0.4840390000000  0.5237590000000 1.0
C      1  0.4918810000000  0.4525480000000  0.4943300000000 1.0
C      1  0.5411330000000  0.5209170000000  0.4433600000000 1.0
C      1  0.5479760000000  0.4561830000000  0.4513620000000 1.0
C      1  0.5297500000000  0.4900020000000  0.5409090000000 1.0
C      1  0.5630590000000  0.5243590000000  0.5329400000000 1.0
C      1  0.5420210000000  0.5618420000000  0.5038510000000 1.0
C      1  0.4404990000000  0.5269770000000  0.5450320000000 1.0
C      1  0.5332950000000  0.4320500000000  0.4623360000000 1.0
C      1  0.5041550000000  0.5077600000000  0.5821320000000 1.0
C      1  0.5674020000000  0.4761160000000  0.5143630000000 1.0
C      1  0.5181340000000  0.5829890000000  0.4940750000000 1.0
C      1  0.4943670000000  0.5326070000000  0.4279390000000 1.0
C      1  0.4285150000000  0.4996950000000  0.5448910000000 1.0
C      1  0.4622170000000  0.5673160000000  0.4643680000000 1.0
C      1  0.5350100000000  0.4896760000000  0.4797170000000 1.0
C      1  0.5427580000000  0.4713310000000  0.4992170000000 1.0
C      1  0.4708550000000  0.5161500000000  0.4342360000000 1.0
C      1  0.5697340000000  0.5259970000000  0.4818770000000 1.0
C      1  0.4656030000000  0.4403520000000  0.5436020000000 1.0
C      1  0.5171080000000  0.5356740000000  0.4736500000000 1.0
C      1  0.5204730000000  0.5410690000000  0.5003740000000 1.0
C      1  0.5589530000000  0.4940340000000  0.5373770000000 1.0
C      1  0.5574580000000  0.5513640000000  0.4804340000000 1.0
C      1  0.5089390000000  0.4940980000000  0.5215550000000 1.0
C      1  0.5177200000000  0.5143420000000  0.4278930000000 1.0
C      1  0.4699220000000  0.5138350000000  0.4773040000000 1.0
C      1  0.5230680000000  0.5707260000000  0.4446900000000 1.0
C      1  0.5730650000000  0.5173200000000  0.5079980000000 1.0
C      1  0.4960370000000  0.5392160000000  0.5166980000000 1.0
C      1  0.5108490000000  0.5860020000000  0.4659210000000 1.0
C      1  0.4649030000000  0.5322450000000  0.5613300000000 1.0
C      1  0.4468290000000  0.4817030000000  0.5598910000000 1.0
C      1  0.5095120000000  0.4108780000000  0.5075780000000 1.0
C      1  0.4603690000000  0.4228780000000  0.5195240000000 1.0
C      1  0.4528380000000  0.5228720000000  0.4566870000000 1.0
C      1  0.5407590000000  0.5471630000000  0.4560020000000 1.0
C      1  0.5091790000000  0.4864520000000  0.4268250000000 1.0
C      1  0.4835960000000  0.4388330000000  0.4494600000000 1.0
C      1  0.5301010000000  0.5008960000000  0.5684550000000 1.0
C      1  0.4537340000000  0.4782390000000  0.5097080000000 1.0
C      1  0.4809130000000  0.4127760000000  0.4997670000000 1.0
C      1  0.5251790000000  0.4619930000000  0.4333610000000 1.0
END
